REMARK  Name = =
REMARK  2 active torsions:
REMARK  status: ('A' for Active; 'I' for Inactive)
REMARK    1  A    between atoms: C_1  and  O_7
REMARK    2  A    between atoms: N_3  and  N_4
REMARK                            x       y       z     vdW  Elec       q    Type
REMARK                         _______ _______ _______ _____ _____    ______ ____
ROOT
ATOM      1  C   UNL     1      -4.388  -2.990  32.655  0.00  0.00    +0.414 C 
ATOM      2  O   UNL     1      -3.729  -2.598  31.663  0.00  0.00    -0.225 OA
ATOM      3  N   UNL     1      -5.740  -2.574  32.736  0.00  0.00    -0.199 N 
ATOM      4  H   UNL     1      -6.304  -2.849  33.494  0.00  0.00    +0.176 HD
ENDROOT
BRANCH   3   5
ATOM      5  N   UNL     1      -6.258  -1.767  31.722  0.00  0.00    -0.224 N 
ATOM      6  C   UNL     1      -6.653  -0.414  32.010  0.00  0.00    +0.317 C 
ATOM      7  O   UNL     1      -6.509  -0.007  33.190  0.00  0.00    -0.264 OA
ATOM      8  H   UNL     1      -6.353  -2.124  30.809  0.00  0.00    +0.173 HD
ENDBRANCH   3   5
BRANCH   1   9
ATOM      9  O   UNL     1      -3.797  -3.809  33.637  0.00  0.00    -0.465 OA
ATOM     10  H   UNL     1      -4.301  -4.095  34.374  0.00  0.00    +0.297 HD
ENDBRANCH   1   9
TORSDOF 2
