REMARK  Name = =
REMARK  2 active torsions:
REMARK  status: ('A' for Active; 'I' for Inactive)
REMARK    1  A    between atoms: C_1  and  O_17
REMARK    2  A    between atoms: N_3  and  N_14
REMARK                            x       y       z     vdW  Elec       q    Type
REMARK                         _______ _______ _______ _____ _____    ______ ____
ROOT
ATOM      1  C   UNL     1      -4.883  -2.793  31.769  0.00  0.00    +0.423 C 
ATOM      2  O   UNL     1      -5.459  -3.437  32.679  0.00  0.00    -0.224 OA
ATOM      3  N   UNL     1      -5.250  -1.434  31.605  0.00  0.00    -0.133 N 
ATOM      4  C   UNL     1      -4.577  -0.718  30.558  0.00  0.00    +0.178 C 
ATOM      5  N   UNL     1      -3.352  -0.196  30.748  0.00  0.00    -0.131 NA
ATOM      6  N   UNL     1      -2.748   0.457  29.782  0.00  0.00    -0.145 NA
ATOM      7  C   UNL     1      -3.280   0.649  28.572  0.00  0.00    +0.122 C 
ATOM      8  C   UNL     1      -4.538   0.142  28.295  0.00  0.00    +0.024 C 
ATOM      9  C   UNL     1      -5.126   0.318  27.057  0.00  0.00    +0.002 C 
ATOM     10  C   UNL     1      -6.382  -0.205  26.828  0.00  0.00    +0.000 C 
ATOM     11  C   UNL     1      -6.999  -0.888  27.858  0.00  0.00    +0.000 C 
ATOM     12  C   UNL     1      -6.414  -1.066  29.100  0.00  0.00    +0.003 C 
ATOM     13  C   UNL     1      -5.165  -0.542  29.317  0.00  0.00    +0.037 C 
ENDROOT
BRANCH   3  14
ATOM     14  N   UNL     1      -6.192  -0.791  32.378  0.00  0.00    -0.215 N 
ATOM     15  C   UNL     1      -6.119  -0.828  33.780  0.00  0.00    +0.317 C 
ATOM     16  O   UNL     1      -5.228  -1.425  34.399  0.00  0.00    -0.264 OA
ATOM     17  H   UNL     1      -6.925  -0.300  31.942  0.00  0.00    +0.174 HD
ENDBRANCH   3  14
BRANCH   1  18
ATOM     18  O   UNL     1      -3.943  -3.451  31.004  0.00  0.00    -0.465 OA
ATOM     19  H   UNL     1      -3.496  -2.996  30.317  0.00  0.00    +0.297 HD
ENDBRANCH   1  18
TORSDOF 2
