REMARK  Name = =
REMARK  4 active torsions:
REMARK  status: ('A' for Active; 'I' for Inactive)
REMARK    1  A    between atoms: C_1  and  O_22
REMARK    2  A    between atoms: N_3  and  N_15
REMARK    3  A    between atoms: N_8  and  S_18
REMARK    4  A    between atoms: S_18  and  N_21
REMARK                            x       y       z     vdW  Elec       q    Type
REMARK                         _______ _______ _______ _____ _____    ______ ____
ROOT
ATOM      1  C   UNL     1     -11.632   0.145  20.804  0.00  0.00    +0.423 C 
ATOM      2  O   UNL     1     -12.063  -0.390  19.729  0.00  0.00    -0.224 OA
ATOM      3  N   UNL     1     -11.033  -0.615  21.850  0.00  0.00    -0.133 N 
ATOM      4  C   UNL     1     -10.946  -2.012  21.657  0.00  0.00    +0.178 A 
ATOM      5  N   UNL     1      -9.774  -2.610  21.482  0.00  0.00    -0.130 NA
ATOM      6  N   UNL     1      -9.680  -3.888  21.288  0.00  0.00    -0.130 NA
ATOM      7  C   UNL     1     -10.745  -4.776  21.234  0.00  0.00    +0.170 A 
ATOM      8  N   UNL     1     -10.440  -6.114  21.018  0.00  0.00    -0.188 N 
ATOM      9  C   UNL     1     -11.952  -4.160  21.416  0.00  0.00    +0.037 A 
ATOM     10  C   UNL     1     -13.084  -4.936  21.407  0.00  0.00    +0.003 C 
ATOM     11  C   UNL     1     -14.296  -4.336  21.604  0.00  0.00    +0.000 C 
ATOM     12  C   UNL     1     -14.432  -2.970  21.815  0.00  0.00    +0.000 C 
ATOM     13  C   UNL     1     -13.317  -2.191  21.827  0.00  0.00    +0.003 C 
ATOM     14  C   UNL     1     -12.075  -2.782  21.629  0.00  0.00    +0.038 A 
ATOM     15  H   UNL     1      -9.466  -6.251  20.970  0.00  0.00    +0.176 HD
ENDROOT
BRANCH   3  16
ATOM     16  N   UNL     1     -10.583   0.082  22.962  0.00  0.00    -0.215 N 
ATOM     17  C   UNL     1      -9.307  -0.017  23.546  0.00  0.00    +0.317 C 
ATOM     18  O   UNL     1      -8.476  -0.787  23.051  0.00  0.00    -0.264 OA
ATOM     19  H   UNL     1     -11.218   0.706  23.383  0.00  0.00    +0.174 HD
ENDBRANCH   3  16
BRANCH   8  20
ATOM     20  S   UNL     1     -11.264  -7.564  20.815  0.00  0.00    +0.108 S 
ATOM     21  O   UNL     1     -11.638  -7.964  19.437  0.00  0.00    -0.138 OA
ATOM     22  O   UNL     1     -10.294  -8.725  21.273  0.00  0.00    -0.138 OA
BRANCH  20  23
ATOM     23  N   UNL     1     -12.639  -7.661  21.857  0.00  0.00    -0.191 NA
ATOM     24  H   UNL     1     -12.370  -7.384  22.801  0.00  0.00    +0.146 HD
ATOM     25  H   UNL     1     -12.989  -8.619  21.870  0.00  0.00    +0.146 HD
ENDBRANCH  20  23
ENDBRANCH   8  20
BRANCH   1  26
ATOM     26  O   UNL     1     -11.792   1.519  20.873  0.00  0.00    -0.465 OA
ATOM     27  H   UNL     1     -11.501   1.987  21.631  0.00  0.00    +0.297 HD
ENDBRANCH   1  26
TORSDOF 4
