REMARK  Name = =
REMARK  8 active torsions:
REMARK  status: ('A' for Active; 'I' for Inactive)
REMARK    1  A    between atoms: C_1  and  O_28
REMARK    2  A    between atoms: N_3  and  C_4
REMARK    3  A    between atoms: N_3  and  N_21
REMARK    4  A    between atoms: C_7  and  N_8
REMARK    5  A    between atoms: N_8  and  S_24
REMARK    6  A    between atoms: C_11  and  C_15
REMARK    7  A    between atoms: N_17  and  S_18
REMARK    8  A    between atoms: S_24  and  N_27
REMARK                            x       y       z     vdW  Elec       q    Type
REMARK                         _______ _______ _______ _____ _____    ______ ____
ROOT
ATOM      1  C   UNL     1      -9.499  -4.667  20.228  0.00  0.00    +0.178 A 
ATOM      2  N   UNL     1      -9.513  -5.766  19.471  0.00  0.00    -0.130 NA
ATOM      3  N   UNL     1     -10.318  -6.774  19.644  0.00  0.00    -0.130 NA
ATOM      4  C   UNL     1     -11.276  -6.810  20.669  0.00  0.00    +0.170 A 
ATOM      5  C   UNL     1     -11.259  -5.688  21.438  0.00  0.00    +0.038 A 
ATOM      6  C   UNL     1     -12.145  -5.576  22.486  0.00  0.00    +0.008 C 
ATOM      7  C   UNL     1     -12.218  -4.490  23.328  0.00  0.00    +0.055 C 
ATOM      8  C   UNL     1     -11.344  -3.447  23.105  0.00  0.00    +0.005 C 
ATOM      9  C   UNL     1     -10.425  -3.486  22.072  0.00  0.00    +0.003 C 
ATOM     10  C   UNL     1     -10.386  -4.595  21.249  0.00  0.00    +0.038 A 
ENDROOT
BRANCH   7  11
ATOM     11  C   UNL     1     -13.196  -4.467  24.406  0.00  0.00    +0.264 C 
ATOM     12  O   UNL     1     -13.471  -5.535  25.030  0.00  0.00    -0.269 OA
ATOM     13  N   UNL     1     -13.887  -3.301  24.821  0.00  0.00    -0.188 N 
ATOM     14  H   UNL     1     -13.695  -2.455  24.355  0.00  0.00    +0.176 HD
BRANCH  13  15
ATOM     15  S   UNL     1     -15.043  -3.283  26.094  0.00  0.00    +0.035 S 
ATOM     16  O   UNL     1     -14.482  -2.386  27.177  0.00  0.00    -0.158 OA
ATOM     17  O   UNL     1     -16.383  -2.748  25.625  0.00  0.00    -0.158 OA
ATOM     18  H   UNL     1     -15.259  -4.547  26.546  0.00  0.00    +0.233 HD
ENDBRANCH  13  15
ENDBRANCH   7  11
BRANCH   1  21
ATOM     19  C   UNL     1      -9.037  -2.305  19.560  0.00  0.00    +0.423 C 
ATOM     20  O   UNL     1      -8.234  -1.350  19.381  0.00  0.00    -0.224 OA
ATOM     21  N   UNL     1      -8.601  -3.588  19.992  0.00  0.00    -0.133 N 
BRANCH  21  22
ATOM     22  N   UNL     1      -7.251  -3.869  20.185  0.00  0.00    -0.215 N 
ATOM     23  C   UNL     1      -6.611  -3.441  21.368  0.00  0.00    +0.317 C 
ATOM     24  O   UNL     1      -7.269  -2.815  22.226  0.00  0.00    -0.264 OA
ATOM     25  H   UNL     1      -6.746  -4.364  19.500  0.00  0.00    +0.174 HD
ENDBRANCH  21  22
BRANCH  19  26
ATOM     26  O   UNL     1     -10.374  -2.095  19.327  0.00  0.00    -0.465 OA
ATOM     27  H   UNL     1     -10.987  -2.792  19.454  0.00  0.00    +0.297 HD
ENDBRANCH  19  26
ENDBRANCH   1  21
BRANCH   4  28
ATOM     28  N   UNL     1     -12.073  -7.937  20.751  0.00  0.00    -0.188 N 
ATOM     29  H   UNL     1     -11.840  -8.588  20.050  0.00  0.00    +0.176 HD
BRANCH  28  30
ATOM     30  S   UNL     1     -13.314  -8.500  21.702  0.00  0.00    +0.108 S 
ATOM     31  O   UNL     1     -14.619  -7.751  21.591  0.00  0.00    -0.138 OA
ATOM     32  O   UNL     1     -13.012  -8.709  23.162  0.00  0.00    -0.138 OA
BRANCH  30  33
ATOM     33  N   UNL     1     -13.752 -10.134  21.126  0.00  0.00    -0.191 NA
ATOM     34  H   UNL     1     -12.930 -10.737  21.158  0.00  0.00    +0.146 HD
ATOM     35  H   UNL     1     -14.094 -10.076  20.167  0.00  0.00    +0.146 HD
ENDBRANCH  30  33
ENDBRANCH  28  30
ENDBRANCH   4  28
TORSDOF 8
