REMARK  Name = =
REMARK  9 active torsions:
REMARK  status: ('A' for Active; 'I' for Inactive)
REMARK    1  A    between atoms: C_1  and  O_31
REMARK    2  A    between atoms: N_3  and  C_4
REMARK    3  A    between atoms: N_3  and  N_21
REMARK    4  A    between atoms: C_7  and  N_8
REMARK    5  A    between atoms: N_8  and  S_24
REMARK    6  A    between atoms: C_11  and  C_15
REMARK    7  A    between atoms: N_17  and  S_18
REMARK    8  A    between atoms: S_24  and  N_27
REMARK    9  A    between atoms: N_27  and  N_28
REMARK                            x       y       z     vdW  Elec       q    Type
REMARK                         _______ _______ _______ _____ _____    ______ ____
ROOT
ATOM      1  C   UNL     1     -11.168  -4.293  20.488  0.00  0.00    +0.178 A 
ATOM      2  N   UNL     1     -11.027  -5.043  21.593  0.00  0.00    -0.130 NA
ATOM      3  N   UNL     1     -11.230  -4.587  22.787  0.00  0.00    -0.130 NA
ATOM      4  C   UNL     1     -11.611  -3.292  23.095  0.00  0.00    +0.170 A 
ATOM      5  C   UNL     1     -11.763  -2.495  22.000  0.00  0.00    +0.038 A 
ATOM      6  C   UNL     1     -12.126  -1.178  22.114  0.00  0.00    +0.008 C 
ATOM      7  C   UNL     1     -12.277  -0.364  21.025  0.00  0.00    +0.055 C 
ATOM      8  C   UNL     1     -12.070  -0.829  19.745  0.00  0.00    +0.005 C 
ATOM      9  C   UNL     1     -11.701  -2.163  19.630  0.00  0.00    +0.003 C 
ATOM     10  C   UNL     1     -11.545  -2.990  20.710  0.00  0.00    +0.038 A 
ENDROOT
BRANCH   7  11
ATOM     11  C   UNL     1     -12.673   1.011  21.244  0.00  0.00    +0.264 C 
ATOM     12  O   UNL     1     -13.908   1.280  21.215  0.00  0.00    -0.269 OA
ATOM     13  N   UNL     1     -11.742   2.045  21.490  0.00  0.00    -0.188 N 
ATOM     14  H   UNL     1     -10.777   1.849  21.516  0.00  0.00    +0.176 HD
BRANCH  13  15
ATOM     15  S   UNL     1     -12.312   3.655  21.745  0.00  0.00    +0.035 S 
ATOM     16  O   UNL     1     -12.913   3.708  23.139  0.00  0.00    -0.158 OA
ATOM     17  O   UNL     1     -11.102   4.555  21.655  0.00  0.00    -0.158 OA
ATOM     18  H   UNL     1     -13.250   4.040  20.839  0.00  0.00    +0.233 HD
ENDBRANCH  13  15
ENDBRANCH   7  11
BRANCH   1  21
ATOM     19  C   UNL     1      -9.901  -4.420  18.318  0.00  0.00    +0.423 C 
ATOM     20  O   UNL     1      -9.807  -4.944  17.171  0.00  0.00    -0.224 OA
ATOM     21  N   UNL     1     -10.943  -4.829  19.184  0.00  0.00    -0.133 N 
BRANCH  21  22
ATOM     22  N   UNL     1     -11.793  -5.833  18.728  0.00  0.00    -0.215 N 
ATOM     23  C   UNL     1     -12.952  -5.543  18.003  0.00  0.00    +0.317 C 
ATOM     24  O   UNL     1     -13.258  -4.333  17.739  0.00  0.00    -0.264 OA
ATOM     25  H   UNL     1     -11.572  -6.773  18.922  0.00  0.00    +0.174 HD
ENDBRANCH  21  22
BRANCH  19  26
ATOM     26  O   UNL     1      -8.956  -3.458  18.665  0.00  0.00    -0.465 OA
ATOM     27  H   UNL     1      -8.993  -3.047  19.506  0.00  0.00    +0.297 HD
ENDBRANCH  19  26
ENDBRANCH   1  21
BRANCH   4  28
ATOM     28  N   UNL     1     -11.794  -2.952  24.430  0.00  0.00    -0.184 N 
ATOM     29  H   UNL     1     -11.596  -3.717  25.017  0.00  0.00    +0.177 HD
BRANCH  28  30
ATOM     30  S   UNL     1     -12.255  -1.614  25.328  0.00  0.00    +0.143 S 
ATOM     31  O   UNL     1     -11.231  -0.552  25.526  0.00  0.00    -0.134 OA
ATOM     32  O   UNL     1     -13.591  -1.083  24.843  0.00  0.00    -0.134 OA
BRANCH  30  33
ATOM     33  N   UNL     1     -12.593  -2.190  26.978  0.00  0.00    -0.074 N 
ATOM     34  H   UNL     1     -11.991  -1.987  27.730  0.00  0.00    +0.203 HD
BRANCH  33  35
ATOM     35  N   UNL     1     -13.755  -2.944  27.153  0.00  0.00    +0.139 N 
ATOM     36  O   UNL     1     -13.992  -3.969  26.265  0.00  0.00    -0.108 OA
ATOM     37  O   UNL     1     -14.541  -2.684  28.093  0.00  0.00    -0.108 OA
ENDBRANCH  33  35
ENDBRANCH  30  33
ENDBRANCH  28  30
ENDBRANCH   4  28
TORSDOF 9
