REMARK  Name = =
REMARK  14 active torsions:
REMARK  status: ('A' for Active; 'I' for Inactive)
REMARK    1  A    between atoms: C_1  and  O_31
REMARK    2  A    between atoms: N_3  and  C_4
REMARK    3  A    between atoms: N_3  and  N_21
REMARK    4  A    between atoms: C_7  and  N_8
REMARK    5  A    between atoms: N_8  and  S_24
REMARK    6  A    between atoms: C_11  and  C_15
REMARK    7  A    between atoms: N_17  and  S_18
REMARK    8  A    between atoms: S_24  and  N_27
REMARK    9  A    between atoms: N_27  and  N_28
REMARK   10  A    between atoms: O_31  and  P_32
REMARK   11  A    between atoms: P_32  and  O_33
REMARK   12  A    between atoms: P_32  and  S_34
REMARK   13  A    between atoms: P_32  and  O_35
REMARK   14  A    between atoms: P_32  and  O_36
REMARK                            x       y       z     vdW  Elec       q    Type
REMARK                         _______ _______ _______ _____ _____    ______ ____
ROOT
ATOM      1  C   UNL     1      -9.410  -3.427  23.016  0.00  0.00    +0.178 A 
ATOM      2  N   UNL     1      -8.356  -3.156  22.229  0.00  0.00    -0.130 NA
ATOM      3  N   UNL     1      -8.019  -1.903  21.940  0.00  0.00    -0.130 NA
ATOM      4  C   UNL     1      -8.705  -0.833  22.414  0.00  0.00    +0.170 A 
ATOM      5  C   UNL     1      -9.779  -1.050  23.215  0.00  0.00    +0.038 A 
ATOM      6  C   UNL     1     -10.533  -0.016  23.741  0.00  0.00    +0.008 C 
ATOM      7  C   UNL     1     -11.621  -0.259  24.555  0.00  0.00    +0.055 C 
ATOM      8  C   UNL     1     -11.933  -1.582  24.825  0.00  0.00    +0.005 C 
ATOM      9  C   UNL     1     -11.215  -2.634  24.325  0.00  0.00    +0.003 C 
ATOM     10  C   UNL     1     -10.132  -2.381  23.516  0.00  0.00    +0.038 A 
ENDROOT
BRANCH   7  11
ATOM     11  C   UNL     1     -12.408   0.819  25.115  0.00  0.00    +0.264 C 
ATOM     12  O   UNL     1     -12.435   0.969  26.357  0.00  0.00    -0.269 OA
ATOM     13  N   UNL     1     -13.133   1.691  24.291  0.00  0.00    -0.188 N 
ATOM     14  H   UNL     1     -13.127   1.593  23.311  0.00  0.00    +0.176 HD
BRANCH  13  15
ATOM     15  S   UNL     1     -14.044   2.955  25.069  0.00  0.00    +0.035 S 
ATOM     16  O   UNL     1     -13.112   4.038  25.474  0.00  0.00    -0.158 OA
ATOM     17  O   UNL     1     -15.063   3.438  24.078  0.00  0.00    -0.158 OA
ATOM     18  H   UNL     1     -14.678   2.518  26.190  0.00  0.00    +0.233 HD
ENDBRANCH  13  15
ENDBRANCH   7  11
BRANCH   1  21
ATOM     19  C   UNL     1     -10.772  -5.485  22.674  0.00  0.00    +0.432 C 
ATOM     20  O   UNL     1     -11.495  -4.988  21.799  0.00  0.00    -0.224 OA
ATOM     21  N   UNL     1      -9.725  -4.774  23.312  0.00  0.00    -0.132 N 
BRANCH  21  22
ATOM     22  N   UNL     1      -8.915  -5.399  24.288  0.00  0.00    -0.215 N 
ATOM     23  C   UNL     1      -7.939  -6.311  23.877  0.00  0.00    +0.317 C 
ATOM     24  O   UNL     1      -7.743  -6.612  22.684  0.00  0.00    -0.264 OA
ATOM     25  H   UNL     1      -9.037  -5.195  25.243  0.00  0.00    +0.174 HD
ENDBRANCH  21  22
BRANCH  19  26
ATOM     26  O   UNL     1     -10.991  -6.790  23.043  0.00  0.00    -0.367 OA
BRANCH  26  27
ATOM     27  P   UNL     1     -11.633  -8.057  22.198  0.00  0.00    +0.370 P 
BRANCH  27  28
ATOM     28  O   UNL     1     -12.633  -8.595  23.224  0.00  0.00    -0.306 OA
ATOM     29  H   UNL     1     -12.319  -8.392  24.119  0.00  0.00    +0.222 HD
ENDBRANCH  27  28
BRANCH  27  30
ATOM     30  S   UNL     1     -13.639  -7.762  21.849  0.00  0.00    -0.044 S 
ATOM     31  H   UNL     1     -14.310  -7.764  23.032  0.00  0.00    +0.115 HD
ENDBRANCH  27  30
BRANCH  27  32
ATOM     32  O   UNL     1     -10.093  -8.670  22.106  0.00  0.00    -0.306 OA
ATOM     33  H   UNL     1      -9.783  -8.901  22.996  0.00  0.00    +0.222 HD
ENDBRANCH  27  32
BRANCH  27  34
ATOM     34  O   UNL     1     -11.379  -7.960  20.510  0.00  0.00    -0.306 OA
ATOM     35  H   UNL     1     -12.168  -7.590  20.085  0.00  0.00    +0.222 HD
ENDBRANCH  27  34
ENDBRANCH  26  27
ENDBRANCH  19  26
ENDBRANCH   1  21
BRANCH   4  36
ATOM     36  N   UNL     1      -8.292   0.482  22.069  0.00  0.00    -0.184 N 
ATOM     37  H   UNL     1      -8.790   1.259  22.412  0.00  0.00    +0.177 HD
BRANCH  36  38
ATOM     38  S   UNL     1      -6.903   0.726  21.038  0.00  0.00    +0.143 S 
ATOM     39  O   UNL     1      -6.582   2.193  20.954  0.00  0.00    -0.134 OA
ATOM     40  O   UNL     1      -7.179   0.198  19.670  0.00  0.00    -0.134 OA
BRANCH  38  41
ATOM     41  N   UNL     1      -5.543  -0.137  21.652  0.00  0.00    -0.074 N 
ATOM     42  H   UNL     1      -5.231  -0.946  21.185  0.00  0.00    +0.203 HD
BRANCH  41  43
ATOM     43  N   UNL     1      -4.877   0.293  22.800  0.00  0.00    +0.139 N 
ATOM     44  O   UNL     1      -3.548   0.036  23.025  0.00  0.00    -0.108 OA
ATOM     45  O   UNL     1      -5.475   0.941  23.684  0.00  0.00    -0.108 OA
ENDBRANCH  41  43
ENDBRANCH  38  41
ENDBRANCH  36  38
ENDBRANCH   4  36
TORSDOF 14
