REMARK  Name = =
REMARK  8 active torsions:
REMARK  status: ('A' for Active; 'I' for Inactive)
REMARK    1  A    between atoms: C_4  and  O_39
REMARK    2  A    between atoms: C_6  and  O_38
REMARK    3  A    between atoms: C_7  and  C_12
REMARK    4  A    between atoms: C_10  and  C_29
REMARK    5  A    between atoms: C_11  and  C_22
REMARK    6  A    between atoms: C_25  and  O_28
REMARK    7  A    between atoms: C_32  and  O_35
REMARK    8  A    between atoms: O_35  and  C_36
REMARK                            x       y       z     vdW  Elec       q    Type
REMARK                         _______ _______ _______ _____ _____    ______ ____
ROOT
ATOM      1  O   UNL     1     -15.184 -43.011  28.580  0.00  0.00    -0.453 OA
ATOM      2  C   UNL     1     -15.034 -42.773  27.278  0.00  0.00    +0.150 A 
ATOM      3  C   UNL     1     -13.820 -42.820  26.661  0.00  0.00    +0.107 A 
ATOM      4  C   UNL     1     -13.617 -42.570  25.316  0.00  0.00    +0.143 C 
ATOM      5  C   UNL     1     -14.779 -42.246  24.582  0.00  0.00    +0.073 C 
ATOM      6  C   UNL     1     -16.020 -42.187  25.166  0.00  0.00    +0.136 C 
ATOM      7  C   UNL     1     -16.178 -42.438  26.485  0.00  0.00    +0.046 C 
ATOM      8  C   UNL     1     -12.741 -43.132  27.487  0.00  0.00    +0.204 A 
ATOM      9  O   UNL     1     -11.593 -43.199  27.013  0.00  0.00    -0.286 OA
ATOM     10  C   UNL     1     -12.909 -43.374  28.852  0.00  0.00    +0.074 A 
ATOM     11  C   UNL     1     -14.166 -43.308  29.375  0.00  0.00    +0.148 A 
ENDROOT
BRANCH   7  12
ATOM     12  C   UNL     1     -17.424 -42.508  27.206  0.00  0.00    +0.028 C 
ATOM     13  C   UNL     1     -18.717 -42.463  26.375  0.00  0.00    +0.004 C 
ATOM     14  C   UNL     1     -19.743 -43.145  27.231  0.00  0.00    +0.000 C 
ATOM     15  C   UNL     1     -19.347 -43.244  28.683  0.00  0.00    +0.000 C 
ATOM     16  C   UNL     1     -18.686 -42.013  29.193  0.00  0.00    +0.000 C 
ATOM     17  C   UNL     1     -17.676 -41.394  28.211  0.00  0.00    +0.005 C 
ATOM     18  C   UNL     1     -21.151 -42.826  27.119  0.00  0.00    +0.000 C 
ATOM     19  C   UNL     1     -21.463 -41.633  26.266  0.00  0.00    +0.000 C 
ATOM     20  C   UNL     1     -20.397 -40.576  26.591  0.00  0.00    +0.000 C 
ATOM     21  C   UNL     1     -19.139 -41.107  25.931  0.00  0.00    +0.000 C 
ENDBRANCH   7  12
BRANCH  11  22
ATOM     22  C   UNL     1     -14.366 -43.561  30.802  0.00  0.00    +0.035 C 
ATOM     23  C   UNL     1     -14.136 -44.833  31.336  0.00  0.00    +0.006 C 
ATOM     24  C   UNL     1     -14.287 -45.143  32.649  0.00  0.00    +0.037 C 
ATOM     25  C   UNL     1     -14.692 -44.175  33.544  0.00  0.00    +0.134 C 
ATOM     26  C   UNL     1     -14.931 -42.901  33.045  0.00  0.00    +0.037 C 
ATOM     27  C   UNL     1     -14.769 -42.600  31.691  0.00  0.00    +0.006 C 
BRANCH  25  28
ATOM     28  O   UNL     1     -14.841 -44.521  34.872  0.00  0.00    -0.506 OA
ATOM     29  H   UNL     1     -14.665 -45.398  35.150  0.00  0.00    +0.292 HD
ENDBRANCH  25  28
ENDBRANCH  11  22
BRANCH  10  30
ATOM     30  C   UNL     1     -11.708 -43.602  29.641  0.00  0.00    +0.006 C 
ATOM     31  C   UNL     1     -11.112 -44.799  29.888  0.00  0.00    +0.003 C 
ATOM     32  C   UNL     1      -9.925 -44.903  30.640  0.00  0.00    +0.038 C 
ATOM     33  C   UNL     1      -9.316 -43.783  31.161  0.00  0.00    +0.149 C 
ATOM     34  C   UNL     1      -9.914 -42.569  30.918  0.00  0.00    +0.038 C 
ATOM     35  C   UNL     1     -11.072 -42.464  30.184  0.00  0.00    +0.003 C 
BRANCH  33  36
ATOM     36  O   UNL     1      -8.126 -43.840  31.914  0.00  0.00    -0.417 OA
BRANCH  36  37
ATOM     37  C   UNL     1      -6.928 -43.530  31.291  0.00  0.00    +0.423 C 
ATOM     38  O   UNL     1      -6.946 -43.228  30.055  0.00  0.00    -0.237 OA
ENDBRANCH  36  37
ENDBRANCH  33  36
ENDBRANCH  10  30
BRANCH   6  39
ATOM     39  O   UNL     1     -17.108 -41.855  24.310  0.00  0.00    -0.506 OA
ATOM     40  H   UNL     1     -16.955 -41.688  23.401  0.00  0.00    +0.292 HD
ENDBRANCH   6  39
BRANCH   4  41
ATOM     41  O   UNL     1     -12.411 -42.620  24.704  0.00  0.00    -0.505 OA
ATOM     42  H   UNL     1     -11.644 -42.836  25.197  0.00  0.00    +0.292 HD
ENDBRANCH   4  41
TORSDOF 8
