REMARK  Name = =
REMARK  0 active torsions:
REMARK  status: ('A' for Active; 'I' for Inactive)
REMARK                            x       y       z     vdW  Elec       q    Type
REMARK                         _______ _______ _______ _____ _____    ______ ____
ROOT
ATOM      1  N   UNL     1     -13.147 -43.064  27.540  0.00  0.00    -0.274 NA
ATOM      2  C   UNL     1     -11.886 -42.694  27.988  0.00  0.00    +0.067 C 
ATOM      3  C   UNL     1     -10.949 -43.743  28.446  0.00  0.00    +0.047 C 
ATOM      4  C   UNL     1     -11.677 -45.012  28.875  0.00  0.00    +0.008 C 
ATOM      5  C   UNL     1     -12.443 -45.424  27.607  0.00  0.00    +0.027 C 
ATOM      6  C   UNL     1     -13.518 -44.403  27.436  0.00  0.00    +0.125 C 
ENDROOT
TORSDOF 0
