REMARK  Name = =
REMARK  4 active torsions:
REMARK  status: ('A' for Active; 'I' for Inactive)
REMARK    1  A    between atoms: C_3  and  O_13
REMARK    2  A    between atoms: C_6  and  C_10
REMARK    3  A    between atoms: C_7  and  O_9
REMARK    4  A    between atoms: C_10  and  O_12
REMARK                            x       y       z     vdW  Elec       q    Type
REMARK                         _______ _______ _______ _____ _____    ______ ____
ROOT
ATOM      1 CL   UNL     1     -13.260 -43.837  29.080  0.00  0.00    -0.076 Cl
ATOM      2  C   UNL     1     -11.643 -43.171  29.339  0.00  0.00    +0.126 C 
ATOM      3  C   UNL     1     -10.964 -42.645  28.261  0.00  0.00    +0.158 C 
ATOM      4  C   UNL     1      -9.705 -42.134  28.497  0.00  0.00    +0.093 C 
ATOM      5  C   UNL     1      -9.150 -42.151  29.761  0.00  0.00    +0.024 C 
ATOM      6  C   UNL     1      -9.825 -42.676  30.846  0.00  0.00    +0.111 C 
ATOM      7  C   UNL     1     -11.084 -43.185  30.602  0.00  0.00    +0.153 C 
ATOM      8 CL   UNL     1      -8.831 -41.464  27.145  0.00  0.00    -0.079 Cl
ENDROOT
BRANCH   7   9
ATOM      9  O   UNL     1     -11.756 -43.713  31.703  0.00  0.00    -0.504 OA
ATOM     10  H   UNL     1     -12.615 -44.073  31.599  0.00  0.00    +0.292 HD
ENDBRANCH   7   9
BRANCH   6  11
ATOM     11  C   UNL     1      -9.215 -42.679  32.164  0.00  0.00    +0.341 C 
ATOM     12  O   UNL     1      -8.182 -43.346  32.416  0.00  0.00    -0.245 OA
BRANCH  11  13
ATOM     13  O   UNL     1      -9.750 -41.939  33.206  0.00  0.00    -0.477 OA
ATOM     14  H   UNL     1     -10.521 -41.425  33.068  0.00  0.00    +0.295 HD
ENDBRANCH  11  13
ENDBRANCH   6  11
BRANCH   3  15
ATOM     15  O   UNL     1     -11.570 -42.658  27.029  0.00  0.00    -0.504 OA
ATOM     16  H   UNL     1     -11.125 -42.305  26.284  0.00  0.00    +0.292 HD
ENDBRANCH   3  15
TORSDOF 4
