REMARK  Name = =
REMARK  5 active torsions:
REMARK  status: ('A' for Active; 'I' for Inactive)
REMARK    1  A    between atoms: C_3  and  O_13
REMARK    2  A    between atoms: C_6  and  C_10
REMARK    3  A    between atoms: C_7  and  O_9
REMARK    4  A    between atoms: C_10  and  O_12
REMARK    5  A    between atoms: O_13  and  N_14
REMARK                            x       y       z     vdW  Elec       q    Type
REMARK                         _______ _______ _______ _____ _____    ______ ____
ROOT
ATOM      1 CL   UNL     1     -11.761 -44.925  27.273  0.00  0.00    -0.076 Cl
ATOM      2  C   UNL     1     -13.035 -44.411  28.379  0.00  0.00    +0.129 C 
ATOM      3  C   UNL     1     -14.075 -43.619  27.934  0.00  0.00    +0.189 C 
ATOM      4  C   UNL     1     -15.041 -43.250  28.852  0.00  0.00    +0.095 C 
ATOM      5  C   UNL     1     -14.965 -43.661  30.164  0.00  0.00    +0.024 C 
ATOM      6  C   UNL     1     -13.922 -44.457  30.614  0.00  0.00    +0.111 C 
ATOM      7  C   UNL     1     -12.955 -44.819  29.670  0.00  0.00    +0.153 C 
ATOM      8 CL   UNL     1     -16.377 -42.247  28.333  0.00  0.00    -0.079 Cl
ENDROOT
BRANCH   7   9
ATOM      9  O   UNL     1     -11.906 -45.613  30.102  0.00  0.00    -0.504 OA
ATOM     10  H   UNL     1     -11.239 -45.876  29.499  0.00  0.00    +0.292 HD
ENDBRANCH   7   9
BRANCH   6  11
ATOM     11  C   UNL     1     -13.827 -44.899  31.994  0.00  0.00    +0.341 C 
ATOM     12  O   UNL     1     -14.586 -44.374  32.841  0.00  0.00    -0.245 OA
BRANCH  11  13
ATOM     13  O   UNL     1     -12.938 -45.858  32.363  0.00  0.00    -0.477 OA
ATOM     14  H   UNL     1     -12.374 -46.245  31.723  0.00  0.00    +0.295 HD
ENDBRANCH  11  13
ENDBRANCH   6  11
BRANCH   3  15
ATOM     15  O   UNL     1     -14.113 -43.226  26.600  0.00  0.00    -0.400 OA
BRANCH  15  16
ATOM     16  N   UNL     1     -15.135 -42.427  26.215  0.00  0.00    -0.121 NA
ATOM     17  C   UNL     1     -14.725 -41.148  25.716  0.00  0.00    +0.113 C 
ATOM     18  C   UNL     1     -14.218 -41.157  24.319  0.00  0.00    +0.021 C 
ATOM     19  C   UNL     1     -14.903 -42.087  23.391  0.00  0.00    +0.003 C 
ATOM     20  C   UNL     1     -15.485 -43.304  24.007  0.00  0.00    +0.021 C 
ATOM     21  C   UNL     1     -16.091 -43.093  25.363  0.00  0.00    +0.113 C 
ENDBRANCH  15  16
ENDBRANCH   3  15
TORSDOF 5
