REMARK  Name = =
REMARK  7 active torsions:
REMARK  status: ('A' for Active; 'I' for Inactive)
REMARK    1  A    between atoms: C_1  and  O_17
REMARK    2  A    between atoms: C_2  and  O_16
REMARK    3  A    between atoms: C_4  and  C_7
REMARK    4  A    between atoms: C_7  and  C_9
REMARK    5  A    between atoms: O_17  and  N_18
REMARK    6  A    between atoms: C_19  and  C_25
REMARK    7  A    between atoms: C_19  and  C_27
REMARK                            x       y       z     vdW  Elec       q    Type
REMARK                         _______ _______ _______ _____ _____    ______ ____
ROOT
ATOM      1  C   UNL     1     -10.755  -6.541  22.617  0.00  0.00    +0.199 C 
ATOM      2  C   UNL     1     -11.540  -5.494  23.009  0.00  0.00    +0.170 C 
ATOM      3  C   UNL     1     -12.871  -5.678  23.364  0.00  0.00    +0.038 C 
ATOM      4  C   UNL     1     -13.453  -6.900  23.336  0.00  0.00    +0.011 C 
ATOM      5  C   UNL     1     -12.654  -7.961  22.936  0.00  0.00    +0.002 C 
ATOM      6  C   UNL     1     -11.324  -7.793  22.580  0.00  0.00    +0.042 C 
ENDROOT
BRANCH   4   7
ATOM      7  C   UNL     1     -14.815  -7.132  23.691  0.00  0.00    +0.174 C 
ATOM      8  O   UNL     1     -15.265  -8.312  23.326  0.00  0.00    -0.218 OA
BRANCH   7   9
ATOM      9  C   UNL     1     -15.798  -6.320  24.373  0.00  0.00    +0.035 C 
ATOM     10  C   UNL     1     -15.534  -5.886  25.770  0.00  0.00    +0.003 C 
ATOM     11  C   UNL     1     -16.469  -4.659  25.868  0.00  0.00    +0.000 C 
ATOM     12  C   UNL     1     -16.005  -3.963  24.574  0.00  0.00    +0.000 C 
ATOM     13  C   UNL     1     -16.314  -5.115  23.615  0.00  0.00    +0.003 C 
ATOM     14  C   UNL     1     -17.847  -5.135  23.897  0.00  0.00    +0.000 C 
ATOM     15  C   UNL     1     -17.832  -5.139  25.418  0.00  0.00    +0.000 C 
ENDBRANCH   7   9
ENDBRANCH   4   7
BRANCH   2  16
ATOM     16  O   UNL     1     -10.940  -4.223  23.040  0.00  0.00    -0.503 OA
ATOM     17  H   UNL     1     -10.041  -4.123  22.796  0.00  0.00    +0.292 HD
ENDBRANCH   2  16
BRANCH   1  18
ATOM     18  O   UNL     1      -9.407  -6.349  22.258  0.00  0.00    -0.398 OA
BRANCH  18  19
ATOM     19  N   UNL     1      -8.668  -7.428  21.949  0.00  0.00    -0.113 NA
ATOM     20  C   UNL     1      -8.119  -7.323  20.549  0.00  0.00    +0.151 C 
ATOM     21  C   UNL     1      -6.734  -7.165  20.693  0.00  0.00    +0.029 C 
ATOM     22  C   UNL     1      -5.346  -7.009  20.861  0.00  0.00    +0.002 C 
ATOM     23  C   UNL     1      -5.126  -7.096  22.416  0.00  0.00    +0.002 C 
ATOM     24  C   UNL     1      -6.463  -6.896  23.147  0.00  0.00    +0.021 C 
ATOM     25  C   UNL     1      -7.617  -7.708  22.910  0.00  0.00    +0.114 C 
BRANCH  20  26
ATOM     26  C   UNL     1      -8.857  -6.169  19.920  0.00  0.00    +0.085 C 
ATOM     27  N   UNL     1      -8.143  -5.262  19.366  0.00  0.00    -0.300 NA
ATOM     28  H   UNL     1      -8.575  -4.487  18.940  0.00  0.00    +0.186 HD
ENDBRANCH  20  26
BRANCH  20  29
ATOM     29  C   UNL     1      -8.651  -8.538  19.866  0.00  0.00    +0.085 C 
ATOM     30  N   UNL     1      -7.995  -9.044  18.903  0.00  0.00    -0.300 NA
ATOM     31  H   UNL     1      -8.335  -9.846  18.444  0.00  0.00    +0.186 HD
ENDBRANCH  20  29
ENDBRANCH  18  19
ENDBRANCH   1  18
TORSDOF 7
