REMARK  Name = =
REMARK  3 active torsions:
REMARK  status: ('A' for Active; 'I' for Inactive)
REMARK    1  A    between atoms: C_1  and  S_18
REMARK    2  A    between atoms: S_18  and  S_19
REMARK    3  A    between atoms: S_19  and  S_20
REMARK                            x       y       z     vdW  Elec       q    Type
REMARK                         _______ _______ _______ _____ _____    ______ ____
ROOT
ATOM      1  C   UNL     1       0.320  -4.260  28.729  0.00  0.00    +0.102 C 
ATOM      2  C   UNL     1      -0.838  -4.564  29.623  0.00  0.00    +0.015 C 
ATOM      3  C   UNL     1      -1.506  -3.327  30.115  0.00  0.00    +0.001 C 
ATOM      4  C   UNL     1      -3.004  -3.400  30.232  0.00  0.00    +0.000 C 
ATOM      5  C   UNL     1      -3.558  -4.746  29.853  0.00  0.00    +0.000 C 
ATOM      6  C   UNL     1      -3.357  -5.628  31.031  0.00  0.00    +0.000 C 
ATOM      7  C   UNL     1      -3.912  -5.281  32.164  0.00  0.00    +0.000 C 
ATOM      8  C   UNL     1      -4.402  -3.875  32.284  0.00  0.00    +0.000 C 
ATOM      9  C   UNL     1      -3.497  -2.927  31.575  0.00  0.00    +0.000 C 
ATOM     10  C   UNL     1      -2.630  -6.882  31.265  0.00  0.00    +0.000 C 
ATOM     11  C   UNL     1      -1.336  -6.904  30.435  0.00  0.00    +0.000 C 
ATOM     12  C   UNL     1      -0.566  -5.610  30.649  0.00  0.00    +0.001 C 
ATOM     13  C   UNL     1       0.892  -6.011  30.711  0.00  0.00    +0.003 C 
ATOM     14  C   UNL     1       1.405  -6.434  29.348  0.00  0.00    +0.031 C 
ATOM     15  C   UNL     1       1.040  -5.504  28.265  0.00  0.00    +0.130 C 
ATOM     16  O   UNL     1      -0.017  -5.760  27.439  0.00  0.00    -0.354 OA
ATOM     17  C   UNL     1      -0.123  -4.355  27.272  0.00  0.00    +0.153 C 
ENDROOT
BRANCH   1  18
ATOM     18  S   UNL     1       1.457  -3.001  29.166  0.00  0.00    -0.069 S 
BRANCH  18  19
ATOM     19  S   UNL     1       1.345  -1.210  28.091  0.00  0.00    -0.027 S 
BRANCH  19  20
ATOM     20  S   UNL     1       2.165  -1.381  26.138  0.00  0.00    -0.099 S 
ATOM     21  H   UNL     1       2.061  -0.186  25.496  0.00  0.00    +0.115 HD
ENDBRANCH  19  20
ENDBRANCH  18  19
ENDBRANCH   1  18
TORSDOF 3
