REMARK  Name = =
REMARK  6 active torsions:
REMARK  status: ('A' for Active; 'I' for Inactive)
REMARK    1  A    between atoms: C_1  and  S_27
REMARK    2  A    between atoms: C_22  and  N_23
REMARK    3  A    between atoms: N_23  and  C_24
REMARK    4  A    between atoms: C_24  and  N_26
REMARK    5  A    between atoms: S_27  and  S_28
REMARK    6  A    between atoms: S_28  and  S_29
REMARK                            x       y       z     vdW  Elec       q    Type
REMARK                         _______ _______ _______ _____ _____    ______ ____
ROOT
ATOM      1  C   UNL     1      -0.659  -3.677  28.094  0.00  0.00    +0.129 C 
ATOM      2  C   UNL     1      -1.827  -4.519  28.466  0.00  0.00    +0.058 C 
ATOM      3  C   UNL     1      -2.449  -4.242  29.796  0.00  0.00    +0.043 C 
ATOM      4  C   UNL     1      -1.045  -3.926  29.527  0.00  0.00    +0.149 C 
ATOM      5  O   UNL     1      -0.078  -4.484  30.306  0.00  0.00    -0.462 OA
ATOM      6  C   UNL     1       0.060  -5.553  31.100  0.00  0.00    +0.295 C 
ATOM      7  N   UNL     1       0.304  -6.711  30.642  0.00  0.00    -0.138 NA
ATOM      8  N   UNL     1       0.482  -7.187  29.382  0.00  0.00    -0.207 N 
ATOM      9  C   UNL     1      -2.586  -5.366  30.724  0.00  0.00    +0.008 C 
ATOM     10  C   UNL     1      -3.380  -6.554  30.238  0.00  0.00    +0.005 C 
ATOM     11  C   UNL     1      -2.734  -7.698  30.936  0.00  0.00    +0.022 C 
ATOM     12  C   UNL     1      -2.683  -7.590  32.254  0.00  0.00    -0.031 C 
ATOM     13  C   UNL     1      -2.810  -6.309  32.988  0.00  0.00    -0.031 C 
ATOM     14  C   UNL     1      -2.960  -5.097  32.129  0.00  0.00    +0.026 C 
ATOM     15  C   UNL     1      -2.171  -8.881  30.271  0.00  0.00    +0.006 C 
ATOM     16  C   UNL     1      -1.509  -8.557  28.947  0.00  0.00    +0.022 C 
ATOM     17  C   UNL     1      -0.001  -8.530  29.040  0.00  0.00    +0.094 C 
ATOM     18  C   UNL     1       0.697  -8.903  27.781  0.00  0.00    +0.026 C 
ATOM     19  C   UNL     1       1.532  -7.717  27.375  0.00  0.00    +0.054 C 
ATOM     20  C   UNL     1       1.108  -6.569  28.263  0.00  0.00    +0.209 C 
ATOM     21  O   UNL     1       0.314  -5.732  27.516  0.00  0.00    -0.319 OA
ATOM     22  C   UNL     1       0.604  -4.390  27.706  0.00  0.00    +0.205 C 
ENDROOT
BRANCH  22  23
ATOM     23  N   UNL     1       1.336  -3.790  26.627  0.00  0.00    -0.294 N 
ATOM     24  H   UNL     1       0.905  -3.759  25.742  0.00  0.00    +0.151 HD
BRANCH  23  25
ATOM     25  C   UNL     1       2.637  -3.239  26.747  0.00  0.00    +0.130 C 
ATOM     26  S   UNL     1       3.278  -2.337  25.555  0.00  0.00    -0.019 S 
BRANCH  25  27
ATOM     27  N   UNL     1       3.407  -3.463  27.915  0.00  0.00    -0.341 N 
ATOM     28  H   UNL     1       3.040  -4.006  28.650  0.00  0.00    +0.144 HD
ATOM     29  H   UNL     1       4.309  -3.076  27.992  0.00  0.00    +0.144 HD
ENDBRANCH  25  27
ENDBRANCH  23  25
ENDBRANCH  22  23
BRANCH   1  30
ATOM     30  S   UNL     1      -0.885  -1.977  27.567  0.00  0.00    -0.066 S 
BRANCH  30  31
ATOM     31  S   UNL     1      -0.715  -1.832  25.461  0.00  0.00    -0.027 S 
BRANCH  31  32
ATOM     32  S   UNL     1      -2.640  -1.610  24.635  0.00  0.00    -0.099 S 
ATOM     33  H   UNL     1      -2.544  -1.516  23.282  0.00  0.00    +0.115 HD
ENDBRANCH  31  32
ENDBRANCH  30  31
ENDBRANCH   1  30
TORSDOF 6
