# Name:          seed_class_4_221_71/38664
# Creation time: Fri May 21 00:57:16 2010


@<TRIPOS>MOLECULE
seed_class_4_221_71/38664
   15    15     1     1     1
SMALL
USER_CHARGES


@<TRIPOS>ATOM
      1 H           1.3207    0.4880    0.6025 H.spc      1 <1>        0.000
      2 N          -0.0755    0.6335    0.1662 N.3        1 <1>        0.000
      3 C          -0.7297    1.6842    0.9593 C.3        1 <1>        0.000
      4 C          -2.1675    1.9123    0.4579 C.3        1 <1>        0.000
      5 C          -2.9036    0.6262    0.1678 C.2        1 <1>        0.000
      6 C          -2.2644   -0.5498    0.1043 C.2        1 <1>        0.000
      7 C          -0.7733   -0.6512    0.3197 C.3        1 <1>        0.000
      8 H          -4.3667    0.6655   -0.0522 H.spc      1 <1>        0.000
      9 H          -0.1654    2.6112    0.8576 H.spc      1 <1>        0.000
     10 H          -0.7613    1.3748    2.0040 H.spc      1 <1>        0.000
     11 H          -2.1085    2.4776   -0.4722 H.spc      1 <1>        0.000
     12 H          -2.7129    2.4368    1.2424 H.spc      1 <1>        0.000
     13 H          -2.8342   -1.4545   -0.1078 H.spc      1 <1>        0.000
     14 H          -0.3772   -1.3334   -0.4325 H.spc      1 <1>        0.000
     15 H          -0.6104   -0.9948    1.3412 H.spc      1 <1>        0.000
@<TRIPOS>BOND
     1    1    2 1  
     2    2    3 1  
     3    3    4 1  
     4    4    5 1  
     5    5    6 2  
     6    6    7 1  
     7    7    2 1  
     8    5    8 1  
     9    3    9 1  
    10    3   10 1  
    11    4   11 1  
    12    4   12 1  
    13    6   13 1  
    14    7   14 1  
    15    7   15 1  
