# Name:          seed_class_3_94_112/26467
# Creation time: Fri May 21 00:57:14 2010


@<TRIPOS>MOLECULE
seed_class_3_94_112/26467
    6     5     1     1     1
SMALL
USER_CHARGES


@<TRIPOS>ATOM
      1 H           4.2171   -0.1323    2.9059 H.spc      1 <1>        0.000
      2 C           3.5977    1.0474    2.7644 C.2        1 <1>        0.000
      3 C           2.1330    1.0941    2.5571 C.2        1 <1>        0.000
      4 H           1.6204    1.8280    1.5600 H.spc      1 <1>        0.000
      5 H           4.1726    1.9727    2.8020 H.spc      1 <1>        0.000
      6 H           1.4712    0.5315    3.2156 H.spc      1 <1>        0.000
@<TRIPOS>BOND
     1    1    2 2  
     2    2    3 1  
     3    3    4 2  
     4    2    5 1  
     5    3    6 1  
