# Name:          seed_class_3_82_792/26467
# Creation time: Fri May 21 00:57:14 2010


@<TRIPOS>MOLECULE
seed_class_3_82_792/26467
    7     6     1     1     1
SMALL
USER_CHARGES


@<TRIPOS>ATOM
      1 S           5.8752   -3.5356   -2.6483 S.o2       1 <1>        0.000
      2 O           6.4813   -3.3204   -1.3711 O.2        1 <1>        0.000
      3 O           6.8514   -4.0483   -3.5588 O.2        1 <1>        0.000
      4 N           4.5669   -4.6866   -2.4866 N.am       1 <1>        0.000
      5 H           3.4606   -4.3882   -1.6565 H.spc      1 <1>        0.000
      6 H           5.2148   -1.9426   -3.2900 H.spc      1 <1>        0.000
      7 H           4.6019   -5.5726   -2.9908 H.spc      1 <1>        0.000
@<TRIPOS>BOND
     1    1    2 2  
     2    1    3 2  
     3    1    4 1  
     4    4    5 1  
     5    1    6 1  
     6    4    7 1  
