# Name:          seed_class_5_457_41/34898
# Creation time: Fri May 21 00:57:19 2010


@<TRIPOS>MOLECULE
seed_class_5_457_41/34898
   19    19     1     1     1
SMALL
USER_CHARGES


@<TRIPOS>ATOM
      1 O          -3.1933   -0.2193   -0.6284 O.3        1 <1>        0.000
      2 H          -4.3713   -0.9676   -0.9405 H.spc      1 <1>        0.000
      3 C          -2.0492   -0.9011   -0.4078 C.2        1 <1>        0.000
      4 O          -2.0547   -2.1211   -0.4171 O.2        1 <1>        0.000
      5 C          -0.7884   -0.1687   -0.1546 C.2        1 <1>        0.000
      6 C           0.3475   -0.8454    0.0631 C.2        1 <1>        0.000
      7 C           1.6084   -0.1130    0.3162 C.ar       1 <1>        0.000
      8 C           1.6263    0.9596    1.2158 C.ar       1 <1>        0.000
      9 C           2.8190    1.6525    1.4553 C.ar       1 <1>        0.000
     10 C           3.9938    1.2728    0.7953 C.ar       1 <1>        0.000
     11 C           3.9759    0.2002   -0.1043 C.ar       1 <1>        0.000
     12 C           2.7832   -0.4927   -0.3438 C.ar       1 <1>        0.000
     13 H          -0.7838    0.9212   -0.1452 H.spc      1 <1>        0.000
     14 H           0.3428   -1.9354    0.0538 H.spc      1 <1>        0.000
     15 H           0.7116    1.2552    1.7297 H.spc      1 <1>        0.000
     16 H           2.8329    2.4876    2.1556 H.spc      1 <1>        0.000
     17 H           4.9224    1.8122    0.9818 H.spc      1 <1>        0.000
     18 H           4.8906   -0.0954   -0.6182 H.spc      1 <1>        0.000
     19 H           2.7693   -1.3278   -1.0441 H.spc      1 <1>        0.000
@<TRIPOS>BOND
     1    1    2 1  
     2    1    3 1  
     3    3    4 2  
     4    3    5 1  
     5    5    6 2  
     6    6    7 1  
     7    7    8 ar 
     8    8    9 ar 
     9    9   10 ar 
    10   10   11 ar 
    11   11   12 ar 
    12   12    7 ar 
    13    5   13 1  
    14    6   14 1  
    15    8   15 1  
    16    9   16 1  
    17   10   17 1  
    18   11   18 1  
    19   12   19 1  
