# Name:          seed_class_4_321_26/38664
# Creation time: Fri May 21 00:57:17 2010


@<TRIPOS>MOLECULE
seed_class_4_321_26/38664
   30    32     1     1     1
SMALL
USER_CHARGES


@<TRIPOS>ATOM
      1 H           7.5972    2.5894    1.4640 H.spc      1 <1>        0.000
      2 C           6.5142    2.0325    0.7143 C.3        1 <1>        0.000
      3 C           5.2836    2.9490    0.8460 C.3        1 <1>        0.000
      4 O           4.1312    2.3862    0.2135 O.3        1 <1>        0.000
      5 C           3.7534    1.1505    0.8260 C.3        1 <1>        0.000
      6 O           3.4694    1.3725    2.2098 O.3        1 <1>        0.000
      7 C           2.1356    1.8845    2.2251 C.3        1 <1>        0.000
      8 C           1.4563    1.2372    1.0041 C.3        1 <1>        0.000
      9 O           2.5340    0.6642    0.2590 O.3        1 <1>        0.000
     10 C           0.1694    1.9880    0.6144 C.3        1 <1>        0.000
     11 C          -0.7152    2.2609    1.8451 C.3        1 <1>        0.000
     12 O           0.0113    2.9471    2.8680 O.3        1 <1>        0.000
     13 C           1.1104    2.1634    3.3399 C.3        1 <1>        0.000
     14 H           1.7914    2.8726    4.5069 H.spc      1 <1>        0.000
     15 H          -1.8603    3.0272    1.4624 H.spc      1 <1>        0.000
     16 H           0.7590   -0.0554    1.4185 H.spc      1 <1>        0.000
     17 C           4.8666    0.0946    0.6942 C.3        1 <1>        0.000
     18 C           6.2058    0.6199    1.2439 C.3        1 <1>        0.000
     19 H           7.2554   -0.2683    0.8512 H.spc      1 <1>        0.000
     20 H           5.5889    4.3186    0.2463 H.spc      1 <1>        0.000
     21 H           6.7817    1.9583   -0.3398 H.spc      1 <1>        0.000
     22 H           5.0608    3.0541    1.9078 H.spc      1 <1>        0.000
     23 H           2.4368    2.9229    2.3636 H.spc      1 <1>        0.000
     24 H          -0.3929    1.3711   -0.0866 H.spc      1 <1>        0.000
     25 H           0.4470    2.9431    0.1685 H.spc      1 <1>        0.000
     26 H          -1.0378    1.3007    2.2476 H.spc      1 <1>        0.000
     27 H           0.7144    1.2042    3.6734 H.spc      1 <1>        0.000
     28 H           4.9950   -0.1436   -0.3617 H.spc      1 <1>        0.000
     29 H           4.5783   -0.7863    1.2677 H.spc      1 <1>        0.000
     30 H           6.1338    0.6699    2.3304 H.spc      1 <1>        0.000
@<TRIPOS>BOND
     1    1    2 1  
     2    2    3 1  
     3    3    4 1  
     4    4    5 1  
     5    5    6 1  
     6    6    7 1  
     7    7    8 1  
     8    8    9 1  
     9    9    5 1  
    10    8   10 1  
    11   10   11 1  
    12   11   12 1  
    13   12   13 1  
    14   13    7 1  
    15   13   14 1  
    16   11   15 1  
    17    8   16 1  
    18    5   17 1  
    19   17   18 1  
    20   18    2 1  
    21   18   19 1  
    22    3   20 1  
    23    2   21 1  
    24    3   22 1  
    25    7   23 1  
    26   10   24 1  
    27   10   25 1  
    28   11   26 1  
    29   13   27 1  
    30   17   28 1  
    31   17   29 1  
    32   18   30 1  
