#	Name:			isoxazole
#	Creating user name:	becker
#	Creation time:		Thu Dec 19 02:54:55 2002

#	Modifying user name:	zmliu
#	Modification time:	Thu Mar 11 20:58:33 2004

@<TRIPOS>MOLECULE
isoxazole
    8     8     1     1     0
SMALL
GAST_HUCK


@<TRIPOS>ATOM
      1 O1         -0.5676    1.4251    0.0000 O.3       1 ISOXAZOLE   -0.1562 
      2 N1          0.8434    1.3150    0.0000 N.2       1 ISOXAZOLE   -0.1379 
      3 C1          1.0931    0.0634    0.0000 C.2       1 ISOXAZOLE    0.0667 
      4 C2         -0.1117   -0.7629    0.0000 C.2       1 ISOXAZOLE    0.0187 
      5 C3         -1.0397    0.1840    0.0000 C.2       1 ISOXAZOLE    0.2087 
      6 H1          2.1029   -0.3447    0.0000 H.spc     1 ISOXAZOLE   -1.0000 
      7 H2         -0.2131   -1.8476    0.0000 H.spc     1 ISOXAZOLE   -1.0000 
      8 H3         -2.1074   -0.0322    0.0000 H.spc     1 ISOXAZOLE   -1.0000 
@<TRIPOS>BOND
     1    1    2 1    
     2    1    5 1    
     3    2    3 2    
     4    3    4 1    
     5    4    5 2    
     6    3    6 1    
     7    4    7 1    
     8    5    8 1    
@<TRIPOS>SUBSTRUCTURE
     1 ISOXAZOLE     1 PERM              0 ****  ****    0 ROOT 
@<TRIPOS>NORMAL
@<TRIPOS>FF_PBC
FORCE_FIELD_SETUP_FEATURE Force Field Setup information
v1.0  0 0.000000 0.000000 0.000000 0.000000 0.000000 0.000000 NONE 2 0 0 0 0 0 0 0 0 0 0 0 0
