# Name:          seed_class_3_120_38/26467
# Creation time: Fri May 21 00:57:15 2010


@<TRIPOS>MOLECULE
seed_class_3_120_38/26467
    6     5     1     1     1
SMALL
USER_CHARGES


@<TRIPOS>ATOM
      1 H          -8.1406   -1.7716    4.5838 H.spc      1 <1>        0.000
      2 C          -9.0511   -1.5242    5.7628 C.2        1 <1>        0.000
      3 O          -8.6751   -1.8052    6.8998 O.2        1 <1>        0.000
      4 C         -10.3958   -0.9436    5.5504 C.2        1 <1>        0.000
      5 O         -10.7717   -0.6625    4.4135 O.2        1 <1>        0.000
      6 H         -11.3061   -0.6962    6.7295 H.spc      1 <1>        0.000
@<TRIPOS>BOND
     1    1    2 1  
     2    2    3 2  
     3    2    4 1  
     4    4    5 2  
     5    4    6 1  
