# Name:          seed_class_5_575_20/34898
# Creation time: Fri May 21 00:57:20 2010


@<TRIPOS>MOLECULE
seed_class_5_575_20/34898
   12    12     1     1     1
SMALL
USER_CHARGES


@<TRIPOS>ATOM
      1 H           1.4139    2.0832   -0.2537 H.spc      1 <1>        0.000
      2 N           2.0399    2.1973    1.0715 N.pl3      1 <1>        0.000
      3 C           1.6687    3.0557    2.0589 C.ar       1 <1>        0.000
      4 N           2.4582    2.8707    3.1004 N.ar       1 <1>        0.000
      5 C           3.3690    1.8590    2.7735 C.ar       1 <1>        0.000
      6 C           3.0913    1.4628    1.5239 C.ar       1 <1>        0.000
      7 C           3.8046    0.4093    0.7678 C.2        1 <1>        0.000
      8 O           4.8777    0.6560    0.2424 O.2        1 <1>        0.000
      9 O           3.2678   -0.8246    0.6594 O.3        1 <1>        0.000
     10 H           3.9729   -1.7977   -0.1157 H.spc      1 <1>        0.000
     11 H           4.4611    1.3154    3.6635 H.spc      1 <1>        0.000
     12 H           0.5399    4.0553    1.9772 H.spc      1 <1>        0.000
@<TRIPOS>BOND
     1    1    2 1  
     2    2    3 ar 
     3    3    4 ar 
     4    4    5 ar 
     5    5    6 ar 
     6    6    2 ar 
     7    6    7 1  
     8    7    8 2  
     9    7    9 1  
    10    9   10 1  
    11    5   11 1  
    12    3   12 1  
