# Name:          seed_class_3_148_21/26467
# Creation time: Fri May 21 00:57:15 2010


@<TRIPOS>MOLECULE
seed_class_3_148_21/26467
   10     9     1     1     1
SMALL
USER_CHARGES


@<TRIPOS>ATOM
      1 N           5.6711   -0.0112   -2.4462 N.1        1 <1>        0.000
      2 C           5.5774    1.0075   -1.8993 C.1        1 <1>        0.000
      3 C           5.4603    2.2808   -1.2157 C.2        1 <1>        0.000
      4 C           6.4859    3.1432   -1.2252 C.2        1 <1>        0.000
      5 H           7.7382    2.7959   -1.9334 H.spc      1 <1>        0.000
      6 C           4.2081    2.6280   -0.5074 C.2        1 <1>        0.000
      7 O           4.1017    3.7083    0.0495 O.2        1 <1>        0.000
      8 O           3.1836    1.7494   -0.4775 O.3        1 <1>        0.000
      9 H           1.9964    2.1261    0.2250 H.spc      1 <1>        0.000
     10 H           6.3978    4.1004   -0.7114 H.spc      1 <1>        0.000
@<TRIPOS>BOND
     1    1    2 3  
     2    2    3 1  
     3    3    4 2  
     4    4    5 1  
     5    3    6 1  
     6    6    7 2  
     7    6    8 1  
     8    8    9 1  
     9    4   10 1  
