# Name:          seed_class_2_38_166/95646
# Creation time: Fri May 21 00:57:13 2010


@<TRIPOS>MOLECULE
seed_class_2_38_166/95646
    8     7     1     1     1
SMALL
USER_CHARGES


@<TRIPOS>ATOM
      1 H          -1.8851   -0.1353   -0.1579 H.spc      1 <1>        0.000
      2 N          -3.2534    0.1631    0.0768 N.am       1 <1>        0.000
      3 C          -4.2236   -0.5710   -0.5310 C.2        1 <1>        0.000
      4 S          -3.7956   -1.8484   -1.5842 S.2        1 <1>        0.000
      5 N          -5.5341   -0.2892   -0.3012 N.am       1 <1>        0.000
      6 H          -3.5087    0.9281    0.7013 H.spc      1 <1>        0.000
      7 H          -6.2617   -0.8398   -0.7571 H.spc      1 <1>        0.000
      8 H          -5.7894    0.4728    0.3270 H.spc      1 <1>        0.000
@<TRIPOS>BOND
     1    1    2 1  
     2    2    3 am 
     3    3    4 2  
     4    3    5 am 
     5    2    6 1  
     6    5    7 1  
     7    5    8 1  
