# Name:          seed_class_5_507_27/34898
# Creation time: Fri May 21 00:57:19 2010


@<TRIPOS>MOLECULE
seed_class_5_507_27/34898
   29    31     1     1     1
SMALL
USER_CHARGES


@<TRIPOS>ATOM
      1 H          -1.2425   -0.4809    1.8508 H.spc      1 <1>        0.000
      2 C          -1.4925   -0.1309    0.4034 C.ar       1 <1>        0.000
      3 C          -0.6618    0.5423   -0.4043 C.ar       1 <1>        0.000
      4 N          -1.2073    0.6784   -1.6427 N.pl3      1 <1>        0.000
      5 C          -2.4789    0.0581   -1.6612 C.ar       1 <1>        0.000
      6 C          -2.6999   -0.4686   -0.3830 C.ar       1 <1>        0.000
      7 C          -3.8917   -1.1474   -0.1021 C.ar       1 <1>        0.000
      8 C          -4.8624   -1.2996   -1.0994 C.ar       1 <1>        0.000
      9 C          -4.6414   -0.7729   -2.3776 C.ar       1 <1>        0.000
     10 C          -3.4497   -0.0941   -2.6585 C.ar       1 <1>        0.000
     11 O          -6.0286   -1.9639   -0.8245 O.3        1 <1>        0.000
     12 H          -6.9910   -2.0933   -1.8742 H.spc      1 <1>        0.000
     13 C          -0.6362    1.2964   -2.6727 C.2        1 <1>        0.000
     14 O          -1.1707    1.2682   -3.7801 O.2        1 <1>        0.000
     15 C           0.6425    2.0180   -2.4863 C.ar       1 <1>        0.000
     16 C           0.6389    3.3436   -2.0360 C.ar       1 <1>        0.000
     17 C           1.8485    4.0262   -1.8597 C.ar       1 <1>        0.000
     18 C           3.0615    3.3832   -2.1336 C.ar       1 <1>        0.000
     19 C           3.0650    2.0576   -2.5839 C.ar       1 <1>        0.000
     20 C           1.8555    1.3750   -2.7602 C.ar       1 <1>        0.000
     21 Cl          4.5648    4.2316   -1.9145 Cl         1 <1>        0.000
     22 H           0.6908    1.0753    0.0035 H.spc      1 <1>        0.000
     23 H          -4.0638   -1.5574    0.8931 H.spc      1 <1>        0.000
     24 H          -5.3972   -0.8913   -3.1540 H.spc      1 <1>        0.000
     25 H          -3.2776    0.3159   -3.6537 H.spc      1 <1>        0.000
     26 H          -0.3056    3.8442   -1.8227 H.spc      1 <1>        0.000
     27 H           1.8458    5.0583   -1.5092 H.spc      1 <1>        0.000
     28 H           4.0094    1.5570   -2.7972 H.spc      1 <1>        0.000
     29 H           1.8582    0.3429   -3.1107 H.spc      1 <1>        0.000
@<TRIPOS>BOND
     1    1    2 1  
     2    2    3 ar 
     3    3    4 ar 
     4    4    5 ar 
     5    5    6 ar 
     6    6    2 ar 
     7    6    7 ar 
     8    7    8 ar 
     9    8    9 ar 
    10    9   10 ar 
    11   10    5 ar 
    12    8   11 1  
    13   11   12 1  
    14    4   13 am 
    15   13   14 2  
    16   13   15 1  
    17   15   16 ar 
    18   16   17 ar 
    19   17   18 ar 
    20   18   19 ar 
    21   19   20 ar 
    22   20   15 ar 
    23   18   21 1  
    24    3   22 1  
    25    7   23 1  
    26    9   24 1  
    27   10   25 1  
    28   16   26 1  
    29   17   27 1  
    30   19   28 1  
    31   20   29 1  
