# Name:          seed_class_3_89_205/26467
# Creation time: Fri May 21 00:57:14 2010


@<TRIPOS>MOLECULE
seed_class_3_89_205/26467
   10     9     1     1     1
SMALL
USER_CHARGES


@<TRIPOS>ATOM
      1 N           2.7570    0.8834    0.0405 N.am       1 <1>        0.000
      2 H           3.6858    1.8507   -0.1863 H.spc      1 <1>        0.000
      3 C           1.7130    1.1349    0.8252 C.2        1 <1>        0.000
      4 O           1.6735    2.1741    1.4819 O.2        1 <1>        0.000
      5 C           0.5989    0.1642    0.9082 C.2        1 <1>        0.000
      6 C          -0.4560    0.4206    1.6938 C.2        1 <1>        0.000
      7 H          -1.5701   -0.5501    1.7768 H.spc      1 <1>        0.000
      8 H           2.8611   -0.0349   -0.3912 H.spc      1 <1>        0.000
      9 H           0.6364   -0.7592    0.3303 H.spc      1 <1>        0.000
     10 H          -0.4935    1.3440    2.2717 H.spc      1 <1>        0.000
@<TRIPOS>BOND
     1    1    2 1  
     2    1    3 am 
     3    3    4 2  
     4    3    5 1  
     5    5    6 2  
     6    6    7 1  
     7    1    8 1  
     8    5    9 1  
     9    6   10 1  
