# Name:          seed_class_2_60_54/95646
# Creation time: Fri May 21 00:57:14 2010


@<TRIPOS>MOLECULE
seed_class_2_60_54/95646
   22    24     1     1     1
SMALL
USER_CHARGES


@<TRIPOS>ATOM
      1 N           0.9978    0.5584    0.7207 N.pl3      1 <1>        0.000
      2 C           0.8643   -0.4030   -0.3089 C.ar       1 <1>        0.000
      3 C           2.1059   -0.5604   -0.9363 C.ar       1 <1>        0.000
      4 C           3.0538    0.3516   -0.2580 C.ar       1 <1>        0.000
      5 C           2.3371    1.0144    0.7455 C.ar       1 <1>        0.000
      6 C           2.9804    1.9516    1.5627 C.ar       1 <1>        0.000
      7 C           4.3405    2.2260    1.3764 C.ar       1 <1>        0.000
      8 C           5.0573    1.5633    0.3729 C.ar       1 <1>        0.000
      9 C           4.4140    0.6261   -0.4443 C.ar       1 <1>        0.000
     10 C           2.2444   -1.4623   -1.9980 C.ar       1 <1>        0.000
     11 C           1.1413   -2.2070   -2.4323 C.ar       1 <1>        0.000
     12 C          -0.1003   -2.0497   -1.8049 C.ar       1 <1>        0.000
     13 C          -0.2388   -1.1477   -0.7432 C.ar       1 <1>        0.000
     14 H          -1.5780   -0.9780   -0.0665 H.spc      1 <1>        0.000
     15 H          -1.2901   -2.8528   -2.2733 H.spc      1 <1>        0.000
     16 H           1.2768   -3.0897   -3.4713 H.spc      1 <1>        0.000
     17 H           3.4993   -1.6213   -2.6322 H.spc      1 <1>        0.000
     18 H           0.2519    0.8710    1.3423 H.spc      1 <1>        0.000
     19 H           2.4223    2.4676    2.3440 H.spc      1 <1>        0.000
     20 H           4.8414    2.9556    2.0127 H.spc      1 <1>        0.000
     21 H           6.1163    1.7770    0.2278 H.spc      1 <1>        0.000
     22 H           4.9721    0.1101   -1.2256 H.spc      1 <1>        0.000
@<TRIPOS>BOND
     1    1    2 ar 
     2    2    3 ar 
     3    3    4 ar 
     4    4    5 ar 
     5    5    1 ar 
     6    5    6 ar 
     7    6    7 ar 
     8    7    8 ar 
     9    8    9 ar 
    10    9    4 ar 
    11    3   10 ar 
    12   10   11 ar 
    13   11   12 ar 
    14   12   13 ar 
    15   13    2 ar 
    16   13   14 1  
    17   12   15 1  
    18   11   16 1  
    19   10   17 1  
    20    1   18 1  
    21    6   19 1  
    22    7   20 1  
    23    8   21 1  
    24    9   22 1  
