# Name:          seed_class_5_522_25/34898
# Creation time: Fri May 21 00:57:20 2010


@<TRIPOS>MOLECULE
seed_class_5_522_25/34898
   18    19     1     1     1
SMALL
USER_CHARGES


@<TRIPOS>ATOM
      1 H          -3.2113   -0.6165   -0.0874 H.spc      1 <1>        0.000
      2 C          -4.6024   -0.1466    0.2651 C.ar       1 <1>        0.000
      3 C          -4.8569    0.4524    1.5046 C.ar       1 <1>        0.000
      4 C          -6.1586    0.8762    1.7979 C.ar       1 <1>        0.000
      5 N          -7.1474    0.7125    0.9085 N.ar       1 <1>        0.000
      6 C          -6.9344    0.1429   -0.2855 C.ar       1 <1>        0.000
      7 C          -5.6565   -0.3035   -0.6428 C.ar       1 <1>        0.000
      8 C          -6.4378    1.4779    3.0308 C.ar       1 <1>        0.000
      9 C          -5.4152    1.6557    3.9704 C.ar       1 <1>        0.000
     10 C          -4.1136    1.2320    3.6771 C.ar       1 <1>        0.000
     11 C          -3.8344    0.6303    2.4442 C.ar       1 <1>        0.000
     12 O          -3.1130    1.4060    4.5965 O.3        1 <1>        0.000
     13 H          -3.4489    2.0111    5.8479 H.spc      1 <1>        0.000
     14 H          -7.7628    0.0262   -0.9843 H.spc      1 <1>        0.000
     15 H          -5.4846   -0.7668   -1.6144 H.spc      1 <1>        0.000
     16 H          -7.4512    1.8079    3.2592 H.spc      1 <1>        0.000
     17 H          -5.6325    2.1241    4.9303 H.spc      1 <1>        0.000
     18 H          -2.8209    0.3003    2.2159 H.spc      1 <1>        0.000
@<TRIPOS>BOND
     1    1    2 1  
     2    2    3 ar 
     3    3    4 ar 
     4    4    5 ar 
     5    5    6 ar 
     6    6    7 ar 
     7    7    2 ar 
     8    4    8 ar 
     9    8    9 ar 
    10    9   10 ar 
    11   10   11 ar 
    12   11    3 ar 
    13   10   12 1  
    14   12   13 1  
    15    6   14 1  
    16    7   15 1  
    17    8   16 1  
    18    9   17 1  
    19   11   18 1  
