# Name:          seed_class_5_447_44/34898
# Creation time: Fri May 21 00:57:19 2010


@<TRIPOS>MOLECULE
seed_class_5_447_44/34898
   18    19     1     1     1
SMALL
USER_CHARGES


@<TRIPOS>ATOM
      1 O           2.2897    0.1473   -2.7587 O.3        1 <1>        0.000
      2 C           3.0347    1.1064   -2.0763 C.ar       1 <1>        0.000
      3 C           2.8079    1.3590   -0.7181 C.ar       1 <1>        0.000
      4 C           3.5670    2.3269   -0.0498 C.ar       1 <1>        0.000
      5 C           4.5530    3.0424   -0.7397 C.ar       1 <1>        0.000
      6 C           4.7798    2.7898   -2.0979 C.ar       1 <1>        0.000
      7 C           4.0207    1.8218   -2.7662 C.ar       1 <1>        0.000
      8 C           1.7592    0.5878   -0.0138 C.2        1 <1>        0.000
      9 C           1.0430   -0.3346   -0.6708 C.2        1 <1>        0.000
     10 C           1.3001   -0.5848   -2.1067 C.2        1 <1>        0.000
     11 O           0.6527   -1.4228   -2.7124 O.2        1 <1>        0.000
     12 H          -0.0258   -1.1186    0.0526 H.spc      1 <1>        0.000
     13 O           1.5198    0.8180    1.3153 O.3        1 <1>        0.000
     14 H           3.3904    2.5235    1.0077 H.spc      1 <1>        0.000
     15 H           5.1440    3.7961   -0.2194 H.spc      1 <1>        0.000
     16 H           5.5474    3.3468   -2.6351 H.spc      1 <1>        0.000
     17 H           4.1973    1.6251   -3.8237 H.spc      1 <1>        0.000
     18 H           2.1130    1.5030    1.6322 H.spc      1 <1>        0.000
@<TRIPOS>BOND
     1    1    2 1  
     2    2    3 ar 
     3    3    4 ar 
     4    4    5 ar 
     5    5    6 ar 
     6    6    7 ar 
     7    7    2 ar 
     8    3    8 1  
     9    8    9 2  
    10    9   10 1  
    11   10    1 1  
    12   10   11 2  
    13    9   12 1  
    14    8   13 1  
    15    4   14 1  
    16    5   15 1  
    17    6   16 1  
    18    7   17 1  
    19   13   18 1  
