# Name:          seed_class_4_229_64/38664
# Creation time: Fri May 21 00:57:16 2010


@<TRIPOS>MOLECULE
seed_class_4_229_64/38664
   12    12     1     1     1
SMALL
USER_CHARGES


@<TRIPOS>ATOM
      1 H           3.5425    0.9777   -0.1718 H.spc      1 <1>        0.000
      2 C           2.9031    0.3011    1.0171 C.3        1 <1>        0.000
      3 C           3.4852    0.7175    2.3807 C.3        1 <1>        0.000
      4 C           2.0674    1.0716    2.8664 C.3        1 <1>        0.000
      5 C           1.5405    0.8870    1.4312 C.3        1 <1>        0.000
      6 H           0.3805   -0.0717    1.3065 H.spc      1 <1>        0.000
      7 H           1.4837    0.0968    3.8881 H.spc      1 <1>        0.000
      8 H           4.4517    1.8997    2.3249 H.spc      1 <1>        0.000
      9 H           2.9814   -0.7301    0.6727 H.spc      1 <1>        0.000
     10 H           4.1103    0.0295    2.9499 H.spc      1 <1>        0.000
     11 H           1.8830    1.9985    3.4095 H.spc      1 <1>        0.000
     12 H           1.1100    1.7273    0.8865 H.spc      1 <1>        0.000
@<TRIPOS>BOND
     1    2    1 1  
     2    2    3 1  
     3    3    4 1  
     4    4    5 1  
     5    5    2 1  
     6    5    6 1  
     7    4    7 1  
     8    3    8 1  
     9    2    9 1  
    10    3   10 1  
    11    4   11 1  
    12    5   12 1  
