# Name:          seed_class_5_520_25/34898
# Creation time: Fri May 21 00:57:20 2010


@<TRIPOS>MOLECULE
seed_class_5_520_25/34898
   30    32     1     1     1
SMALL
USER_CHARGES


@<TRIPOS>ATOM
      1 O           1.0481   -0.3427   -1.5541 O.3        1 <1>        0.000
      2 C           2.4371   -0.2788   -1.5945 C.ar       1 <1>        0.000
      3 C           3.1298    0.5672   -0.7201 C.ar       1 <1>        0.000
      4 C           4.5277    0.6275   -0.7652 C.ar       1 <1>        0.000
      5 C           5.2330   -0.1581   -1.6846 C.ar       1 <1>        0.000
      6 C           4.5403   -1.0041   -2.5590 C.ar       1 <1>        0.000
      7 C           3.1423   -1.0644   -2.5139 C.ar       1 <1>        0.000
      8 O           5.2305   -1.7729   -3.4587 O.3        1 <1>        0.000
      9 O           5.2056    1.4554    0.0904 O.3        1 <1>        0.000
     10 C           2.3713    1.3921    0.2467 C.2        1 <1>        0.000
     11 C           0.8974    1.2604    0.2194 C.2        1 <1>        0.000
     12 C           0.3153    0.4252   -0.6519 C.2        1 <1>        0.000
     13 C          -1.1605    0.3146   -0.6560 C.ar       1 <1>        0.000
     14 C          -1.9491    1.4646   -0.5309 C.ar       1 <1>        0.000
     15 C          -3.3451    1.3599   -0.5347 C.ar       1 <1>        0.000
     16 C          -3.9527    0.1052   -0.6636 C.ar       1 <1>        0.000
     17 C          -3.1641   -1.0448   -0.7887 C.ar       1 <1>        0.000
     18 C          -1.7681   -0.9401   -0.7849 C.ar       1 <1>        0.000
     19 O          -5.3188    0.0028   -0.6674 O.3        1 <1>        0.000
     20 H          -6.0826    1.2059   -0.5487 H.spc      1 <1>        0.000
     21 O           2.9375    2.1492    1.0335 O.2        1 <1>        0.000
     22 H           6.3214   -0.1111   -1.7197 H.spc      1 <1>        0.000
     23 H           2.6030   -1.7230   -3.1946 H.spc      1 <1>        0.000
     24 H           6.1718   -1.6134   -3.3584 H.spc      1 <1>        0.000
     25 H           4.5780    1.9189    0.6497 H.spc      1 <1>        0.000
     26 H           0.2854    1.8428    0.9081 H.spc      1 <1>        0.000
     27 H          -1.4761    2.4415   -0.4305 H.spc      1 <1>        0.000
     28 H          -3.9590    2.2553   -0.4373 H.spc      1 <1>        0.000
     29 H          -3.6371   -2.0217   -0.8891 H.spc      1 <1>        0.000
     30 H          -1.1542   -1.8355   -0.8823 H.spc      1 <1>        0.000
@<TRIPOS>BOND
     1    1    2 1  
     2    2    3 ar 
     3    3    4 ar 
     4    4    5 ar 
     5    5    6 ar 
     6    6    7 ar 
     7    7    2 ar 
     8    6    8 1  
     9    4    9 1  
    10    3   10 1  
    11   10   11 1  
    12   11   12 2  
    13   12    1 1  
    14   12   13 1  
    15   13   14 ar 
    16   14   15 ar 
    17   15   16 ar 
    18   16   17 ar 
    19   17   18 ar 
    20   18   13 ar 
    21   16   19 1  
    22   19   20 1  
    23   10   21 2  
    24    5   22 1  
    25    7   23 1  
    26    8   24 1  
    27    9   25 1  
    28   11   26 1  
    29   14   27 1  
    30   15   28 1  
    31   17   29 1  
    32   18   30 1  
