# Name:          seed_class_4_237_56/38664
# Creation time: Fri May 21 00:57:16 2010


@<TRIPOS>MOLECULE
seed_class_4_237_56/38664
   11    11     1     1     1
SMALL
USER_CHARGES


@<TRIPOS>ATOM
      1 H           0.3838   -0.2248   -0.0286 H.spc      1 <1>        0.000
      2 C          -0.8977    0.3679    0.4150 C.2        1 <1>        0.000
      3 N          -1.0037    1.6751    0.5643 N.2        1 <1>        0.000
      4 N          -2.2457    2.2821    0.9971 N.am       1 <1>        0.000
      5 C          -3.3017    1.5143    1.2504 C.2        1 <1>        0.000
      6 C          -3.2145    0.0453    1.0924 C.2        1 <1>        0.000
      7 C          -2.0604   -0.5051    0.6914 C.2        1 <1>        0.000
      8 O          -4.3571    2.0281    1.6181 O.2        1 <1>        0.000
      9 H          -2.3101    3.2941    1.1071 H.spc      1 <1>        0.000
     10 H          -4.0807   -0.5828    1.3002 H.spc      1 <1>        0.000
     11 H          -1.9787   -1.5852    0.5700 H.spc      1 <1>        0.000
@<TRIPOS>BOND
     1    1    2 1  
     2    2    3 2  
     3    3    4 1  
     4    4    5 am 
     5    5    6 1  
     6    6    7 2  
     7    7    2 1  
     8    5    8 2  
     9    4    9 1  
    10    6   10 1  
    11    7   11 1  
