# Name:          seed_class_5_569_20/34898
# Creation time: Fri May 21 00:57:20 2010


@<TRIPOS>MOLECULE
seed_class_5_569_20/34898
   31    33     1     1     1
SMALL
USER_CHARGES


@<TRIPOS>ATOM
      1 N           2.0972    0.3341    0.2047 N.am       1 <1>        0.000
      2 N           1.9442   -0.1509   -1.0890 N.am       1 <1>        0.000
      3 C           0.6664   -0.3811   -1.3770 C.2        1 <1>        0.000
      4 C          -0.1335   -0.0139   -0.1501 C.3        1 <1>        0.000
      5 C           0.9254    0.4440    0.8241 C.2        1 <1>        0.000
      6 O           0.7395    0.8430    1.9727 O.2        1 <1>        0.000
      7 H          -1.1569    1.0829   -0.4408 H.spc      1 <1>        0.000
      8 H          -0.9326   -1.1998    0.3885 H.spc      1 <1>        0.000
      9 O           0.2212   -0.8110   -2.4400 O.2        1 <1>        0.000
     10 C           3.0147   -0.3722   -1.9875 C.ar       1 <1>        0.000
     11 C           3.4630    0.6669   -2.8117 C.ar       1 <1>        0.000
     12 C           4.5222    0.4480   -3.7007 C.ar       1 <1>        0.000
     13 C           5.1330   -0.8100   -3.7654 C.ar       1 <1>        0.000
     14 C           4.6848   -1.8491   -2.9412 C.ar       1 <1>        0.000
     15 C           3.6256   -1.6302   -2.0522 C.ar       1 <1>        0.000
     16 C           3.3419    0.6685    0.7886 C.ar       1 <1>        0.000
     17 C           4.0900   -0.3117    1.4516 C.ar       1 <1>        0.000
     18 C           5.3215    0.0191    2.0294 C.ar       1 <1>        0.000
     19 C           5.8051    1.3302    1.9441 C.ar       1 <1>        0.000
     20 C           5.0570    2.3104    1.2810 C.ar       1 <1>        0.000
     21 C           3.8255    1.9796    0.7033 C.ar       1 <1>        0.000
     22 H           2.9874    1.6464   -2.7613 H.spc      1 <1>        0.000
     23 H           4.8712    1.2570   -4.3424 H.spc      1 <1>        0.000
     24 H           5.9576   -0.9805   -4.4575 H.spc      1 <1>        0.000
     25 H           5.1605   -2.8285   -2.9916 H.spc      1 <1>        0.000
     26 H           3.2766   -2.4392   -1.4105 H.spc      1 <1>        0.000
     27 H           3.7136   -1.3325    1.5179 H.spc      1 <1>        0.000
     28 H           5.9038   -0.7441    2.5457 H.spc      1 <1>        0.000
     29 H           6.7640    1.5878    2.3939 H.spc      1 <1>        0.000
     30 H           5.4335    3.3312    1.2146 H.spc      1 <1>        0.000
     31 H           3.2431    2.7428    0.1871 H.spc      1 <1>        0.000
@<TRIPOS>BOND
     1    1    2 1  
     2    2    3 am 
     3    3    4 1  
     4    4    5 1  
     5    5    1 am 
     6    5    6 2  
     7    4    7 1  
     8    4    8 1  
     9    3    9 2  
    10    2   10 1  
    11   10   11 ar 
    12   11   12 ar 
    13   12   13 ar 
    14   13   14 ar 
    15   14   15 ar 
    16   15   10 ar 
    17    1   16 1  
    18   16   17 ar 
    19   17   18 ar 
    20   18   19 ar 
    21   19   20 ar 
    22   20   21 ar 
    23   21   16 ar 
    24   11   22 1  
    25   12   23 1  
    26   13   24 1  
    27   14   25 1  
    28   15   26 1  
    29   17   27 1  
    30   18   28 1  
    31   19   29 1  
    32   20   30 1  
    33   21   31 1  
