# Name:          seed_class_4_357_21/38664
# Creation time: Fri May 21 00:57:18 2010


@<TRIPOS>MOLECULE
seed_class_4_357_21/38664
   19    20     1     1     1
SMALL
USER_CHARGES


@<TRIPOS>ATOM
      1 N          -3.8457   -3.4535   -0.4416 N.2        1 <1>        0.000
      2 C          -2.5465   -3.3017   -0.6191 C.2        1 <1>        0.000
      3 C          -1.7334   -2.6358    0.4230 C.ar       1 <1>        0.000
      4 C          -2.1974   -2.6254    1.7439 C.ar       1 <1>        0.000
      5 C          -1.4106   -2.0659    2.7578 C.ar       1 <1>        0.000
      6 C          -0.1599   -1.5168    2.4508 C.ar       1 <1>        0.000
      7 C           0.3041   -1.5273    1.1300 C.ar       1 <1>        0.000
      8 C          -0.4827   -2.0868    0.1161 C.ar       1 <1>        0.000
      9 H          -0.0287   -2.0970   -1.1765 H.spc      1 <1>        0.000
     10 H           1.6263   -0.9468    0.8055 H.spc      1 <1>        0.000
     11 H           0.6100   -0.9693    3.4430 H.spc      1 <1>        0.000
     12 C          -3.5844   -3.1546    2.0200 C.3        1 <1>        0.000
     13 C          -4.4872   -2.9638    0.7871 C.3        1 <1>        0.000
     14 H          -5.8171   -3.6810    1.0005 H.spc      1 <1>        0.000
     15 H          -1.8914   -3.8061   -1.8825 H.spc      1 <1>        0.000
     16 H          -1.7718   -2.0578    3.7862 H.spc      1 <1>        0.000
     17 H          -4.0118   -2.6084    2.8609 H.spc      1 <1>        0.000
     18 H          -3.5192   -4.2178    2.2511 H.spc      1 <1>        0.000
     19 H          -4.6615   -1.8946    0.6664 H.spc      1 <1>        0.000
@<TRIPOS>BOND
     1    1    2 2  
     2    2    3 1  
     3    3    4 ar 
     4    4    5 ar 
     5    5    6 ar 
     6    6    7 ar 
     7    7    8 ar 
     8    8    3 ar 
     9    8    9 1  
    10    7   10 1  
    11    6   11 1  
    12    4   12 1  
    13   12   13 1  
    14   13    1 1  
    15   13   14 1  
    16    2   15 1  
    17    5   16 1  
    18   12   17 1  
    19   12   18 1  
    20   13   19 1  
