#	Name:			Iodine
#	Creating user name:	arthur
#	Creation time:		Fri Jan  1 17:23:44 1999

#	Modifying user name:	arthur
#	Modification time:	Fri Jan  1 17:26:33 1999

@<TRIPOS>MOLECULE
Iodine
    2     1     1     1     0
SMALL
USER_CHARGES


@<TRIPOS>ATOM
      1 H1         -3.7419    0.7938   -1.1352 H.spc     1 <1>         0.0000 
      2 I2         -3.0606    1.5354   -1.0919 I         1 <1>         0.0000 
@<TRIPOS>BOND
     1    2    1 1    
@<TRIPOS>SUBSTRUCTURE
     1 ****        2 TEMP              0 ****  ****    0 ROOT 
@<TRIPOS>NORMAL
@<TRIPOS>FF_PBC
FORCE_FIELD_SETUP_FEATURE Force Field Setup information
v1.0  0 0.000000 0.000000 0.000000 0.000000 0.000000 0.000000 NONE 0 0 0 0 0 0 0 0 0 0 0 0 0
