# Name:          seed_class_4_349_22/38664
# Creation time: Fri May 21 00:57:17 2010


@<TRIPOS>MOLECULE
seed_class_4_349_22/38664
   20    21     1     1     1
SMALL
USER_CHARGES


@<TRIPOS>ATOM
      1 H           1.1904   -1.2257   -1.9408 H.spc      1 <1>        0.000
      2 C           2.5636   -0.8123   -1.7263 C.ar       1 <1>        0.000
      3 C           2.8378    0.3719   -1.0316 C.ar       1 <1>        0.000
      4 C           4.1636    0.7710   -0.8245 C.ar       1 <1>        0.000
      5 C           5.2152   -0.0141   -1.3120 C.ar       1 <1>        0.000
      6 C           4.9411   -1.1982   -2.0067 C.ar       1 <1>        0.000
      7 C           3.6153   -1.5973   -2.2138 C.ar       1 <1>        0.000
      8 C           6.6314    0.4750   -1.1237 C.3        1 <1>        0.000
      9 C           6.6762    2.0143   -1.1153 C.3        1 <1>        0.000
     10 C           5.6545    2.5948   -0.1670 C.2        1 <1>        0.000
     11 C           4.4652    1.9902   -0.0416 C.2        1 <1>        0.000
     12 H           3.4502    2.5435    0.8826 H.spc      1 <1>        0.000
     13 H           7.5227   -0.0667   -2.2376 H.spc      1 <1>        0.000
     14 H           7.2022   -0.0705    0.1822 H.spc      1 <1>        0.000
     15 H           2.0190    0.9831   -0.6520 H.spc      1 <1>        0.000
     16 H           5.7599   -1.8094   -2.3863 H.spc      1 <1>        0.000
     17 H           3.4019   -2.5193   -2.7546 H.spc      1 <1>        0.000
     18 H           6.4542    2.3708   -2.1211 H.spc      1 <1>        0.000
     19 H           7.6674    2.3283   -0.7880 H.spc      1 <1>        0.000
     20 H           5.8812    3.4930    0.4074 H.spc      1 <1>        0.000
@<TRIPOS>BOND
     1    1    2 1  
     2    2    3 ar 
     3    3    4 ar 
     4    4    5 ar 
     5    5    6 ar 
     6    6    7 ar 
     7    7    2 ar 
     8    5    8 1  
     9    8    9 1  
    10    9   10 1  
    11   10   11 2  
    12   11    4 1  
    13   11   12 1  
    14    8   13 1  
    15    8   14 1  
    16    3   15 1  
    17    6   16 1  
    18    7   17 1  
    19    9   18 1  
    20    9   19 1  
    21   10   20 1  
