# Name:          seed_class_5_408_92/34898
# Creation time: Fri May 21 00:57:18 2010


@<TRIPOS>MOLECULE
seed_class_5_408_92/34898
   14    14     1     1     1
SMALL
USER_CHARGES


@<TRIPOS>ATOM
      1 H          -1.6596   -2.3778   -1.9756 H.spc      1 <1>        0.000
      2 O          -1.2957   -0.9970   -1.8986 O.3        1 <1>        0.000
      3 C          -1.7159   -0.1750   -2.8836 C.2        1 <1>        0.000
      4 O          -2.5710   -0.5507   -3.6684 O.2        1 <1>        0.000
      5 C          -1.1391    1.1820   -3.0113 C.ar       1 <1>        0.000
      6 C          -1.7955    2.1646   -3.7621 C.ar       1 <1>        0.000
      7 N          -1.2745    3.3937   -3.8788 N.ar       1 <1>        0.000
      8 C          -0.1187    3.7284   -3.2891 C.ar       1 <1>        0.000
      9 C           0.5892    2.7940   -2.5238 C.ar       1 <1>        0.000
     10 C           0.0707    1.5012   -2.3831 C.ar       1 <1>        0.000
     11 H          -2.7380    1.9279   -4.2558 H.spc      1 <1>        0.000
     12 H           0.2742    4.7383   -3.4065 H.spc      1 <1>        0.000
     13 H           1.5291    3.0687   -2.0451 H.spc      1 <1>        0.000
     14 H           0.6012    0.7539   -1.7930 H.spc      1 <1>        0.000
@<TRIPOS>BOND
     1    1    2 1  
     2    2    3 1  
     3    3    4 2  
     4    3    5 1  
     5    5    6 ar 
     6    6    7 ar 
     7    7    8 ar 
     8    8    9 ar 
     9    9   10 ar 
    10   10    5 ar 
    11    6   11 1  
    12    8   12 1  
    13    9   13 1  
    14   10   14 1  
