# Name:          seed_class_2_37_235/95646
# Creation time: Fri May 21 00:57:13 2010


@<TRIPOS>MOLECULE
seed_class_2_37_235/95646
    4     3     1     1     1
SMALL
USER_CHARGES


@<TRIPOS>ATOM
      1 S           0.9556    0.9388   -0.4473 S.o        1 <1>        0.000
      2 O           2.2593    1.5459   -0.0387 O.2        1 <1>        0.000
      3 H           1.2639   -0.5216   -1.4623 H.spc      1 <1>        0.000
      4 H           0.0111    2.1319   -1.3899 H.spc      1 <1>        0.000
@<TRIPOS>BOND
     1    1    2 2  
     2    1    3 1  
     3    1    4 1  
