# Name:          seed_class_5_400_126/34898
# Creation time: Fri May 21 00:57:18 2010


@<TRIPOS>MOLECULE
seed_class_5_400_126/34898
   21    22     1     1     1
SMALL
USER_CHARGES


@<TRIPOS>ATOM
      1 O           0.2398    0.3468    1.6334 O.3        1 <1>        0.000
      2 C          -0.5358    1.3157    0.9232 C.3        1 <1>        0.000
      3 C          -0.0105    1.4636   -0.5169 C.3        1 <1>        0.000
      4 C           1.4614    1.8007   -0.5223 C.2        1 <1>        0.000
      5 C           2.2084    1.3234    0.6629 C.ar       1 <1>        0.000
      6 C           1.5814    0.6170    1.6963 C.ar       1 <1>        0.000
      7 C           2.3258    0.1836    2.8000 C.ar       1 <1>        0.000
      8 C           3.6971    0.4566    2.8703 C.ar       1 <1>        0.000
      9 C           4.3241    1.1630    1.8369 C.ar       1 <1>        0.000
     10 C           3.5798    1.5964    0.7332 C.ar       1 <1>        0.000
     11 O           4.1933    2.2876   -0.2781 O.3        1 <1>        0.000
     12 O           4.4255    0.0325    3.9503 O.3        1 <1>        0.000
     13 O           1.9969    2.4224   -1.4386 O.2        1 <1>        0.000
     14 H          -0.7337    2.5063   -1.1761 H.spc      1 <1>        0.000
     15 H          -1.9876    0.9011    0.9032 H.spc      1 <1>        0.000
     16 H          -0.4483    2.2766    1.4302 H.spc      1 <1>        0.000
     17 H          -0.1520    0.5164   -1.0373 H.spc      1 <1>        0.000
     18 H           1.8377   -0.3664    3.6046 H.spc      1 <1>        0.000
     19 H           5.3918    1.3755    1.8917 H.spc      1 <1>        0.000
     20 H           3.5460    2.5084   -0.9518 H.spc      1 <1>        0.000
     21 H           5.3412    0.2995    3.8420 H.spc      1 <1>        0.000
@<TRIPOS>BOND
     1    1    2 1  
     2    2    3 1  
     3    3    4 1  
     4    4    5 1  
     5    5    6 ar 
     6    6    1 1  
     7    6    7 ar 
     8    7    8 ar 
     9    8    9 ar 
    10    9   10 ar 
    11   10    5 ar 
    12   10   11 1  
    13    8   12 1  
    14    4   13 2  
    15    3   14 1  
    16    2   15 1  
    17    2   16 1  
    18    3   17 1  
    19    7   18 1  
    20    9   19 1  
    21   11   20 1  
    22   12   21 1  
