# Name:          seed_class_4_278_36/38664
# Creation time: Fri May 21 00:57:16 2010


@<TRIPOS>MOLECULE
seed_class_4_278_36/38664
   40    43     1     1     1
SMALL
USER_CHARGES


@<TRIPOS>ATOM
      1 H           1.2105   -0.5045   -1.9354 H.spc      1 <1>        0.000
      2 C           1.0436    0.3221   -3.1880 C.3        1 <1>        0.000
      3 C          -0.3561    0.0891   -3.7864 C.3        1 <1>        0.000
      4 C          -1.4523    0.7259   -2.9118 C.3        1 <1>        0.000
      5 C          -1.1955    2.2282   -2.6944 C.3        1 <1>        0.000
      6 C           0.2061    2.4567   -2.0976 C.3        1 <1>        0.000
      7 C           0.2884    3.9859   -2.2600 C.3        1 <1>        0.000
      8 C           1.6898    4.4848   -1.8615 C.3        1 <1>        0.000
      9 C           2.8191    3.7221   -2.5120 C.2        1 <1>        0.000
     10 C           4.0311    4.2870   -2.5987 C.2        1 <1>        0.000
     11 C           5.1337    3.5947   -3.3027 C.2        1 <1>        0.000
     12 C           4.6834    2.5890   -4.3350 C.3        1 <1>        0.000
     13 C           3.5937    1.6559   -3.7751 C.3        1 <1>        0.000
     14 C           2.4915    2.3779   -3.0376 C.2        1 <1>        0.000
     15 C           1.3038    1.7775   -2.8811 C.2        1 <1>        0.000
     16 O           6.3195    3.8202   -3.0662 O.2        1 <1>        0.000
     17 C          -2.4925    2.7494   -2.0480 C.3        1 <1>        0.000
     18 C          -3.6018    1.7372   -2.3896 C.3        1 <1>        0.000
     19 C          -2.9544    0.6248   -3.2351 C.3        1 <1>        0.000
     20 H          -3.4816   -0.6638   -2.9085 H.spc      1 <1>        0.000
     21 H          -3.2230    0.8142   -4.7089 H.spc      1 <1>        0.000
     22 H          -1.2836   -0.0282   -1.5959 H.spc      1 <1>        0.000
     23 H           1.7722    0.0135   -3.9377 H.spc      1 <1>        0.000
     24 H          -0.5358   -0.9846   -3.8405 H.spc      1 <1>        0.000
     25 H          -0.3913    0.5472   -4.7748 H.spc      1 <1>        0.000
     26 H          -1.0657    2.8688   -3.5667 H.spc      1 <1>        0.000
     27 H           0.3352    2.0632   -1.0893 H.spc      1 <1>        0.000
     28 H          -0.4552    4.4549   -1.6157 H.spc      1 <1>        0.000
     29 H           0.0984    4.2461   -3.3013 H.spc      1 <1>        0.000
     30 H           1.7870    4.3513   -0.7841 H.spc      1 <1>        0.000
     31 H           1.7693    5.5219   -2.1873 H.spc      1 <1>        0.000
     32 H           4.2063    5.2636   -2.1474 H.spc      1 <1>        0.000
     33 H           5.5419    1.9830   -4.6244 H.spc      1 <1>        0.000
     34 H           4.2711    3.1295   -5.1871 H.spc      1 <1>        0.000
     35 H           4.0750    0.9850   -3.0636 H.spc      1 <1>        0.000
     36 H           3.1367    1.1452   -4.6227 H.spc      1 <1>        0.000
     37 H          -2.7427    3.7398   -2.4282 H.spc      1 <1>        0.000
     38 H          -2.3751    2.8443   -0.9685 H.spc      1 <1>        0.000
     39 H          -4.4075    2.2209   -2.9419 H.spc      1 <1>        0.000
     40 H          -4.0395    1.3245   -1.4807 H.spc      1 <1>        0.000
@<TRIPOS>BOND
     1    1    2 1  
     2    2    3 1  
     3    3    4 1  
     4    4    5 1  
     5    5    6 1  
     6    6    7 1  
     7    7    8 1  
     8    8    9 1  
     9    9   10 2  
    10   10   11 1  
    11   11   12 1  
    12   12   13 1  
    13   13   14 1  
    14   14    9 1  
    15   14   15 2  
    16   15    2 1  
    17   15    6 1  
    18   11   16 2  
    19    5   17 1  
    20   17   18 1  
    21   18   19 1  
    22   19    4 1  
    23   19   20 1  
    24   19   21 1  
    25    4   22 1  
    26    2   23 1  
    27    3   24 1  
    28    3   25 1  
    29    5   26 1  
    30    6   27 1  
    31    7   28 1  
    32    7   29 1  
    33    8   30 1  
    34    8   31 1  
    35   10   32 1  
    36   12   33 1  
    37   12   34 1  
    38   13   35 1  
    39   13   36 1  
    40   17   37 1  
    41   17   38 1  
    42   18   39 1  
    43   18   40 1  
