# Name:          seed_class_5_411_87/34898
# Creation time: Fri May 21 00:57:18 2010


@<TRIPOS>MOLECULE
seed_class_5_411_87/34898
   14    14     1     1     1
SMALL
USER_CHARGES


@<TRIPOS>ATOM
      1 O          -1.5890   -1.5320   -1.4442 O.2        1 <1>        0.000
      2 C          -1.4769   -0.6395   -0.6053 C.2        1 <1>        0.000
      3 H          -2.7104   -0.0030   -0.0106 H.spc      1 <1>        0.000
      4 C          -0.1331   -0.1894   -0.1786 C.ar       1 <1>        0.000
      5 C           1.0105   -0.7738   -0.7359 C.ar       1 <1>        0.000
      6 C           2.2817   -0.3480   -0.3323 C.ar       1 <1>        0.000
      7 C           2.4092    0.6621    0.6286 C.ar       1 <1>        0.000
      8 C           1.2656    1.2466    1.1858 C.ar       1 <1>        0.000
      9 C          -0.0056    0.8208    0.7822 C.ar       1 <1>        0.000
     10 H           0.9112   -1.5603   -1.4840 H.spc      1 <1>        0.000
     11 H           3.1721   -0.8030   -0.7662 H.spc      1 <1>        0.000
     12 H           3.3989    0.9935    0.9429 H.spc      1 <1>        0.000
     13 H           1.3649    2.0332    1.9338 H.spc      1 <1>        0.000
     14 H          -0.8960    1.2758    1.2160 H.spc      1 <1>        0.000
@<TRIPOS>BOND
     1    1    2 2  
     2    2    3 1  
     3    2    4 1  
     4    4    5 ar 
     5    5    6 ar 
     6    6    7 ar 
     7    7    8 ar 
     8    8    9 ar 
     9    9    4 ar 
    10    5   10 1  
    11    6   11 1  
    12    7   12 1  
    13    8   13 1  
    14    9   14 1  
