# Name:          seed_class_3_91_169/26467
# Creation time: Fri May 21 00:57:14 2010


@<TRIPOS>MOLECULE
seed_class_3_91_169/26467
   10     9     1     1     1
SMALL
USER_CHARGES


@<TRIPOS>ATOM
      1 H           2.4997    2.0059    0.3104 H.spc      1 <1>        0.000
      2 N           3.9168    1.9796   -0.0796 N.am       1 <1>        0.000
      3 C           4.7214    1.0360    0.4010 C.2        1 <1>        0.000
      4 O           4.2721    0.1639    1.1430 O.2        1 <1>        0.000
      5 C           6.1575    1.0353    0.0432 C.2        1 <1>        0.000
      6 N           6.6477    1.9936   -0.7209 N.2        1 <1>        0.000
      7 O           8.0062    1.9929   -1.0595 O.3        1 <1>        0.000
      8 H           7.0619   -0.0615    0.5522 H.spc      1 <1>        0.000
      9 H           4.2830    2.6851   -0.7188 H.spc      1 <1>        0.000
     10 H           8.1967    2.7520   -1.6154 H.spc      1 <1>        0.000
@<TRIPOS>BOND
     1    1    2 1  
     2    2    3 am 
     3    3    4 2  
     4    3    5 1  
     5    5    6 2  
     6    6    7 1  
     7    5    8 1  
     8    2    9 1  
     9    7   10 1  
