# Name:          seed_class_5_527_24/34898
# Creation time: Fri May 21 00:57:20 2010


@<TRIPOS>MOLECULE
seed_class_5_527_24/34898
   24    25     1     1     1
SMALL
USER_CHARGES


@<TRIPOS>ATOM
      1 N          -0.9962   -0.7154    0.0024 N.3        1 <1>        0.000
      2 C          -1.7068    0.5524   -0.2189 C.3        1 <1>        0.000
      3 C          -3.1728    0.2905   -0.6081 C.3        1 <1>        0.000
      4 N          -3.8609   -0.6083    0.3297 N.pl3      1 <1>        0.000
      5 C          -3.1157   -1.8276    0.6745 C.3        1 <1>        0.000
      6 C          -1.6499   -1.5274    1.0389 C.3        1 <1>        0.000
      7 C          -5.1414   -0.3220    0.8595 C.ar       1 <1>        0.000
      8 N          -6.2325   -0.7830    0.2330 N.ar       1 <1>        0.000
      9 C          -7.4590   -0.5290    0.7094 C.ar       1 <1>        0.000
     10 C          -7.6037    0.2283    1.8779 C.ar       1 <1>        0.000
     11 C          -6.4422    0.6936    2.5060 C.ar       1 <1>        0.000
     12 N          -5.2439    0.4059    1.9799 N.ar       1 <1>        0.000
     13 H           0.3910   -0.4365    0.4010 H.spc      1 <1>        0.000
     14 H          -1.2179    1.0949   -1.0281 H.spc      1 <1>        0.000
     15 H          -1.6844    1.1354    0.7018 H.spc      1 <1>        0.000
     16 H          -3.1774   -0.1846   -1.5891 H.spc      1 <1>        0.000
     17 H          -3.6961    1.2466   -0.5981 H.spc      1 <1>        0.000
     18 H          -3.1220   -2.4867   -0.1936 H.spc      1 <1>        0.000
     19 H          -3.5944   -2.2851    1.5404 H.spc      1 <1>        0.000
     20 H          -1.1143   -2.4726    1.1277 H.spc      1 <1>        0.000
     21 H          -1.6327   -0.9718    1.9765 H.spc      1 <1>        0.000
     22 H          -8.3386   -0.9097    0.1903 H.spc      1 <1>        0.000
     23 H          -8.5901    0.4488    2.2860 H.spc      1 <1>        0.000
     24 H          -6.5123    1.2866    3.4179 H.spc      1 <1>        0.000
@<TRIPOS>BOND
     1    1    2 1  
     2    2    3 1  
     3    3    4 1  
     4    4    5 1  
     5    5    6 1  
     6    6    1 1  
     7    4    7 1  
     8    7    8 ar 
     9    8    9 ar 
    10    9   10 ar 
    11   10   11 ar 
    12   11   12 ar 
    13   12    7 ar 
    14    1   13 1  
    15    2   14 1  
    16    2   15 1  
    17    3   16 1  
    18    3   17 1  
    19    5   18 1  
    20    5   19 1  
    21    6   20 1  
    22    6   21 1  
    23    9   22 1  
    24   10   23 1  
    25   11   24 1  
