# Name:          seed_class_4_325_25/38664
# Creation time: Fri May 21 00:57:17 2010


@<TRIPOS>MOLECULE
seed_class_4_325_25/38664
   43    46     1     1     1
SMALL
USER_CHARGES


@<TRIPOS>ATOM
      1 H          -4.8724    0.3547    0.4871 H.spc      1 <1>        0.000
      2 C          -3.5766   -0.1153    0.1063 C.3        1 <1>        0.000
      3 C          -3.0742   -1.1177    1.1620 C.3        1 <1>        0.000
      4 C          -1.5665   -1.3838    0.9961 C.3        1 <1>        0.000
      5 C          -0.7766   -0.0699    1.1419 C.3        1 <1>        0.000
      6 C           0.6402   -0.4213    0.6511 C.3        1 <1>        0.000
      7 C           1.2667   -1.5493    1.4919 C.3        1 <1>        0.000
      8 C           2.6951   -1.8774    1.0189 C.3        1 <1>        0.000
      9 C           3.5867   -0.6219    1.0072 C.3        1 <1>        0.000
     10 C           2.9602    0.5061    0.1665 C.3        1 <1>        0.000
     11 C           4.0795    1.5567    0.0439 C.3        1 <1>        0.000
     12 C           5.4102    0.8308    0.3153 C.3        1 <1>        0.000
     13 C           5.0708   -0.6448    0.5966 C.3        1 <1>        0.000
     14 H           5.9438   -1.2222    1.6850 H.spc      1 <1>        0.000
     15 C           1.5318    0.8341    0.6395 C.3        1 <1>        0.000
     16 C           0.9052    1.9620   -0.2013 C.3        1 <1>        0.000
     17 C          -0.5127    2.3069    0.2910 C.3        1 <1>        0.000
     18 C          -1.3972    1.0877    0.3969 C.2        1 <1>        0.000
     19 C          -2.6539    1.0672   -0.0678 C.2        1 <1>        0.000
     20 H           3.5966   -0.2303    2.4821 H.spc      1 <1>        0.000
     21 H          -0.6860    0.2550    2.6301 H.spc      1 <1>        0.000
     22 H          -3.6122   -0.6410   -0.8479 H.spc      1 <1>        0.000
     23 H          -3.6114   -2.0577    1.0355 H.spc      1 <1>        0.000
     24 H          -3.2486   -0.6989    2.1531 H.spc      1 <1>        0.000
     25 H          -1.3844   -1.8021    0.0062 H.spc      1 <1>        0.000
     26 H          -1.2405   -2.0838    1.7654 H.spc      1 <1>        0.000
     27 H           0.5617   -0.7921   -0.3709 H.spc      1 <1>        0.000
     28 H           0.6527   -2.4433    1.3833 H.spc      1 <1>        0.000
     29 H           1.3132   -1.2214    2.5304 H.spc      1 <1>        0.000
     30 H           2.6412   -2.2726    0.0045 H.spc      1 <1>        0.000
     31 H           3.1289   -2.6031    1.7068 H.spc      1 <1>        0.000
     32 H           2.6852    0.2889   -0.8656 H.spc      1 <1>        0.000
     33 H           3.9289    2.3658    0.7586 H.spc      1 <1>        0.000
     34 H           4.0804    2.0050   -0.9496 H.spc      1 <1>        0.000
     35 H           5.9254    1.2764    1.1662 H.spc      1 <1>        0.000
     36 H           6.0772    0.9157   -0.5426 H.spc      1 <1>        0.000
     37 H           5.2487   -1.2811   -0.2703 H.spc      1 <1>        0.000
     38 H           1.6027    1.1933    1.6662 H.spc      1 <1>        0.000
     39 H           0.8408    1.6276   -1.2367 H.spc      1 <1>        0.000
     40 H           1.5297    2.8506   -0.1094 H.spc      1 <1>        0.000
     41 H          -0.9634    2.9892   -0.4297 H.spc      1 <1>        0.000
     42 H          -0.4270    2.7488    1.2837 H.spc      1 <1>        0.000
     43 H          -3.0273    1.9446   -0.5958 H.spc      1 <1>        0.000
@<TRIPOS>BOND
     1    1    2 1  
     2    2    3 1  
     3    3    4 1  
     4    4    5 1  
     5    5    6 1  
     6    6    7 1  
     7    7    8 1  
     8    8    9 1  
     9    9   10 1  
    10   10   11 1  
    11   11   12 1  
    12   12   13 1  
    13   13    9 1  
    14   13   14 1  
    15   10   15 1  
    16   15    6 1  
    17   15   16 1  
    18   16   17 1  
    19   17   18 1  
    20   18    5 1  
    21   18   19 2  
    22   19    2 1  
    23    9   20 1  
    24    5   21 1  
    25    2   22 1  
    26    3   23 1  
    27    3   24 1  
    28    4   25 1  
    29    4   26 1  
    30    6   27 1  
    31    7   28 1  
    32    7   29 1  
    33    8   30 1  
    34    8   31 1  
    35   10   32 1  
    36   11   33 1  
    37   11   34 1  
    38   12   35 1  
    39   12   36 1  
    40   13   37 1  
    41   15   38 1  
    42   16   39 1  
    43   16   40 1  
    44   17   41 1  
    45   17   42 1  
    46   19   43 1  
