# Name:          seed_class_3_92_138/26467
# Creation time: Fri May 21 00:57:14 2010


@<TRIPOS>MOLECULE
seed_class_3_92_138/26467
    5     4     1     1     1
SMALL
USER_CHARGES


@<TRIPOS>ATOM
      1 S           2.2652    1.6552    0.5196 S.3        1 <1>        0.000
      2 H           3.3220    1.5979   -0.9610 H.spc      1 <1>        0.000
      3 C           2.5177    3.1894    1.3656 C.2        1 <1>        0.000
      4 O           3.2894    4.0275    0.9021 O.2        1 <1>        0.000
      5 H           1.7856    3.4691    2.6563 H.spc      1 <1>        0.000
@<TRIPOS>BOND
     1    1    2 1  
     2    1    3 1  
     3    3    4 2  
     4    3    5 1  
