# Name:          seed_class_5_552_22/34898
# Creation time: Fri May 21 00:57:20 2010


@<TRIPOS>MOLECULE
seed_class_5_552_22/34898
   37    41     1     1     1
SMALL
USER_CHARGES


@<TRIPOS>ATOM
      1 N          -2.4531    1.9269   -0.5155 N.3        1 <1>        0.000
      2 C          -1.6352    0.7080   -0.4373 C.3        1 <1>        0.000
      3 C          -1.1145    0.4267   -1.8590 C.3        1 <1>        0.000
      4 C          -0.2193    1.5647   -2.3835 C.3        1 <1>        0.000
      5 C           0.6265    1.5718   -3.6704 C.3        1 <1>        0.000
      6 O           1.8727    2.1767   -3.3155 O.3        1 <1>        0.000
      7 C           2.0266    2.0729   -1.9582 C.ar       1 <1>        0.000
      8 C           0.8366    1.7129   -1.3144 C.ar       1 <1>        0.000
      9 C           0.8118    1.5615    0.0772 C.ar       1 <1>        0.000
     10 C           1.9768    1.7701    0.8250 C.ar       1 <1>        0.000
     11 C           3.1667    2.1301    0.1812 C.ar       1 <1>        0.000
     12 C           3.1916    2.2815   -1.2104 C.ar       1 <1>        0.000
     13 O           4.3561    2.6338   -1.8404 O.3        1 <1>        0.000
     14 H           5.5154    2.8560   -1.0333 H.spc      1 <1>        0.000
     15 C          -0.4610    0.8948    0.5415 C.3        1 <1>        0.000
     16 C           1.1083    0.1635   -3.9246 C.2        1 <1>        0.000
     17 C           0.1703   -0.9765   -3.6069 C.3        1 <1>        0.000
     18 C          -0.4194   -0.9081   -2.1859 C.3        1 <1>        0.000
     19 H          -1.4022   -2.0603   -1.9834 H.spc      1 <1>        0.000
     20 O           2.2137   -0.0455   -4.3700 O.2        1 <1>        0.000
     21 C          -1.0515    2.8600   -2.3464 C.3        1 <1>        0.000
     22 C          -1.6660    3.0888   -0.9531 C.3        1 <1>        0.000
     23 H          -3.0436    2.2062    0.8014 H.spc      1 <1>        0.000
     24 H          -2.2278   -0.1282   -0.0661 H.spc      1 <1>        0.000
     25 H          -2.0740    0.3508   -2.3706 H.spc      1 <1>        0.000
     26 H           0.0584    2.0274   -4.4814 H.spc      1 <1>        0.000
     27 H           1.9574    1.6522    1.9084 H.spc      1 <1>        0.000
     28 H           4.0738    2.2925    0.7634 H.spc      1 <1>        0.000
     29 H          -0.8517    1.5605    1.3112 H.spc      1 <1>        0.000
     30 H          -0.1580   -0.1199    0.7998 H.spc      1 <1>        0.000
     31 H           0.7420   -1.9016   -3.6804 H.spc      1 <1>        0.000
     32 H          -0.6610   -0.9226   -4.3098 H.spc      1 <1>        0.000
     33 H           0.4244   -0.9890   -1.5007 H.spc      1 <1>        0.000
     34 H          -1.8596    2.7747   -3.0729 H.spc      1 <1>        0.000
     35 H          -0.3974    3.7001   -2.5799 H.spc      1 <1>        0.000
     36 H          -2.3265    3.9544   -1.0044 H.spc      1 <1>        0.000
     37 H          -0.8569    3.2467   -0.2400 H.spc      1 <1>        0.000
@<TRIPOS>BOND
     1    1    2 1  
     2    2    3 1  
     3    3    4 1  
     4    4    5 1  
     5    5    6 1  
     6    6    7 1  
     7    7    8 ar 
     8    8    4 1  
     9    8    9 ar 
    10    9   10 ar 
    11   10   11 ar 
    12   11   12 ar 
    13   12    7 ar 
    14   12   13 1  
    15   13   14 1  
    16    9   15 1  
    17   15    2 1  
    18    5   16 1  
    19   16   17 1  
    20   17   18 1  
    21   18    3 1  
    22   18   19 1  
    23   16   20 2  
    24    4   21 1  
    25   21   22 1  
    26   22    1 1  
    27    1   23 1  
    28    2   24 1  
    29    3   25 1  
    30    5   26 1  
    31   10   27 1  
    32   11   28 1  
    33   15   29 1  
    34   15   30 1  
    35   17   31 1  
    36   17   32 1  
    37   18   33 1  
    38   21   34 1  
    39   21   35 1  
    40   22   36 1  
    41   22   37 1  
