# Name:          seed_class_4_276_37/38664
# Creation time: Fri May 21 00:57:16 2010


@<TRIPOS>MOLECULE
seed_class_4_276_37/38664
   22    24     1     1     1
SMALL
USER_CHARGES


@<TRIPOS>ATOM
      1 N          -1.0625   -0.7950    0.5263 N.am       1 <1>        0.000
      2 C          -0.6270   -1.5447   -0.4823 C.2        1 <1>        0.000
      3 C           0.7830   -1.4325   -0.9178 C.ar       1 <1>        0.000
      4 C           1.6322   -0.5367   -0.2571 C.ar       1 <1>        0.000
      5 C           2.9691   -0.4167   -0.6549 C.ar       1 <1>        0.000
      6 C           3.8183    0.4791    0.0057 C.ar       1 <1>        0.000
      7 C           3.3306    1.2548    1.0642 C.ar       1 <1>        0.000
      8 C           1.9937    1.1349    1.4619 C.ar       1 <1>        0.000
      9 C           1.1445    0.2391    0.8013 C.ar       1 <1>        0.000
     10 C          -0.2778    0.0636    1.1711 C.2        1 <1>        0.000
     11 O          -0.7446    0.7268    2.0958 O.2        1 <1>        0.000
     12 C           3.4569   -1.1925   -1.7134 C.ar       1 <1>        0.000
     13 C           2.6077   -2.0883   -2.3740 C.ar       1 <1>        0.000
     14 C           1.2707   -2.2083   -1.9762 C.ar       1 <1>        0.000
     15 O          -1.3903   -2.3253   -1.0488 O.2        1 <1>        0.000
     16 H          -2.4662   -0.9203    0.9447 H.spc      1 <1>        0.000
     17 H           4.8592    0.5726   -0.3041 H.spc      1 <1>        0.000
     18 H           3.9918    1.9521    1.5787 H.spc      1 <1>        0.000
     19 H           1.6139    1.7390    2.2859 H.spc      1 <1>        0.000
     20 H           4.4978   -1.0990   -2.0231 H.spc      1 <1>        0.000
     21 H           2.9874   -2.6923   -3.1980 H.spc      1 <1>        0.000
     22 H           0.6095   -2.9057   -2.4905 H.spc      1 <1>        0.000
@<TRIPOS>BOND
     1    1    2 am 
     2    2    3 1  
     3    3    4 ar 
     4    4    5 ar 
     5    5    6 ar 
     6    6    7 ar 
     7    7    8 ar 
     8    8    9 ar 
     9    9    4 ar 
    10    9   10 1  
    11   10    1 am 
    12   10   11 2  
    13    5   12 ar 
    14   12   13 ar 
    15   13   14 ar 
    16   14    3 ar 
    17    2   15 2  
    18    1   16 1  
    19    6   17 1  
    20    7   18 1  
    21    8   19 1  
    22   12   20 1  
    23   13   21 1  
    24   14   22 1  
