# Name:          seed_class_4_195_127/38664
# Creation time: Fri May 21 00:57:15 2010


@<TRIPOS>MOLECULE
seed_class_4_195_127/38664
   11    11     1     1     1
SMALL
USER_CHARGES


@<TRIPOS>ATOM
      1 H          -2.0018    2.8168    1.4643 H.spc      1 <1>        0.000
      2 C          -1.9898    1.4690    1.5396 C.2        1 <1>        0.000
      3 C          -0.9075    0.7679    1.1754 C.2        1 <1>        0.000
      4 N          -0.8909   -0.5900    1.2496 N.am       1 <1>        0.000
      5 C          -1.9486   -1.2678    1.6863 C.2        1 <1>        0.000
      6 N          -3.1104   -0.5942    2.0820 N.2        1 <1>        0.000
      7 C          -3.1717    0.7233    2.0269 C.2        1 <1>        0.000
      8 H          -4.2981    1.3820    2.4102 H.spc      1 <1>        0.000
      9 O          -1.9051   -2.5157    1.7439 O.2        1 <1>        0.000
     10 H           0.3169   -1.3211    0.8401 H.spc      1 <1>        0.000
     11 H          -0.0249    1.2952    0.8133 H.spc      1 <1>        0.000
@<TRIPOS>BOND
     1    1    2 1  
     2    2    3 2  
     3    3    4 1  
     4    4    5 am 
     5    5    6 1  
     6    6    7 2  
     7    7    2 1  
     8    7    8 1  
     9    5    9 2  
    10    4   10 1  
    11    3   11 1  
