# Name:          seed_class_5_496_31/34898
# Creation time: Fri May 21 00:57:19 2010


@<TRIPOS>MOLECULE
seed_class_5_496_31/34898
   12    12     1     1     1
SMALL
USER_CHARGES


@<TRIPOS>ATOM
      1 H           2.5038   -0.1189   -0.6669 H.spc      1 <1>        0.000
      2 N           3.3977    0.7598    0.1012 N.am       1 <1>        0.000
      3 C           4.5810    1.1609   -0.3545 C.2        1 <1>        0.000
      4 C           5.2437    2.0481    0.6706 C.3        1 <1>        0.000
      5 C           4.2174    2.0896    1.8180 C.3        1 <1>        0.000
      6 C           3.0914    1.2209    1.3105 C.2        1 <1>        0.000
      7 O           2.0518    0.9773    1.9211 O.2        1 <1>        0.000
      8 O           5.0616    0.8553   -1.4447 O.2        1 <1>        0.000
      9 H           5.4777    3.0386    0.2804 H.spc      1 <1>        0.000
     10 H           6.2148    1.6691    0.9892 H.spc      1 <1>        0.000
     11 H           3.8918    3.1030    2.0526 H.spc      1 <1>        0.000
     12 H           4.6294    1.7326    2.7619 H.spc      1 <1>        0.000
@<TRIPOS>BOND
     1    1    2 1  
     2    2    3 am 
     3    3    4 1  
     4    4    5 1  
     5    5    6 1  
     6    6    2 am 
     7    6    7 2  
     8    3    8 2  
     9    4    9 1  
    10    4   10 1  
    11    5   11 1  
    12    5   12 1  
