#	Name:			<unnamed>
#	Creating user name:	zmliu
#	Creation time:		Thu Mar 11 22:50:42 2004

#	Modifying user name:	zmliu
#	Modification time:	Thu Mar 11 22:53:23 2004

@<TRIPOS>MOLECULE
****
   16    15     1     1     0
SMALL
GAST_HUCK


@<TRIPOS>ATOM
      1 N1          0.8362    1.4955   -0.4954 N.3       1 <1>        -0.2409 
      2 C2          1.2379    2.6236   -1.3614 C.3       1 <1>         0.0111 
      3 C3          0.5388    0.2482   -1.2282 C.3       1 <1>         0.0111 
      4 H1         -0.0225    1.7801    0.0974 H.spc     1 <1>        -1.0000 
      5 C5          1.5284    3.8780   -0.5025 C.3       1 <1>        -0.0510 
      6 H3          0.4276    2.8508   -2.0734 H         1 <1>         0.0438 
      7 H4          2.1443    2.3535   -1.9281 H         1 <1>         0.0438 
      8 C8          0.1304   -0.8655   -0.2350 C.3       1 <1>        -0.0510 
      9 H6          1.4296   -0.0738   -1.7919 H         1 <1>         0.0438 
     10 H7         -0.2873    0.4247   -1.9358 H         1 <1>         0.0438 
     11 H5          1.8283    4.7192   -1.1476 H         1 <1>         0.0242 
     12 H8          2.3416    3.6685    0.2097 H         1 <1>         0.0242 
     13 H9          0.6288    4.1689    0.0613 H         1 <1>         0.0242 
     14 H10        -0.0921   -1.7965   -0.7799 H         1 <1>         0.0242 
     15 H11        -0.7660   -0.5638    0.3282 H         1 <1>         0.0242 
     16 H12         0.9487   -1.0568    0.4762 H         1 <1>         0.0242 
@<TRIPOS>BOND
     1    2    1 1    
     2    1    3 1    
     3    1    4 1    
     4    2    5 1    
     5    2    6 1    
     6    2    7 1    
     7    3    8 1    
     8    3    9 1    
     9    3   10 1    
    10    5   11 1    
    11    5   12 1    
    12    5   13 1    
    13    8   14 1    
    14    8   15 1    
    15    8   16 1    
@<TRIPOS>SUBSTRUCTURE
     1 ****        2 TEMP              0 ****  ****    0 ROOT 
@<TRIPOS>NORMAL
@<TRIPOS>FF_PBC
FORCE_FIELD_SETUP_FEATURE Force Field Setup information
v1.0  0 0.000000 0.000000 0.000000 0.000000 0.000000 0.000000 NONE 0 0 0 0 0 0 0 0 0 0 0 0 0
