# Name:          seed_class_2_64_44/95646
# Creation time: Fri May 21 00:57:14 2010


@<TRIPOS>MOLECULE
seed_class_2_64_44/95646
   15    16     1     1     1
SMALL
USER_CHARGES


@<TRIPOS>ATOM
      1 S           0.7875   -0.8064   -0.8135 S.3        1 <1>        0.000
      2 C           2.5282   -1.1022   -0.9376 C.ar       1 <1>        0.000
      3 C           3.1056   -0.2174   -0.0190 C.ar       1 <1>        0.000
      4 C           2.1451    0.6323    0.7199 C.ar       1 <1>        0.000
      5 C           0.8498    0.4562    0.4254 C.ar       1 <1>        0.000
      6 H          -0.3003    1.1747    1.0183 H.spc      1 <1>        0.000
      7 C           4.4958   -0.1856    0.1435 C.ar       1 <1>        0.000
      8 C           5.3086   -1.0386   -0.6126 C.ar       1 <1>        0.000
      9 C           4.7312   -1.9234   -1.5312 C.ar       1 <1>        0.000
     10 C           3.3411   -1.9552   -1.6937 C.ar       1 <1>        0.000
     11 H           2.4729    1.3604    1.4619 H.spc      1 <1>        0.000
     12 H           4.9453    0.5033    0.8587 H.spc      1 <1>        0.000
     13 H           6.3910   -1.0139   -0.4861 H.spc      1 <1>        0.000
     14 H           5.3640   -2.5875   -2.1199 H.spc      1 <1>        0.000
     15 H           2.8916   -2.6441   -2.4089 H.spc      1 <1>        0.000
@<TRIPOS>BOND
     1    1    2 ar 
     2    2    3 ar 
     3    3    4 ar 
     4    4    5 ar 
     5    5    1 ar 
     6    5    6 1  
     7    3    7 ar 
     8    7    8 ar 
     9    8    9 ar 
    10    9   10 ar 
    11   10    2 ar 
    12    4   11 1  
    13    7   12 1  
    14    8   13 1  
    15    9   14 1  
    16   10   15 1  
