# Name:          seed_class_4_318_26/38664
# Creation time: Fri May 21 00:57:17 2010


@<TRIPOS>MOLECULE
seed_class_4_318_26/38664
   30    33     1     1     1
SMALL
USER_CHARGES


@<TRIPOS>ATOM
      1 O           2.9596    1.9986    1.5633 O.3        1 <1>        0.000
      2 C           3.9823    1.0077    1.6931 C.3        1 <1>        0.000
      3 C           4.3491    0.4155    0.3196 C.3        1 <1>        0.000
      4 C           3.3240   -0.6815   -0.0230 C.3        1 <1>        0.000
      5 C           2.3149   -0.7769    1.1364 C.3        1 <1>        0.000
      6 C           1.3042    0.3559    0.8775 C.3        1 <1>        0.000
      7 C           2.0753    1.6345    0.5001 C.3        1 <1>        0.000
      8 C           1.1881    2.8536    0.4182 C.2        1 <1>        0.000
      9 C          -0.0525    2.8895    0.9235 C.2        1 <1>        0.000
     10 C          -0.6889    1.7142    1.6261 C.3        1 <1>        0.000
     11 C           0.3215    0.6253    2.0322 C.3        1 <1>        0.000
     12 H          -1.6777    1.1374    0.7691 H.spc      1 <1>        0.000
     13 H          -0.8506    4.1637    0.7838 H.spc      1 <1>        0.000
     14 H           0.4373   -0.0978   -0.2962 H.spc      1 <1>        0.000
     15 C           3.3649   -0.3213    2.1667 C.3        1 <1>        0.000
     16 O           4.1201   -1.2454    2.8666 O.3        1 <1>        0.000
     17 C           3.1639   -0.5867    3.6190 C.3        1 <1>        0.000
     18 H           1.6797   -2.0904    1.5836 H.spc      1 <1>        0.000
     19 H           4.0030   -1.9327   -0.1586 H.spc      1 <1>        0.000
     20 H           4.2819    1.4463   -0.6693 H.spc      1 <1>        0.000
     21 H           4.7549    1.4957    2.2872 H.spc      1 <1>        0.000
     22 H           5.3562   -0.0008    0.3430 H.spc      1 <1>        0.000
     23 H           2.8106   -0.4439   -0.9547 H.spc      1 <1>        0.000
     24 H           2.5534    1.3987   -0.4506 H.spc      1 <1>        0.000
     25 H           1.5746    3.7456   -0.0747 H.spc      1 <1>        0.000
     26 H          -1.1323    2.0956    2.5459 H.spc      1 <1>        0.000
     27 H          -0.2174   -0.2933    2.2643 H.spc      1 <1>        0.000
     28 H           0.8800    0.9639    2.9049 H.spc      1 <1>        0.000
     29 H           3.0623   -0.0513    4.5630 H.spc      1 <1>        0.000
     30 H           2.3652   -0.7973    4.3302 H.spc      1 <1>        0.000
@<TRIPOS>BOND
     1    1    2 1  
     2    2    3 1  
     3    3    4 1  
     4    4    5 1  
     5    5    6 1  
     6    6    7 1  
     7    7    1 1  
     8    7    8 1  
     9    8    9 2  
    10    9   10 1  
    11   10   11 1  
    12   11    6 1  
    13   10   12 1  
    14    9   13 1  
    15    6   14 1  
    16    5   15 1  
    17   15    2 1  
    18   15   16 1  
    19   16   17 1  
    20   17   15 1  
    21    5   18 1  
    22    4   19 1  
    23    3   20 1  
    24    2   21 1  
    25    3   22 1  
    26    4   23 1  
    27    7   24 1  
    28    8   25 1  
    29   10   26 1  
    30   11   27 1  
    31   11   28 1  
    32   17   29 1  
    33   17   30 1  
