#	Name:			piperidine
#	Creating user name:	becker
#	Creation time:		Thu Dec 19 02:55:00 2002

#	Modifying user name:	zmliu
#	Modification time:	Thu Mar 11 21:21:04 2004

@<TRIPOS>MOLECULE
piperidine
   17    17     1     1     0
SMALL
GAST_HUCK


@<TRIPOS>ATOM
      1 N1          0.0000    1.4520   -0.4351 N.3       1 PIPERIDINE   -0.2181 
      2 C1          1.2394    0.8412    0.0928 C.3       1 PIPERIDINE    0.0887 
      3 C2          1.2668   -0.6685   -0.2535 C.3       1 PIPERIDINE    0.0189 
      4 C3          0.0001   -1.3638    0.3060 C.3       1 PIPERIDINE    0.0030 
      5 C4         -1.2669   -0.6685   -0.2533 C.3       1 PIPERIDINE    0.0189 
      6 C5         -1.2395    0.8411    0.0927 C.3       1 PIPERIDINE    0.0887 
      7 H1          0.0000    2.5214   -0.2562 H.spc     1 PIPERIDINE   -1.0000 
      8 H2          1.2985    0.9784    1.1857 H.spc     1 PIPERIDINE   -1.0000 
      9 H3          2.1138    1.3332   -0.3651 H.spc     1 PIPERIDINE   -1.0000 
     10 H4          2.1720   -1.1367    0.1684 H.spc     1 PIPERIDINE   -1.0000 
     11 H5          1.2954   -0.7859   -1.3494 H.spc     1 PIPERIDINE   -1.0000 
     12 H6          0.0000   -1.3035    1.4069 H.spc     1 PIPERIDINE   -1.0000 
     13 H7          0.0000   -2.4292    0.0206 H.spc     1 PIPERIDINE   -1.0000 
     14 H8         -2.1719   -1.1368    0.1688 H.spc     1 PIPERIDINE   -1.0000 
     15 H9         -1.2955   -0.7862   -1.3492 H.spc     1 PIPERIDINE   -1.0000 
     16 H10        -2.1138    1.3331   -0.3655 H.spc     1 PIPERIDINE   -1.0000 
     17 H11        -1.2987    0.9786    1.1855 H.spc     1 PIPERIDINE   -1.0000 
@<TRIPOS>BOND
     1    1    2 1    
     2    1    6 1    
     3    2    3 1    
     4    3    4 1    
     5    4    5 1    
     6    5    6 1    
     7    1    7 1    
     8    2    8 1    
     9    2    9 1    
    10    3   10 1    
    11    3   11 1    
    12    4   12 1    
    13    4   13 1    
    14    5   14 1    
    15    5   15 1    
    16    6   16 1    
    17    6   17 1    
@<TRIPOS>SUBSTRUCTURE
     1 PIPERIDINE     1 PERM              0 ****  ****    0 ROOT 
@<TRIPOS>NORMAL
@<TRIPOS>FF_PBC
FORCE_FIELD_SETUP_FEATURE Force Field Setup information
v1.0  0 0.000000 0.000000 0.000000 0.000000 0.000000 0.000000 NONE 2 0 0 0 0 0 0 0 0 0 0 0 0
