# Name:          seed_class_3_111_54/26467
# Creation time: Fri May 21 00:57:14 2010


@<TRIPOS>MOLECULE
seed_class_3_111_54/26467
    7     6     1     1     1
SMALL
USER_CHARGES


@<TRIPOS>ATOM
      1 H           0.2111   -5.2906    1.1985 H.spc      1 <1>        0.000
      2 C          -0.5093   -5.4809    0.0848 C.2        1 <1>        0.000
      3 C           0.1722   -5.7647   -1.1979 C.2        1 <1>        0.000
      4 O           1.3086   -6.2086   -1.1997 O.2        1 <1>        0.000
      5 O          -0.4636   -5.5325   -2.3659 O.3        1 <1>        0.000
      6 H           0.2205   -5.8576   -3.5789 H.spc      1 <1>        0.000
      7 H          -1.5973   -5.4267    0.1236 H.spc      1 <1>        0.000
@<TRIPOS>BOND
     1    1    2 2  
     2    2    3 1  
     3    3    4 2  
     4    3    5 1  
     5    5    6 1  
     6    2    7 1  
