# Name:          seed_class_5_472_36/34898
# Creation time: Fri May 21 00:57:19 2010


@<TRIPOS>MOLECULE
seed_class_5_472_36/34898
   12    12     1     1     1
SMALL
USER_CHARGES


@<TRIPOS>ATOM
      1 H           0.4496    0.1287   -0.2615 H.spc      1 <1>        0.000
      2 C          -0.6676    1.0206   -0.2227 C.3        1 <1>        0.000
      3 C          -0.2753    2.3776   -0.8361 C.3        1 <1>        0.000
      4 C          -1.1888    2.5435   -2.0270 C.2        1 <1>        0.000
      5 C          -2.0544    1.3446   -2.0876 C.2        1 <1>        0.000
      6 C          -1.7797    0.4882   -1.0944 C.2        1 <1>        0.000
      7 H          -2.4856   -0.8288   -0.8765 H.spc      1 <1>        0.000
      8 H          -3.1149    1.1152   -3.1378 H.spc      1 <1>        0.000
      9 O          -1.2096    3.4979   -2.8026 O.2        1 <1>        0.000
     10 H          -0.9782    1.1192    0.8174 H.spc      1 <1>        0.000
     11 H           0.7754    2.4029   -1.1250 H.spc      1 <1>        0.000
     12 H          -0.3890    3.1930   -0.1218 H.spc      1 <1>        0.000
@<TRIPOS>BOND
     1    1    2 1  
     2    2    3 1  
     3    3    4 1  
     4    4    5 1  
     5    5    6 2  
     6    6    2 1  
     7    6    7 1  
     8    5    8 1  
     9    4    9 2  
    10    2   10 1  
    11    3   11 1  
    12    3   12 1  
