# Name:          seed_class_4_226_68/38664
# Creation time: Fri May 21 00:57:16 2010


@<TRIPOS>MOLECULE
seed_class_4_226_68/38664
   24    25     1     1     1
SMALL
USER_CHARGES


@<TRIPOS>ATOM
      1 N          -0.1820    0.2743   -0.0144 N.3        1 <1>        0.000
      2 C           0.6556    0.7967   -1.1037 C.3        1 <1>        0.000
      3 C           1.9760    1.4264   -0.6224 C.3        1 <1>        0.000
      4 C           2.9984    0.4491   -0.0936 C.ar       1 <1>        0.000
      5 C           2.7700   -0.5763    0.8318 C.ar       1 <1>        0.000
      6 C           3.8237   -1.4079    1.2294 C.ar       1 <1>        0.000
      7 C           5.1058   -1.2142    0.7016 C.ar       1 <1>        0.000
      8 C           5.3343   -0.1888   -0.2238 C.ar       1 <1>        0.000
      9 C           4.2806    0.6428   -0.6214 C.ar       1 <1>        0.000
     10 H           6.1370   -2.0280    1.0907 H.spc      1 <1>        0.000
     11 C           1.4544   -0.9153    1.4909 C.3        1 <1>        0.000
     12 C           0.2522   -1.0181    0.5353 C.3        1 <1>        0.000
     13 H          -0.9163   -1.6888    1.2519 H.spc      1 <1>        0.000
     14 H          -1.5646    0.1459   -0.4969 H.spc      1 <1>        0.000
     15 H           0.0861    1.5784   -1.6064 H.spc      1 <1>        0.000
     16 H           0.9116   -0.0434   -1.7494 H.spc      1 <1>        0.000
     17 H           1.7230    2.0921    0.2028 H.spc      1 <1>        0.000
     18 H           2.4255    1.9119   -1.4886 H.spc      1 <1>        0.000
     19 H           3.6459   -2.2062    1.9499 H.spc      1 <1>        0.000
     20 H           6.3325   -0.0379   -0.6347 H.spc      1 <1>        0.000
     21 H           4.4585    1.4411   -1.3419 H.spc      1 <1>        0.000
     22 H           1.2340   -0.1053    2.1862 H.spc      1 <1>        0.000
     23 H           1.5765   -1.8972    1.9481 H.spc      1 <1>        0.000
     24 H           0.5836   -1.6175   -0.3127 H.spc      1 <1>        0.000
@<TRIPOS>BOND
     1    1    2 1  
     2    2    3 1  
     3    3    4 1  
     4    4    5 ar 
     5    5    6 ar 
     6    6    7 ar 
     7    7    8 ar 
     8    8    9 ar 
     9    9    4 ar 
    10    7   10 1  
    11    5   11 1  
    12   11   12 1  
    13   12    1 1  
    14   12   13 1  
    15    1   14 1  
    16    2   15 1  
    17    2   16 1  
    18    3   17 1  
    19    3   18 1  
    20    6   19 1  
    21    8   20 1  
    22    9   21 1  
    23   11   22 1  
    24   11   23 1  
    25   12   24 1  
