# Name:          seed_class_3_122_36/26467
# Creation time: Fri May 21 00:57:15 2010


@<TRIPOS>MOLECULE
seed_class_3_122_36/26467
    8     7     1     1     1
SMALL
USER_CHARGES


@<TRIPOS>ATOM
      1 S          -2.4401   -3.6551   -1.8028 S.2        1 <1>        0.000
      2 P          -3.6363   -2.7210   -0.5625 P.3        1 <1>        0.000
      3 O          -2.8351   -1.6038    0.1957 O.3        1 <1>        0.000
      4 H          -2.4871   -0.5163   -0.6652 H.spc      1 <1>        0.000
      5 O          -4.8152   -2.0657   -1.3660 O.3        1 <1>        0.000
      6 O          -4.2166   -3.7452    0.4763 O.3        1 <1>        0.000
      7 H          -5.4004   -1.6085   -0.7576 H.spc      1 <1>        0.000
      8 H          -4.8023   -3.2866    1.0832 H.spc      1 <1>        0.000
@<TRIPOS>BOND
     1    1    2 2  
     2    2    3 1  
     3    3    4 1  
     4    2    5 1  
     5    2    6 1  
     6    5    7 1  
     7    6    8 1  
