# Name:          seed_class_3_127_33/26467
# Creation time: Fri May 21 00:57:15 2010


@<TRIPOS>MOLECULE
seed_class_3_127_33/26467
    9     8     1     1     1
SMALL
USER_CHARGES


@<TRIPOS>ATOM
      1 N          -1.6228    0.7048   -0.7447 N.am       1 <1>        0.000
      2 O          -1.8008   -0.1086   -1.8200 O.3        1 <1>        0.000
      3 H          -0.3785    0.6312    0.0346 H.spc      1 <1>        0.000
      4 C          -2.5744    1.5669   -0.3981 C.2        1 <1>        0.000
      5 O          -2.3966    2.3388    0.5688 O.2        1 <1>        0.000
      6 N          -3.7154    1.6076   -1.0804 N.am       1 <1>        0.000
      7 H          -1.0260   -0.6643   -1.9312 H.spc      1 <1>        0.000
      8 H          -4.4453    2.2687   -0.8146 H.spc      1 <1>        0.000
      9 H          -3.8605    0.9777   -1.8694 H.spc      1 <1>        0.000
@<TRIPOS>BOND
     1    1    2 1  
     2    1    3 1  
     3    1    4 am 
     4    4    5 2  
     5    4    6 am 
     6    2    7 1  
     7    6    8 1  
     8    6    9 1  
