# Name:          seed_class_4_155_1080/38664
# Creation time: Fri May 21 00:57:15 2010


@<TRIPOS>MOLECULE
seed_class_4_155_1080/38664
   18    18     1     1     1
SMALL
USER_CHARGES


@<TRIPOS>ATOM
      1 H           5.1015    0.3497    0.1897 H.spc      1 <1>        0.000
      2 C           5.6842   -1.0592    0.2918 C.3        1 <1>        0.000
      3 C           4.8876   -2.0234   -0.6067 C.3        1 <1>        0.000
      4 C           5.4925   -3.4395   -0.5885 C.3        1 <1>        0.000
      5 C           6.9849   -3.4194   -0.9678 C.3        1 <1>        0.000
      6 C           7.7814   -2.4552   -0.0693 C.3        1 <1>        0.000
      7 C           7.1766   -1.0391   -0.0875 C.3        1 <1>        0.000
      8 H           5.6034   -1.4133    1.3195 H.spc      1 <1>        0.000
      9 H           4.9180   -1.6476   -1.6294 H.spc      1 <1>        0.000
     10 H           3.8653   -2.0793   -0.2328 H.spc      1 <1>        0.000
     11 H           4.9594   -4.0525   -1.3152 H.spc      1 <1>        0.000
     12 H           5.3975   -3.8431    0.4196 H.spc      1 <1>        0.000
     13 H           7.0746   -3.0830   -2.0007 H.spc      1 <1>        0.000
     14 H           7.3878   -4.4240   -0.8393 H.spc      1 <1>        0.000
     15 H           8.8038   -2.3993   -0.4432 H.spc      1 <1>        0.000
     16 H           7.7509   -2.8310    0.9534 H.spc      1 <1>        0.000
     17 H           7.2717   -0.6355   -1.0956 H.spc      1 <1>        0.000
     18 H           7.7098   -0.4261    0.6392 H.spc      1 <1>        0.000
@<TRIPOS>BOND
     1    1    2 1  
     2    2    3 1  
     3    3    4 1  
     4    4    5 1  
     5    5    6 1  
     6    6    7 1  
     7    7    2 1  
     8    2    8 1  
     9    3    9 1  
    10    3   10 1  
    11    4   11 1  
    12    4   12 1  
    13    5   13 1  
    14    5   14 1  
    15    6   15 1  
    16    6   16 1  
    17    7   17 1  
    18    7   18 1  
