# Name:          seed_class_4_162_377/38664
# Creation time: Fri May 21 00:57:15 2010


@<TRIPOS>MOLECULE
seed_class_4_162_377/38664
   34    37     1     1     1
SMALL
USER_CHARGES


@<TRIPOS>ATOM
      1 H          -1.8223   -1.1419    0.2235 H.spc      1 <1>        0.000
      2 C          -1.0398   -0.9578    1.4061 C.3        1 <1>        0.000
      3 C          -0.9583   -2.2936    2.1680 C.3        1 <1>        0.000
      4 C           0.1199   -2.2231    3.2653 C.3        1 <1>        0.000
      5 C           1.5036   -1.9628    2.6413 C.3        1 <1>        0.000
      6 C           1.4976   -0.8711    1.5981 C.ar       1 <1>        0.000
      7 C           0.3108   -0.4024    1.0220 C.ar       1 <1>        0.000
      8 C           0.3536    0.6120    0.0580 C.ar       1 <1>        0.000
      9 C           1.5832    1.1577   -0.3298 C.ar       1 <1>        0.000
     10 C           2.7699    0.6889    0.2463 C.ar       1 <1>        0.000
     11 C           2.7271   -0.3254    1.2103 C.ar       1 <1>        0.000
     12 H           3.8885   -0.7841    1.7740 H.spc      1 <1>        0.000
     13 C           4.0853    1.2450   -0.1422 C.2        1 <1>        0.000
     14 C           4.1259    2.3172   -1.1616 C.ar       1 <1>        0.000
     15 C           2.9429    2.7903   -1.7416 C.ar       1 <1>        0.000
     16 C           2.9926    3.8049   -2.7050 C.ar       1 <1>        0.000
     17 C           4.2254    4.3463   -3.0885 C.ar       1 <1>        0.000
     18 C           5.4085    3.8731   -2.5085 C.ar       1 <1>        0.000
     19 C           5.3588    2.8586   -1.5450 C.ar       1 <1>        0.000
     20 H           6.5165    2.3955   -0.9775 H.spc      1 <1>        0.000
     21 C           1.6306    2.2300   -1.3487 C.2        1 <1>        0.000
     22 O           0.5943    2.6496   -1.8616 O.2        1 <1>        0.000
     23 O           5.1216    0.8255    0.3706 O.2        1 <1>        0.000
     24 H          -0.8077    1.0707   -0.5058 H.spc      1 <1>        0.000
     25 H           2.4246   -1.6129    3.6777 H.spc      1 <1>        0.000
     26 H          -0.6622   -3.3574    1.2593 H.spc      1 <1>        0.000
     27 H          -2.3147   -2.6243    2.7890 H.spc      1 <1>        0.000
     28 H          -1.4998   -0.2355    2.0805 H.spc      1 <1>        0.000
     29 H           0.1445   -3.1722    3.8008 H.spc      1 <1>        0.000
     30 H          -0.1209   -1.4083    3.9482 H.spc      1 <1>        0.000
     31 H           1.8009   -2.8817    2.1361 H.spc      1 <1>        0.000
     32 H           2.0714    4.1733   -3.1565 H.spc      1 <1>        0.000
     33 H           4.2641    5.1362   -3.8386 H.spc      1 <1>        0.000
     34 H           6.3684    4.2946   -2.8071 H.spc      1 <1>        0.000
@<TRIPOS>BOND
     1    1    2 1  
     2    2    3 1  
     3    3    4 1  
     4    4    5 1  
     5    5    6 1  
     6    6    7 ar 
     7    7    2 1  
     8    7    8 ar 
     9    8    9 ar 
    10    9   10 ar 
    11   10   11 ar 
    12   11    6 ar 
    13   11   12 1  
    14   10   13 1  
    15   13   14 1  
    16   14   15 ar 
    17   15   16 ar 
    18   16   17 ar 
    19   17   18 ar 
    20   18   19 ar 
    21   19   14 ar 
    22   19   20 1  
    23   15   21 1  
    24   21    9 1  
    25   21   22 2  
    26   13   23 2  
    27    8   24 1  
    28    5   25 1  
    29    3   26 1  
    30    3   27 1  
    31    2   28 1  
    32    4   29 1  
    33    4   30 1  
    34    5   31 1  
    35   16   32 1  
    36   17   33 1  
    37   18   34 1  
