# Name:          seed_class_3_83_617/26467
# Creation time: Fri May 21 00:57:14 2010


@<TRIPOS>MOLECULE
seed_class_3_83_617/26467
    9     8     1     1     1
SMALL
USER_CHARGES


@<TRIPOS>ATOM
      1 H          -1.6310    1.1516   -2.5607 H.spc      1 <1>        0.000
      2 C          -2.3208   -0.1916   -2.5529 C.2        1 <1>        0.000
      3 C          -3.6279   -0.2718   -2.2688 C.2        1 <1>        0.000
      4 C          -4.3040   -1.5883   -2.2611 C.2        1 <1>        0.000
      5 O          -3.6640   -2.6041   -2.4780 O.2        1 <1>        0.000
      6 O          -5.6290   -1.6652   -2.0142 O.3        1 <1>        0.000
      7 H          -6.2306   -2.9619   -1.9759 H.spc      1 <1>        0.000
      8 H          -1.7556   -1.0959   -2.7783 H.spc      1 <1>        0.000
      9 H          -4.1931    0.6325   -2.0434 H.spc      1 <1>        0.000
@<TRIPOS>BOND
     1    1    2 1  
     2    2    3 2  
     3    3    4 1  
     4    4    5 2  
     5    4    6 1  
     6    6    7 1  
     7    2    8 1  
     8    3    9 1  
