# Name:          seed_class_4_260_43/38664
# Creation time: Fri May 21 00:57:16 2010


@<TRIPOS>MOLECULE
seed_class_4_260_43/38664
   13    13     1     1     1
SMALL
USER_CHARGES


@<TRIPOS>ATOM
      1 N          -4.4595   -2.4787    0.8396 N.pl3      1 <1>        0.000
      2 C          -5.5623   -1.8481    0.1000 C.3        1 <1>        0.000
      3 N          -6.8217   -1.6765    0.8386 N.2        1 <1>        0.000
      4 C          -6.9018   -2.0834    2.0918 C.2        1 <1>        0.000
      5 N          -5.8219   -2.6794    2.7541 N.pl3      1 <1>        0.000
      6 C          -4.6721   -2.8534    2.1295 C.cat      1 <1>        0.000
      7 N          -3.6490   -3.4364    2.8100 N.pl3      1 <1>        0.000
      8 H          -8.0733   -1.9179    2.7625 H.spc      1 <1>        0.000
      9 H          -5.8340   -2.6495   -1.1699 H.spc      1 <1>        0.000
     10 H          -5.1010   -0.4905   -0.4221 H.spc      1 <1>        0.000
     11 H          -3.3974   -1.6295    0.8171 H.spc      1 <1>        0.000
     12 H          -3.7810   -3.7271    3.7787 H.spc      1 <1>        0.000
     13 H          -2.7497   -3.5829    2.3516 H.spc      1 <1>        0.000
@<TRIPOS>BOND
     1    1    2 1  
     2    2    3 1  
     3    3    4 2  
     4    4    5 1  
     5    5    6 ar 
     6    6    1 ar 
     7    6    7 ar 
     8    4    8 1  
     9    2    9 1  
    10    2   10 1  
    11    1   11 1  
    12    7   12 1  
    13    7   13 1  
