#	Name:			anthracene
#	Creating user name:	becker
#	Creation time:		Thu Dec 19 02:54:40 2002

#	Modifying user name:	zmliu
#	Modification time:	Thu Mar 11 20:27:25 2004

@<TRIPOS>MOLECULE
anthracene
   24    26     1     1     0
SMALL
GAST_HUCK


@<TRIPOS>ATOM
      1 C1         -2.4324    1.3951    0.0000 C.ar      1 ANTHRACENE    0.0000 
      2 C2         -3.6437    0.6984    0.0000 C.ar      1 ANTHRACENE    0.0000 
      3 C3         -3.6437   -0.6984    0.0000 C.ar      1 ANTHRACENE    0.0000 
      4 C4         -2.4324   -1.3951    0.0000 C.ar      1 ANTHRACENE    0.0000 
      5 C5         -1.2165   -0.7003    0.0000 C.ar      1 ANTHRACENE    0.0000 
      6 C6         -1.2165    0.7003    0.0000 C.ar      1 ANTHRACENE    0.0000 
      7 C7          0.0000   -1.3927    0.0000 C.ar      1 ANTHRACENE    0.0000 
      8 C8          1.2165   -0.7003    0.0000 C.ar      1 ANTHRACENE   -0.0000 
      9 C9          1.2165    0.7003    0.0000 C.ar      1 ANTHRACENE   -0.0000 
     10 C10         0.0000    1.3927    0.0000 C.ar      1 ANTHRACENE   -0.0000 
     11 C11         2.4324   -1.3951    0.0000 C.ar      1 ANTHRACENE   -0.0000 
     12 C12         3.6437   -0.6984    0.0000 C.ar      1 ANTHRACENE   -0.0000 
     13 C13         3.6437    0.6984    0.0000 C.ar      1 ANTHRACENE   -0.0000 
     14 C14         2.4324    1.3951    0.0000 C.ar      1 ANTHRACENE   -0.0000 
     15 H1         -2.4478    2.4808    0.0000 H.spc     1 ANTHRACENE   -1.0000 
     16 H2         -4.5839    1.2415    0.0000 H.spc     1 ANTHRACENE   -1.0000 
     17 H3         -4.5839   -1.2415    0.0000 H.spc     1 ANTHRACENE   -1.0000 
     18 H4         -2.4478   -2.4808    0.0000 H.spc     1 ANTHRACENE   -1.0000 
     19 H5          0.0000   -2.4785    0.0000 H.spc     1 ANTHRACENE   -1.0000 
     20 H6          0.0000    2.4785    0.0000 H.spc     1 ANTHRACENE   -1.0000 
     21 H7          2.4478   -2.4808    0.0000 H.spc     1 ANTHRACENE   -1.0000 
     22 H8          4.5839   -1.2415    0.0000 H.spc     1 ANTHRACENE   -1.0000 
     23 H9          4.5839    1.2415    0.0000 H.spc     1 ANTHRACENE   -1.0000 
     24 H10         2.4478    2.4808    0.0000 H.spc     1 ANTHRACENE   -1.0000 
@<TRIPOS>BOND
     1    1    2 ar   
     2    1    6 ar   
     3    2    3 ar   
     4    3    4 ar   
     5    4    5 ar   
     6    5    6 ar   
     7    5    7 ar   
     8    6   10 ar   
     9    7    8 ar   
    10    8    9 ar   
    11    8   11 ar   
    12    9   10 ar   
    13    9   14 ar   
    14   11   12 ar   
    15   12   13 ar   
    16   13   14 ar   
    17    1   15 1    
    18    2   16 1    
    19    3   17 1    
    20    4   18 1    
    21    7   19 1    
    22   10   20 1    
    23   11   21 1    
    24   12   22 1    
    25   13   23 1    
    26   14   24 1    
@<TRIPOS>SUBSTRUCTURE
     1 ANTHRACENE     1 PERM              0 ****  ****    0 ROOT 
@<TRIPOS>NORMAL
@<TRIPOS>FF_PBC
FORCE_FIELD_SETUP_FEATURE Force Field Setup information
v1.0  0 0.000000 0.000000 0.000000 0.000000 0.000000 0.000000 NONE 2 0 0 0 0 0 0 0 0 0 0 0 0
