# Name:          seed_class_4_299_31/38664
# Creation time: Fri May 21 00:57:17 2010


@<TRIPOS>MOLECULE
seed_class_4_299_31/38664
   20    21     1     1     1
SMALL
USER_CHARGES


@<TRIPOS>ATOM
      1 H           3.1219   -0.9111    1.6548 H.spc      1 <1>        0.000
      2 C           4.4105   -0.5858    1.3221 C.ar       1 <1>        0.000
      3 C           5.4798   -1.1582    2.0213 C.ar       1 <1>        0.000
      4 C           6.7966   -0.8258    1.6813 C.ar       1 <1>        0.000
      5 C           7.0440    0.0791    0.6421 C.ar       1 <1>        0.000
      6 C           5.9747    0.6516   -0.0571 C.ar       1 <1>        0.000
      7 C           4.6579    0.3191    0.2829 C.ar       1 <1>        0.000
      8 C           8.4606    0.4441    0.2678 C.3        1 <1>        0.000
      9 C           9.5714   -0.2342    1.0909 C.3        1 <1>        0.000
     10 C           9.1345   -1.1864    2.1784 C.2        1 <1>        0.000
     11 N           7.8477   -1.4271    2.4132 N.am       1 <1>        0.000
     12 O           9.9869   -1.7515    2.8617 O.2        1 <1>        0.000
     13 H           5.2871   -1.8627    2.8304 H.spc      1 <1>        0.000
     14 H           6.1674    1.3562   -0.8661 H.spc      1 <1>        0.000
     15 H           3.8253    0.7648   -0.2615 H.spc      1 <1>        0.000
     16 H           8.5582    1.5151    0.4454 H.spc      1 <1>        0.000
     17 H           8.5993    0.1167   -0.7626 H.spc      1 <1>        0.000
     18 H          10.1015    0.5726    1.5971 H.spc      1 <1>        0.000
     19 H          10.1429   -0.8337    0.3823 H.spc      1 <1>        0.000
     20 H           7.6060   -2.0790    3.1596 H.spc      1 <1>        0.000
@<TRIPOS>BOND
     1    1    2 1  
     2    2    3 ar 
     3    3    4 ar 
     4    4    5 ar 
     5    5    6 ar 
     6    6    7 ar 
     7    7    2 ar 
     8    5    8 1  
     9    8    9 1  
    10    9   10 1  
    11   10   11 am 
    12   11    4 1  
    13   10   12 2  
    14    3   13 1  
    15    6   14 1  
    16    7   15 1  
    17    8   16 1  
    18    8   17 1  
    19    9   18 1  
    20    9   19 1  
    21   11   20 1  
