#	Name:			morpholine
#	Creating user name:	becker
#	Creation time:		Thu Dec 19 02:54:56 2002

#	Modifying user name:	zmliu
#	Modification time:	Thu Mar 11 21:00:33 2004

@<TRIPOS>MOLECULE
morpholine
   15    15     1     1     0
SMALL
GAST_HUCK


@<TRIPOS>ATOM
      1 O1          0.0002    1.4365    0.6080 O.3       1 MORPHOLINE   -0.3507 
      2 C1          1.1948    0.9278   -0.0131 C.3       1 MORPHOLINE    0.1610 
      3 C2          1.2279   -0.6169    0.0822 C.3       1 MORPHOLINE    0.1208 
      4 N1          0.0005   -1.1631   -0.5332 N.3       1 MORPHOLINE   -0.2128 
      5 C3         -1.2277   -0.6173    0.0811 C.3       1 MORPHOLINE    0.1208 
      6 C4         -1.1949    0.9275   -0.0121 C.3       1 MORPHOLINE    0.1610 
      7 H1          1.2418    1.2441   -1.0681 H.spc     1 MORPHOLINE   -1.0000 
      8 H2          2.0631    1.3550    0.5127 H.spc     1 MORPHOLINE   -1.0000 
      9 H3          2.1142   -1.0023   -0.4485 H.spc     1 MORPHOLINE   -1.0000 
     10 H4          1.2933   -0.9203    1.1408 H.spc     1 MORPHOLINE   -1.0000 
     11 H5          0.0006   -2.2465   -0.4868 H.spc     1 MORPHOLINE   -1.0000 
     12 H6         -2.1132   -1.0020   -0.4513 H.spc     1 MORPHOLINE   -1.0000 
     13 H7         -1.2946   -0.9221    1.1392 H.spc     1 MORPHOLINE   -1.0000 
     14 H8         -1.2434    1.2456   -1.0664 H.spc     1 MORPHOLINE   -1.0000 
     15 H9         -2.0627    1.3539    0.5154 H.spc     1 MORPHOLINE   -1.0000 
@<TRIPOS>BOND
     1    4    3 1    
     2    3    2 1    
     3    2    1 1    
     4    1    6 1    
     5    6    5 1    
     6    5    4 1    
     7    2    7 1    
     8    2    8 1    
     9    3    9 1    
    10    3   10 1    
    11    4   11 1    
    12    5   12 1    
    13    5   13 1    
    14    6   14 1    
    15    6   15 1    
@<TRIPOS>SUBSTRUCTURE
     1 MORPHOLINE     4 PERM              0 ****  ****    0 ROOT 
@<TRIPOS>NORMAL
@<TRIPOS>FF_PBC
FORCE_FIELD_SETUP_FEATURE Force Field Setup information
v1.0  0 0.000000 0.000000 0.000000 0.000000 0.000000 0.000000 NONE 2 0 0 0 0 0 0 0 0 0 0 0 0
