#	Name:			pyrrolidine
#	Creating user name:	becker
#	Creation time:		Thu Dec 19 02:55:02 2002

#	Modifying user name:	zmliu
#	Modification time:	Thu Mar 11 21:27:38 2004

@<TRIPOS>MOLECULE
pyrrolidine
   14    14     1     1     0
SMALL
GAST_HUCK


@<TRIPOS>ATOM
      1 N1         -0.0818    1.3398    0.3005 N.3       1 PYRROLIDINE   -0.2180 
      2 C1          1.1601    0.5999   -0.0209 C.3       1 PYRROLIDINE    0.0887 
      3 C2          0.7962   -0.8859    0.1949 C.3       1 PYRROLIDINE    0.0203 
      4 C3         -0.6514   -0.9181   -0.3324 C.3       1 PYRROLIDINE    0.0203 
      5 C4         -1.2234    0.3982    0.2431 C.3       1 PYRROLIDINE    0.0887 
      6 H1         -0.2241    2.1813   -0.3682 H.spc     1 PYRROLIDINE   -1.0000 
      7 H2          1.9906    0.9188    0.6284 H.spc     1 PYRROLIDINE   -1.0000 
      8 H3          1.4520    0.7530   -1.0748 H.spc     1 PYRROLIDINE   -1.0000 
      9 H4          0.8025   -1.1202    1.2727 H.spc     1 PYRROLIDINE   -1.0000 
     10 H5          1.4685   -1.5833   -0.3313 H.spc     1 PYRROLIDINE   -1.0000 
     11 H6         -1.2112   -1.8134   -0.0155 H.spc     1 PYRROLIDINE   -1.0000 
     12 H7         -0.6421   -0.8698   -1.4344 H.spc     1 PYRROLIDINE   -1.0000 
     13 H8         -2.0832    0.7627   -0.3443 H.spc     1 PYRROLIDINE   -1.0000 
     14 H9         -1.5525    0.2368    1.2821 H.spc     1 PYRROLIDINE   -1.0000 
@<TRIPOS>BOND
     1    1    2 1    
     2    1    5 1    
     3    2    3 1    
     4    3    4 1    
     5    4    5 1    
     6    1    6 1    
     7    2    7 1    
     8    2    8 1    
     9    3    9 1    
    10    3   10 1    
    11    4   11 1    
    12    4   12 1    
    13    5   13 1    
    14    5   14 1    
@<TRIPOS>SUBSTRUCTURE
     1 PYRROLIDINE     1 PERM              0 ****  ****    0 ROOT 
@<TRIPOS>NORMAL
@<TRIPOS>FF_PBC
FORCE_FIELD_SETUP_FEATURE Force Field Setup information
v1.0  0 0.000000 0.000000 0.000000 0.000000 0.000000 0.000000 NONE 2 0 0 0 0 0 0 0 0 0 0 0 0
