# Name:          seed_class_4_232_63/38664
# Creation time: Fri May 21 00:57:16 2010


@<TRIPOS>MOLECULE
seed_class_4_232_63/38664
   29    30     1     1     1
SMALL
USER_CHARGES


@<TRIPOS>ATOM
      1 H           0.5515    1.1185   -0.5629 H.spc      1 <1>        0.000
      2 C           1.6530    0.2436    0.0338 C.3        1 <1>        0.000
      3 C           2.8472    1.1213    0.4536 C.3        1 <1>        0.000
      4 C           2.4347    2.1606    1.5126 C.3        1 <1>        0.000
      5 C           3.6330    3.0215    1.9535 C.3        1 <1>        0.000
      6 C           4.8023    2.1490    2.4463 C.3        1 <1>        0.000
      7 C           5.2148    1.1097    1.3874 C.3        1 <1>        0.000
      8 C           4.0165    0.2488    0.9465 C.3        1 <1>        0.000
      9 C           4.4260   -0.7889   -0.1149 C.3        1 <1>        0.000
     10 C           3.2298   -1.6633   -0.5345 C.3        1 <1>        0.000
     11 C           2.0308   -0.8424   -0.9451 C.2        1 <1>        0.000
     12 C           1.3580   -1.0595   -2.0834 C.2        1 <1>        0.000
     13 H           6.3226    0.2166    1.9386 H.spc      1 <1>        0.000
     14 H           5.8172    1.8055    0.1902 H.spc      1 <1>        0.000
     15 H           3.2705    1.9140   -0.7797 H.spc      1 <1>        0.000
     16 H           1.2948   -0.2541    0.9349 H.spc      1 <1>        0.000
     17 H           2.0497    1.6317    2.3844 H.spc      1 <1>        0.000
     18 H           1.6796    2.8158    1.0782 H.spc      1 <1>        0.000
     19 H           3.3131    3.6656    2.7726 H.spc      1 <1>        0.000
     20 H           3.9734    3.6044    1.0976 H.spc      1 <1>        0.000
     21 H           4.4841    1.6198    3.3445 H.spc      1 <1>        0.000
     22 H           5.6562    2.7963    2.6464 H.spc      1 <1>        0.000
     23 H           3.6712   -0.2990    1.8233 H.spc      1 <1>        0.000
     24 H           5.1950   -1.4342    0.3097 H.spc      1 <1>        0.000
     25 H           4.7935   -0.2593   -0.9939 H.spc      1 <1>        0.000
     26 H           2.9426   -2.2741    0.3214 H.spc      1 <1>        0.000
     27 H           3.5359   -2.2640   -1.3910 H.spc      1 <1>        0.000
     28 H           1.6706   -1.8568   -2.7577 H.spc      1 <1>        0.000
     29 H           0.4981   -0.4388   -2.3351 H.spc      1 <1>        0.000
@<TRIPOS>BOND
     1    2    1 1  
     2    2    3 1  
     3    3    4 1  
     4    4    5 1  
     5    5    6 1  
     6    6    7 1  
     7    7    8 1  
     8    8    3 1  
     9    8    9 1  
    10    9   10 1  
    11   10   11 1  
    12   11    2 1  
    13   11   12 2  
    14    7   13 1  
    15    7   14 1  
    16    3   15 1  
    17    2   16 1  
    18    4   17 1  
    19    4   18 1  
    20    5   19 1  
    21    5   20 1  
    22    6   21 1  
    23    6   22 1  
    24    8   23 1  
    25    9   24 1  
    26    9   25 1  
    27   10   26 1  
    28   10   27 1  
    29   12   28 1  
    30   12   29 1  
