# Name:          seed_class_2_31_407/95646
# Creation time: Fri May 21 00:57:13 2010


@<TRIPOS>MOLECULE
seed_class_2_31_407/95646
    9     9     1     1     1
SMALL
USER_CHARGES


@<TRIPOS>ATOM
      1 H          -0.6367    0.5925   -0.5144 H.spc      1 <1>        0.000
      2 C          -2.0532    0.3940   -0.1343 C.ar       1 <1>        0.000
      3 O          -2.5200   -0.5365    0.7913 O.3        1 <1>        0.000
      4 C          -3.9054   -0.4172    0.8731 C.ar       1 <1>        0.000
      5 C          -4.3075    0.5484    0.0355 C.ar       1 <1>        0.000
      6 C          -3.0944    1.0802   -0.6248 C.ar       1 <1>        0.000
      7 H          -4.8070   -1.2414    1.7608 H.spc      1 <1>        0.000
      8 H          -5.3331    0.8793   -0.1284 H.spc      1 <1>        0.000
      9 H          -3.0554    1.8771   -1.3675 H.spc      1 <1>        0.000
@<TRIPOS>BOND
     1    1    2 1  
     2    2    3 ar 
     3    3    4 ar 
     4    4    5 ar 
     5    5    6 ar 
     6    6    2 ar 
     7    4    7 1  
     8    5    8 1  
     9    6    9 1  
