# Name:          seed_class_5_523_25/34898
# Creation time: Fri May 21 00:57:20 2010


@<TRIPOS>MOLECULE
seed_class_5_523_25/34898
   14    14     1     1     1
SMALL
USER_CHARGES


@<TRIPOS>ATOM
      1 S           5.1260    1.5401   -0.4181 S.3        1 <1>        0.000
      2 H           3.3940    1.0776   -0.1039 H.spc      1 <1>        0.000
      3 C           6.0051    0.1400   -1.0504 C.ar       1 <1>        0.000
      4 C           6.0960   -0.0636   -2.4326 C.ar       1 <1>        0.000
      5 C           6.7913   -1.1710   -2.9327 C.ar       1 <1>        0.000
      6 C           7.3958   -2.0748   -2.0508 C.ar       1 <1>        0.000
      7 C           7.3049   -1.8711   -0.6687 C.ar       1 <1>        0.000
      8 C           6.6096   -0.7637   -0.1685 C.ar       1 <1>        0.000
      9 O           8.0763   -3.1584   -2.5402 O.3        1 <1>        0.000
     10 H           5.6254    0.6401   -3.1193 H.spc      1 <1>        0.000
     11 H           6.8620   -1.3296   -4.0088 H.spc      1 <1>        0.000
     12 H           7.7755   -2.5747    0.0180 H.spc      1 <1>        0.000
     13 H           6.5389   -0.6051    0.9076 H.spc      1 <1>        0.000
     14 H           8.4264   -3.6721   -1.8087 H.spc      1 <1>        0.000
@<TRIPOS>BOND
     1    1    2 1  
     2    1    3 1  
     3    3    4 ar 
     4    4    5 ar 
     5    5    6 ar 
     6    6    7 ar 
     7    7    8 ar 
     8    8    3 ar 
     9    6    9 1  
    10    4   10 1  
    11    5   11 1  
    12    7   12 1  
    13    8   13 1  
    14    9   14 1  
