# Name:          seed_class_3_85_410/26467
# Creation time: Fri May 21 00:57:14 2010


@<TRIPOS>MOLECULE
seed_class_3_85_410/26467
   10     9     1     1     1
SMALL
USER_CHARGES


@<TRIPOS>ATOM
      1 H          -1.5180   -0.9046    2.2683 H.spc      1 <1>        0.000
      2 C          -0.3056   -0.0325    2.4911 C.2        1 <1>        0.000
      3 C          -0.1088    1.0495    1.7256 C.2        1 <1>        0.000
      4 C           1.0796    1.9043    1.9440 C.2        1 <1>        0.000
      5 C           1.2562    3.0077    1.2046 C.2        1 <1>        0.000
      6 H           2.4445    3.8625    1.4230 H.spc      1 <1>        0.000
      7 H           0.4095   -0.2831    3.2746 H.spc      1 <1>        0.000
      8 H          -0.8239    1.3002    0.9421 H.spc      1 <1>        0.000
      9 H           1.8111    1.6362    2.7063 H.spc      1 <1>        0.000
     10 H           0.5247    3.2758    0.4423 H.spc      1 <1>        0.000
@<TRIPOS>BOND
     1    1    2 1  
     2    2    3 2  
     3    3    4 1  
     4    4    5 2  
     5    5    6 1  
     6    2    7 1  
     7    3    8 1  
     8    4    9 1  
     9    5   10 1  
