# Name:          seed_class_4_330_25/38664
# Creation time: Fri May 21 00:57:17 2010


@<TRIPOS>MOLECULE
seed_class_4_330_25/38664
   24    26     1     1     1
SMALL
USER_CHARGES


@<TRIPOS>ATOM
      1 H           8.6972    1.3559    1.6557 H.spc      1 <1>        0.000
      2 C           8.6838   -0.1182    1.2534 C.3        1 <1>        0.000
      3 C           7.5113   -0.8743    1.9055 C.3        1 <1>        0.000
      4 N           8.1231   -1.9509    2.6976 N.am       1 <1>        0.000
      5 C           9.5308   -1.8915    2.5678 C.ar       1 <1>        0.000
      6 C           9.9217   -0.8376    1.7332 C.ar       1 <1>        0.000
      7 C          11.2799   -0.6128    1.4790 C.ar       1 <1>        0.000
      8 C          12.2473   -1.4418    2.0593 C.ar       1 <1>        0.000
      9 N          13.5108   -0.9758    1.6251 N.pl3      1 <1>        0.000
     10 C          13.3348    0.0978    0.8092 C.ar       1 <1>        0.000
     11 C          12.0309    0.3757    0.6732 C.ar       1 <1>        0.000
     12 H          11.4368    1.4927   -0.1511 H.spc      1 <1>        0.000
     13 C          11.8565   -2.4957    2.8939 C.ar       1 <1>        0.000
     14 C          10.4982   -2.7206    3.1482 C.ar       1 <1>        0.000
     15 H          12.8031   -3.3070    3.4618 H.spc      1 <1>        0.000
     16 C           7.4558   -2.8430    3.4242 C.2        1 <1>        0.000
     17 O           8.0656   -3.7247    4.0273 O.2        1 <1>        0.000
     18 H           5.9797   -2.7748    3.5070 H.spc      1 <1>        0.000
     19 H           8.6110   -0.1153    0.1658 H.spc      1 <1>        0.000
     20 H           6.8284   -1.2721    1.1548 H.spc      1 <1>        0.000
     21 H           6.9107   -0.2133    2.5304 H.spc      1 <1>        0.000
     22 H          14.4107   -1.3808    1.8831 H.spc      1 <1>        0.000
     23 H          14.1416    0.6545    0.3324 H.spc      1 <1>        0.000
     24 H          10.1939   -3.5411    3.7980 H.spc      1 <1>        0.000
@<TRIPOS>BOND
     1    2    1 1  
     2    2    3 1  
     3    3    4 1  
     4    4    5 1  
     5    5    6 ar 
     6    6    2 1  
     7    6    7 ar 
     8    7    8 ar 
     9    8    9 ar 
    10    9   10 ar 
    11   10   11 ar 
    12   11    7 ar 
    13   11   12 1  
    14    8   13 ar 
    15   13   14 ar 
    16   14    5 ar 
    17   13   15 1  
    18    4   16 am 
    19   16   17 2  
    20   16   18 1  
    21    2   19 1  
    22    3   20 1  
    23    3   21 1  
    24    9   22 1  
    25   10   23 1  
    26   14   24 1  
