# Name:          seed_class_5_509_27/34898
# Creation time: Fri May 21 00:57:19 2010


@<TRIPOS>MOLECULE
seed_class_5_509_27/34898
   19    19     1     1     1
SMALL
USER_CHARGES


@<TRIPOS>ATOM
      1 H          -3.3538   -1.8227    1.2239 H.spc      1 <1>        0.000
      2 C          -4.5054   -2.1204    2.1829 C.3        1 <1>        0.000
      3 C          -5.8356   -2.1548    1.4067 C.3        1 <1>        0.000
      4 C          -7.0209   -2.3337    2.3728 C.3        1 <1>        0.000
      5 C          -7.0299   -1.2424    3.4595 C.3        1 <1>        0.000
      6 C          -5.6976   -1.2093    4.2312 C.3        1 <1>        0.000
      7 C          -4.5023   -1.1188    3.3130 C.2        1 <1>        0.000
      8 C          -3.5201   -0.2240    3.4865 C.2        1 <1>        0.000
      9 H          -5.8162   -3.2915    0.3888 H.spc      1 <1>        0.000
     10 H          -6.0054   -0.8671    0.6056 H.spc      1 <1>        0.000
     11 H          -4.3786   -3.1045    2.6340 H.spc      1 <1>        0.000
     12 H          -6.9280   -3.3051    2.8585 H.spc      1 <1>        0.000
     13 H          -7.9467   -2.2614    1.8020 H.spc      1 <1>        0.000
     14 H          -7.8330   -1.4606    4.1634 H.spc      1 <1>        0.000
     15 H          -7.1761   -0.2753    2.9785 H.spc      1 <1>        0.000
     16 H          -5.6153   -2.1345    4.8016 H.spc      1 <1>        0.000
     17 H          -5.6998   -0.3260    4.8698 H.spc      1 <1>        0.000
     18 H          -3.5638    0.4787    4.3186 H.spc      1 <1>        0.000
     19 H          -2.6775   -0.1988    2.7955 H.spc      1 <1>        0.000
@<TRIPOS>BOND
     1    1    2 1  
     2    2    3 1  
     3    3    4 1  
     4    4    5 1  
     5    5    6 1  
     6    6    7 1  
     7    7    2 1  
     8    7    8 2  
     9    3    9 1  
    10    3   10 1  
    11    2   11 1  
    12    4   12 1  
    13    4   13 1  
    14    5   14 1  
    15    5   15 1  
    16    6   16 1  
    17    6   17 1  
    18    8   18 1  
    19    8   19 1  
