# Name:          seed_class_5_374_2347/34898
# Creation time: Fri May 21 00:57:18 2010


@<TRIPOS>MOLECULE
seed_class_5_374_2347/34898
   13    13     1     1     1
SMALL
USER_CHARGES


@<TRIPOS>ATOM
      1 H          -0.0736   -0.1456   -0.2145 H.spc      1 <1>        0.000
      2 C           1.2081    0.5401   -0.6234 C.ar       1 <1>        0.000
      3 C           1.9221    1.3027    0.3086 C.ar       1 <1>        0.000
      4 C           3.1104    1.9385   -0.0704 C.ar       1 <1>        0.000
      5 C           3.5848    1.8117   -1.3815 C.ar       1 <1>        0.000
      6 C           2.8708    1.0490   -2.3135 C.ar       1 <1>        0.000
      7 C           1.6825    0.4133   -1.9344 C.ar       1 <1>        0.000
      8 O           4.7476    2.4338   -1.7524 O.3        1 <1>        0.000
      9 H           3.8805    2.7610    0.9348 H.spc      1 <1>        0.000
     10 H           1.5528    1.4014    1.3294 H.spc      1 <1>        0.000
     11 H           3.2401    0.9502   -3.3343 H.spc      1 <1>        0.000
     12 H           1.1266   -0.1804   -2.6600 H.spc      1 <1>        0.000
     13 H           4.9288    2.2465   -2.6764 H.spc      1 <1>        0.000
@<TRIPOS>BOND
     1    1    2 1  
     2    2    3 ar 
     3    3    4 ar 
     4    4    5 ar 
     5    5    6 ar 
     6    6    7 ar 
     7    7    2 ar 
     8    5    8 1  
     9    4    9 1  
    10    3   10 1  
    11    6   11 1  
    12    7   12 1  
    13    8   13 1  
