#	Name:			1H-indazole
#	Creating user name:	becker
#	Creation time:		Thu Dec 19 02:54:38 2002

#	Modifying user name:	zmliu
#	Modification time:	Thu Mar 11 17:15:38 2004

@<TRIPOS>MOLECULE
1H-indazole
   15    16     1     1     0
SMALL
GAST_HUCK


@<TRIPOS>ATOM
      1 N1          1.7583    1.2169    0.1915 N.pl3     1 INDAZOLE   -0.0512 
      2 N2          2.6307    0.1767    0.1676 N.2       1 INDAZOLE   -0.1629 
      3 C1          2.0252   -0.9425    0.0848 C.2       1 INDAZOLE    0.0787 
      4 C2         -0.6060   -1.4463   -0.0414 C.ar      1 INDAZOLE   -0.0144 
      5 C3         -1.8290   -0.7628   -0.0484 C.ar      1 INDAZOLE   -0.0176 
      6 C4         -1.8771    0.6386    0.0278 C.ar      1 INDAZOLE   -0.0149 
      7 C5         -0.7059    1.4038    0.1130 C.ar      1 INDAZOLE    0.0177 
      8 C6          0.5068    0.7146    0.1188 C.ar      1 INDAZOLE    0.1356 
      9 C7          0.5459   -0.6665    0.0446 C.ar      1 INDAZOLE    0.0291 
     10 H1          2.0104    2.2141    0.2531 H.spc     1 INDAZOLE   -1.0000 
     11 H2          2.4950   -1.9242    0.0495 H.spc     1 INDAZOLE   -1.0000 
     12 H3         -0.5514   -2.5280   -0.0997 H.spc     1 INDAZOLE   -1.0000 
     13 H4         -2.7539   -1.3274   -0.1140 H.spc     1 INDAZOLE   -1.0000 
     14 H5         -2.8397    1.1405    0.0208 H.spc     1 INDAZOLE   -1.0000 
     15 H6         -0.7368    2.4866    0.1721 H.spc     1 INDAZOLE   -1.0000 
@<TRIPOS>BOND
     1    2    1 1    
     2    1    8 1    
     3    3    2 2    
     4    9    3 1    
     5    4    5 ar   
     6    4    9 ar   
     7    5    6 ar   
     8    6    7 ar   
     9    7    8 ar   
    10    8    9 ar   
    11    1   10 1    
    12    3   11 1    
    13    4   12 1    
    14    5   13 1    
    15    6   14 1    
    16    7   15 1    
@<TRIPOS>SUBSTRUCTURE
     1 INDAZOLE     4 PERM              0 ****  ****    0 ROOT 
@<TRIPOS>NORMAL
@<TRIPOS>FF_PBC
FORCE_FIELD_SETUP_FEATURE Force Field Setup information
v1.0  0 0.000000 0.000000 0.000000 0.000000 0.000000 0.000000 NONE 2 0 0 0 0 0 0 0 0 0 0 0 0
