# Name:          seed_class_4_365_20/38664
# Creation time: Fri May 21 00:57:18 2010


@<TRIPOS>MOLECULE
seed_class_4_365_20/38664
   17    18     1     1     1
SMALL
USER_CHARGES


@<TRIPOS>ATOM
      1 H          -0.5229    0.7395    0.2543 H.spc      1 <1>        0.000
      2 C           0.8774    1.2857    0.3988 C.3        1 <1>        0.000
      3 C           1.8030    0.2014    0.8966 C.2        1 <1>        0.000
      4 C           2.8364   -0.0014   -0.1432 C.ar       1 <1>        0.000
      5 C           2.6084    0.8667   -1.2177 C.ar       1 <1>        0.000
      6 C           3.4663    0.8517   -2.3239 C.ar       1 <1>        0.000
      7 C           4.5522   -0.0314   -2.3557 C.ar       1 <1>        0.000
      8 C           4.7802   -0.8995   -1.2813 C.ar       1 <1>        0.000
      9 C           3.9223   -0.8845   -0.1750 C.ar       1 <1>        0.000
     10 C           1.4111    1.6954   -0.9530 C.2        1 <1>        0.000
     11 O           0.9395    2.5559   -1.6946 O.2        1 <1>        0.000
     12 O           1.7147   -0.4003    1.9658 O.2        1 <1>        0.000
     13 H           0.8367    2.1288    1.0884 H.spc      1 <1>        0.000
     14 H           3.2888    1.5276   -3.1604 H.spc      1 <1>        0.000
     15 H           5.2201   -0.0431   -3.2170 H.spc      1 <1>        0.000
     16 H           5.6256   -1.5871   -1.3061 H.spc      1 <1>        0.000
     17 H           4.0998   -1.5604    0.6615 H.spc      1 <1>        0.000
@<TRIPOS>BOND
     1    1    2 1  
     2    2    3 1  
     3    3    4 1  
     4    4    5 ar 
     5    5    6 ar 
     6    6    7 ar 
     7    7    8 ar 
     8    8    9 ar 
     9    9    4 ar 
    10    5   10 1  
    11   10    2 1  
    12   10   11 2  
    13    3   12 2  
    14    2   13 1  
    15    6   14 1  
    16    7   15 1  
    17    8   16 1  
    18    9   17 1  
