# Name:          seed_class_5_451_43/34898
# Creation time: Fri May 21 00:57:19 2010


@<TRIPOS>MOLECULE
seed_class_5_451_43/34898
   15    15     1     1     1
SMALL
USER_CHARGES


@<TRIPOS>ATOM
      1 H           7.3208    3.8469    3.4842 H.spc      1 <1>        0.000
      2 N           8.7542    3.8439    3.8101 N.am       1 <1>        0.000
      3 C           9.3582    4.9750    4.1634 C.2        1 <1>        0.000
      4 O           8.7174    6.0235    4.2174 O.2        1 <1>        0.000
      5 C          10.8013    4.9720    4.4915 C.ar       1 <1>        0.000
      6 C          11.5401    3.7843    4.4332 C.ar       1 <1>        0.000
      7 N          12.8468    3.7800    4.7299 N.ar       1 <1>        0.000
      8 C          13.4918    4.8980    5.0901 C.ar       1 <1>        0.000
      9 C          12.8130    6.1199    5.1685 C.ar       1 <1>        0.000
     10 C          11.4470    6.1570    4.8645 C.ar       1 <1>        0.000
     11 H           9.2856    2.9744    3.7653 H.spc      1 <1>        0.000
     12 H          11.0484    2.8555    4.1441 H.spc      1 <1>        0.000
     13 H          14.5555    4.8556    5.3244 H.spc      1 <1>        0.000
     14 H          13.3398    7.0280    5.4616 H.spc      1 <1>        0.000
     15 H          10.8941    7.0949    4.9174 H.spc      1 <1>        0.000
@<TRIPOS>BOND
     1    1    2 1  
     2    2    3 am 
     3    3    4 2  
     4    3    5 1  
     5    5    6 ar 
     6    6    7 ar 
     7    7    8 ar 
     8    8    9 ar 
     9    9   10 ar 
    10   10    5 ar 
    11    2   11 1  
    12    6   12 1  
    13    8   13 1  
    14    9   14 1  
    15   10   15 1  
