# Name:          seed_class_5_396_135/34898
# Creation time: Fri May 21 00:57:18 2010


@<TRIPOS>MOLECULE
seed_class_5_396_135/34898
   12    12     1     1     1
SMALL
USER_CHARGES


@<TRIPOS>ATOM
      1 O           4.7237    2.9634   -1.4768 O.3        1 <1>        0.000
      2 C           5.2859    1.8960   -0.7090 C.3        1 <1>        0.000
      3 C           4.1289    0.9983   -0.2323 C.3        1 <1>        0.000
      4 C           3.0247    1.3891   -1.2320 C.3        1 <1>        0.000
      5 C           3.4353    2.7257   -1.8022 C.2        1 <1>        0.000
      6 O           2.7190    3.4699   -2.4514 O.2        1 <1>        0.000
      7 H           1.7035    1.5210   -0.5129 H.spc      1 <1>        0.000
      8 H           4.4777   -0.4879   -0.2997 H.spc      1 <1>        0.000
      9 H           5.8338    2.2926    0.1457 H.spc      1 <1>        0.000
     10 H           5.9854    1.3211   -1.3159 H.spc      1 <1>        0.000
     11 H           3.8552    1.1400    0.8132 H.spc      1 <1>        0.000
     12 H           2.9056    0.6383   -2.0132 H.spc      1 <1>        0.000
@<TRIPOS>BOND
     1    1    2 1  
     2    2    3 1  
     3    3    4 1  
     4    4    5 1  
     5    5    1 1  
     6    5    6 2  
     7    4    7 1  
     8    3    8 1  
     9    2    9 1  
    10    2   10 1  
    11    3   11 1  
    12    4   12 1  
