# Name:          seed_class_4_289_33/38664
# Creation time: Fri May 21 00:57:16 2010


@<TRIPOS>MOLECULE
seed_class_4_289_33/38664
   17    17     1     1     1
SMALL
USER_CHARGES


@<TRIPOS>ATOM
      1 N          -0.3794    3.9947    0.4177 N.am       1 <1>        0.000
      2 C           0.1954    4.2284    1.7503 C.3        1 <1>        0.000
      3 C          -0.1945    5.5972    2.3386 C.3        1 <1>        0.000
      4 O          -1.6110    5.7842    2.2793 O.3        1 <1>        0.000
      5 C          -2.0972    5.7310    0.9355 C.3        1 <1>        0.000
      6 C          -1.7945    4.3691    0.2834 C.3        1 <1>        0.000
      7 C           0.3259    3.4844   -0.5879 C.2        1 <1>        0.000
      8 O          -0.1727    3.4024   -1.7093 O.2        1 <1>        0.000
      9 H           1.7386    3.0059   -0.3529 H.spc      1 <1>        0.000
     10 H           1.2809    4.2041    1.6539 H.spc      1 <1>        0.000
     11 H          -0.1879    3.4572    2.4184 H.spc      1 <1>        0.000
     12 H           0.2904    6.3824    1.7587 H.spc      1 <1>        0.000
     13 H           0.1243    5.6382    3.3801 H.spc      1 <1>        0.000
     14 H          -1.6017    6.5103    0.3565 H.spc      1 <1>        0.000
     15 H          -3.1775    5.8751    0.9518 H.spc      1 <1>        0.000
     16 H          -2.0280    4.4411   -0.7789 H.spc      1 <1>        0.000
     17 H          -2.3961    3.6108    0.7845 H.spc      1 <1>        0.000
@<TRIPOS>BOND
     1    1    2 1  
     2    2    3 1  
     3    3    4 1  
     4    4    5 1  
     5    5    6 1  
     6    6    1 1  
     7    1    7 am 
     8    7    8 2  
     9    9    7 1  
    10    2   10 1  
    11    2   11 1  
    12    3   12 1  
    13    3   13 1  
    14    5   14 1  
    15    5   15 1  
    16    6   16 1  
    17    6   17 1  
