# Name:          seed_class_4_339_24/38664
# Creation time: Fri May 21 00:57:17 2010


@<TRIPOS>MOLECULE
seed_class_4_339_24/38664
   24    25     1     1     1
SMALL
USER_CHARGES


@<TRIPOS>ATOM
      1 H           4.6501    1.1916    1.5821 H.spc      1 <1>        0.000
      2 C           5.7562    2.0622    1.3298 C.3        1 <1>        0.000
      3 C           6.7155    2.0235    2.5339 C.3        1 <1>        0.000
      4 C           7.0423    0.5637    2.8995 C.3        1 <1>        0.000
      5 C           8.0345    0.5276    4.0767 C.3        1 <1>        0.000
      6 C           7.6718    1.4633    5.2050 C.2        1 <1>        0.000
      7 C           6.8390    2.4977    5.0260 C.2        1 <1>        0.000
      8 C           6.2111    2.8072    3.7220 C.2        1 <1>        0.000
      9 C           5.2102    3.6940    3.6370 C.2        1 <1>        0.000
     10 C           4.4897    3.9954    2.3447 C.3        1 <1>        0.000
     11 C           5.2320    3.4908    1.0933 C.3        1 <1>        0.000
     12 H           4.2491    5.4978    2.2286 H.spc      1 <1>        0.000
     13 H           8.1410   -0.8084    4.5752 H.spc      1 <1>        0.000
     14 H           9.4390    0.8495    3.5744 H.spc      1 <1>        0.000
     15 H           5.7631   -0.1803    3.2718 H.spc      1 <1>        0.000
     16 H           7.6315   -0.1484    1.7053 H.spc      1 <1>        0.000
     17 H           6.2982    1.7379    0.4414 H.spc      1 <1>        0.000
     18 H           7.6368    2.5230    2.2341 H.spc      1 <1>        0.000
     19 H           8.0995    1.2925    6.1929 H.spc      1 <1>        0.000
     20 H           6.6142    3.1392    5.8780 H.spc      1 <1>        0.000
     21 H           4.9026    4.2209    4.5403 H.spc      1 <1>        0.000
     22 H           3.5436    3.4556    2.3835 H.spc      1 <1>        0.000
     23 H           6.0740    4.1513    0.8859 H.spc      1 <1>        0.000
     24 H           4.5444    3.4843    0.2476 H.spc      1 <1>        0.000
@<TRIPOS>BOND
     1    2    1 1  
     2    2    3 1  
     3    3    4 1  
     4    4    5 1  
     5    5    6 1  
     6    6    7 2  
     7    7    8 1  
     8    8    3 1  
     9    8    9 2  
    10    9   10 1  
    11   10   11 1  
    12   11    2 1  
    13   10   12 1  
    14    5   13 1  
    15    5   14 1  
    16    4   15 1  
    17    4   16 1  
    18    2   17 1  
    19    3   18 1  
    20    6   19 1  
    21    7   20 1  
    22    9   21 1  
    23   10   22 1  
    24   11   23 1  
    25   11   24 1  
