# Name:          seed_class_2_56_63/95646
# Creation time: Fri May 21 00:57:14 2010


@<TRIPOS>MOLECULE
seed_class_2_56_63/95646
    9     9     1     1     1
SMALL
USER_CHARGES


@<TRIPOS>ATOM
      1 H           0.8730    0.6105    2.8474 H.spc      1 <1>        0.000
      2 C          -0.1619   -0.3336    2.6478 C.ar       1 <1>        0.000
      3 N          -1.2467   -0.3151    3.4343 N.ar       1 <1>        0.000
      4 C          -2.2267   -1.2091    3.2452 C.ar       1 <1>        0.000
      5 N          -2.1220   -2.1218    2.2696 N.ar       1 <1>        0.000
      6 C          -1.0373   -2.1404    1.4831 C.ar       1 <1>        0.000
      7 N          -0.0572   -1.2463    1.6722 N.ar       1 <1>        0.000
      8 H          -0.9267   -3.1041    0.4530 H.spc      1 <1>        0.000
      9 H          -3.3722   -1.1895    4.0757 H.spc      1 <1>        0.000
@<TRIPOS>BOND
     1    1    2 1  
     2    2    3 ar 
     3    3    4 ar 
     4    4    5 ar 
     5    5    6 ar 
     6    6    7 ar 
     7    7    2 ar 
     8    6    8 1  
     9    4    9 1  
