#	Name:			acridine
#	Creating user name:	becker
#	Creation time:		Thu Dec 19 02:54:40 2002

#	Modifying user name:	zmliu
#	Modification time:	Thu Mar 11 20:24:25 2004

@<TRIPOS>MOLECULE
acridine
   23    25     1     1     0
SMALL
GAST_HUCK


@<TRIPOS>ATOM
      1 C1          2.4423    1.2925   -0.0045 C.ar      1 ACRIDINE    0.0135 
      2 C2          3.6338    0.5613   -0.0025 C.ar      1 ACRIDINE    0.0091 
      3 C3          3.5985   -0.8359    0.0028 C.ar      1 ACRIDINE    0.0090 
      4 C4          2.3695   -1.5014    0.0041 C.ar      1 ACRIDINE    0.0156 
      5 C5          1.1780   -0.7709    0.0010 C.ar      1 ACRIDINE    0.0508 
      6 C6          1.2101    0.6283   -0.0013 C.ar      1 ACRIDINE    0.0330 
      7 N1          0.0000   -1.4280    0.0000 N.ar      1 ACRIDINE   -0.3019 
      8 C7         -1.1780   -0.7709   -0.0010 C.ar      1 ACRIDINE    0.0508 
      9 C8         -1.2101    0.6283    0.0013 C.ar      1 ACRIDINE    0.0330 
     10 C9          0.0000    1.3304    0.0000 C.ar      1 ACRIDINE    0.0400 
     11 C10        -2.3695   -1.5014   -0.0041 C.ar      1 ACRIDINE    0.0156 
     12 C11        -3.5985   -0.8359   -0.0028 C.ar      1 ACRIDINE    0.0090 
     13 C12        -3.6338    0.5613    0.0025 C.ar      1 ACRIDINE    0.0091 
     14 C13        -2.4423    1.2925    0.0045 C.ar      1 ACRIDINE    0.0135 
     15 H1          2.4832    2.3775   -0.0085 H.spc     1 ACRIDINE   -1.0000 
     16 H2          4.5882    1.0790   -0.0049 H.spc     1 ACRIDINE   -1.0000 
     17 H3          4.5240   -1.4034    0.0059 H.spc     1 ACRIDINE   -1.0000 
     18 H4          2.3390   -2.5863    0.0075 H.spc     1 ACRIDINE   -1.0000 
     19 H5          0.0000    2.4161    0.0000 H.spc     1 ACRIDINE   -1.0000 
     20 H6         -2.3390   -2.5863   -0.0075 H.spc     1 ACRIDINE   -1.0000 
     21 H7         -4.5240   -1.4034   -0.0059 H.spc     1 ACRIDINE   -1.0000 
     22 H8         -4.5882    1.0790    0.0049 H.spc     1 ACRIDINE   -1.0000 
     23 H9         -2.4832    2.3775    0.0085 H.spc     1 ACRIDINE   -1.0000 
@<TRIPOS>BOND
     1    1    2 ar   
     2    1    6 ar   
     3    2    3 ar   
     4    3    4 ar   
     5    4    5 ar   
     6    5    6 ar   
     7    5    7 ar   
     8    6   10 ar   
     9    7    8 ar   
    10    8    9 ar   
    11    8   11 ar   
    12    9   10 ar   
    13    9   14 ar   
    14   11   12 ar   
    15   12   13 ar   
    16   13   14 ar   
    17    1   15 1    
    18    2   16 1    
    19    3   17 1    
    20    4   18 1    
    21   10   19 1    
    22   11   20 1    
    23   12   21 1    
    24   13   22 1    
    25   14   23 1    
@<TRIPOS>SUBSTRUCTURE
     1 ACRIDINE     1 PERM              0 ****  ****    0 ROOT 
@<TRIPOS>NORMAL
@<TRIPOS>FF_PBC
FORCE_FIELD_SETUP_FEATURE Force Field Setup information
v1.0  0 0.000000 0.000000 0.000000 0.000000 0.000000 0.000000 NONE 2 0 0 0 0 0 0 0 0 0 0 0 0
