# Name:          seed_class_5_399_128/34898
# Creation time: Fri May 21 00:57:18 2010


@<TRIPOS>MOLECULE
seed_class_5_399_128/34898
   15    16     1     1     1
SMALL
USER_CHARGES


@<TRIPOS>ATOM
      1 N           4.0543   -0.0354    1.5003 N.pl3      1 <1>        0.000
      2 C           4.9965    0.8309    1.0408 C.ar       1 <1>        0.000
      3 N           4.5252    1.4413   -0.0305 N.ar       1 <1>        0.000
      4 C           3.2356    0.9510   -0.2686 C.ar       1 <1>        0.000
      5 C           2.9698    0.0466    0.6838 C.ar       1 <1>        0.000
      6 C           1.6506   -0.6235    0.6505 C.2        1 <1>        0.000
      7 N           0.8116   -0.2848   -0.3243 N.am       1 <1>        0.000
      8 C           1.1332    0.6218   -1.2428 C.2        1 <1>        0.000
      9 N           2.3140    1.2337   -1.2280 N.am       1 <1>        0.000
     10 H           2.6274    2.2294   -2.2630 H.spc      1 <1>        0.000
     11 O           0.3085    0.9047   -2.1386 O.2        1 <1>        0.000
     12 H          -0.5075   -0.9302   -0.3884 H.spc      1 <1>        0.000
     13 O           1.3413   -1.4635    1.4940 O.2        1 <1>        0.000
     14 H           4.1853   -0.9088    2.6755 H.spc      1 <1>        0.000
     15 H           5.9788    0.9943    1.4840 H.spc      1 <1>        0.000
@<TRIPOS>BOND
     1    1    2 ar 
     2    2    3 ar 
     3    3    4 ar 
     4    4    5 ar 
     5    5    1 ar 
     6    5    6 1  
     7    6    7 am 
     8    7    8 am 
     9    8    9 am 
    10    9    4 1  
    11    9   10 1  
    12    8   11 2  
    13    7   12 1  
    14    6   13 2  
    15    1   14 1  
    16    2   15 1  
