# Name:          seed_class_4_319_26/38664
# Creation time: Fri May 21 00:57:17 2010


@<TRIPOS>MOLECULE
seed_class_4_319_26/38664
   13    13     1     1     1
SMALL
USER_CHARGES


@<TRIPOS>ATOM
      1 H          -0.6401    1.4312    1.3885 H.spc      1 <1>        0.000
      2 C           0.3808    1.5878    0.3995 C.3        1 <1>        0.000
      3 C           0.5979    3.0543    0.1127 C.2        1 <1>        0.000
      4 C           0.3260    3.3109   -1.1741 C.2        1 <1>        0.000
      5 C          -0.0940    2.0813   -1.8828 C.2        1 <1>        0.000
      6 C          -0.0675    0.9715   -0.9040 C.2        1 <1>        0.000
      7 C          -0.3768   -0.3130   -1.1281 C.2        1 <1>        0.000
      8 H          -0.2928   -1.3170   -0.0034 H.spc      1 <1>        0.000
      9 O          -0.4079    1.9972   -3.0690 O.2        1 <1>        0.000
     10 H           1.6895    0.9479    0.8538 H.spc      1 <1>        0.000
     11 H           0.9266    3.7936    0.8431 H.spc      1 <1>        0.000
     12 H           0.4038    4.2945   -1.6373 H.spc      1 <1>        0.000
     13 H          -0.6890   -0.6330   -2.1222 H.spc      1 <1>        0.000
@<TRIPOS>BOND
     1    2    1 1  
     2    2    3 1  
     3    3    4 2  
     4    4    5 1  
     5    5    6 1  
     6    6    2 1  
     7    6    7 2  
     8    7    8 1  
     9    5    9 2  
    10    2   10 1  
    11    3   11 1  
    12    4   12 1  
    13    7   13 1  
