# Name:          seed_class_5_412_87/34898
# Creation time: Fri May 21 00:57:18 2010


@<TRIPOS>MOLECULE
seed_class_5_412_87/34898
   21    21     1     1     1
SMALL
USER_CHARGES


@<TRIPOS>ATOM
      1 H          -0.0417   -0.8432   -2.2507 H.spc      1 <1>        0.000
      2 O          -1.2226   -1.4118   -1.6786 O.3        1 <1>        0.000
      3 C          -2.3655   -1.3526   -2.3947 C.2        1 <1>        0.000
      4 O          -2.3657   -0.8409   -3.5021 O.2        1 <1>        0.000
      5 C          -3.6183   -1.9086   -1.8362 C.2        1 <1>        0.000
      6 C          -4.7483   -1.8682   -2.5552 C.2        1 <1>        0.000
      7 C          -6.0010   -2.4241   -1.9967 C.ar       1 <1>        0.000
      8 C          -6.9220   -3.0585   -2.8390 C.ar       1 <1>        0.000
      9 C          -8.1070   -3.5844   -2.3107 C.ar       1 <1>        0.000
     10 C          -8.3711   -3.4759   -0.9401 C.ar       1 <1>        0.000
     11 C          -7.4502   -2.8415   -0.0978 C.ar       1 <1>        0.000
     12 C          -6.2651   -2.3156   -0.6261 C.ar       1 <1>        0.000
     13 O          -9.5308   -3.9905   -0.4231 O.3        1 <1>        0.000
     14 O          -9.0083   -4.2051   -3.1349 O.3        1 <1>        0.000
     15 H          -3.6217   -2.3509   -0.8400 H.spc      1 <1>        0.000
     16 H          -4.7449   -1.4259   -3.5514 H.spc      1 <1>        0.000
     17 H          -6.7164   -3.1429   -3.9061 H.spc      1 <1>        0.000
     18 H          -7.6559   -2.7570    0.9693 H.spc      1 <1>        0.000
     19 H          -5.5481   -1.8217    0.0297 H.spc      1 <1>        0.000
     20 H          -9.5554   -3.8329    0.5236 H.spc      1 <1>        0.000
     21 H          -8.6769   -4.1938   -4.0358 H.spc      1 <1>        0.000
@<TRIPOS>BOND
     1    1    2 1  
     2    2    3 1  
     3    3    4 2  
     4    3    5 1  
     5    5    6 2  
     6    6    7 1  
     7    7    8 ar 
     8    8    9 ar 
     9    9   10 ar 
    10   10   11 ar 
    11   11   12 ar 
    12   12    7 ar 
    13   10   13 1  
    14    9   14 1  
    15    5   15 1  
    16    6   16 1  
    17    8   17 1  
    18   11   18 1  
    19   12   19 1  
    20   13   20 1  
    21   14   21 1  
