# Name:          seed_class_5_576_20/34898
# Creation time: Fri May 21 00:57:20 2010


@<TRIPOS>MOLECULE
seed_class_5_576_20/34898
   21    22     1     1     1
SMALL
USER_CHARGES


@<TRIPOS>ATOM
      1 H          -0.1387    0.4304   -3.6838 H.spc      1 <1>        0.000
      2 N           0.9373    1.2223   -3.0706 N.am       1 <1>        0.000
      3 C           1.0436    2.5205   -3.3396 C.2        1 <1>        0.000
      4 O           0.0829    3.1334   -3.8025 O.2        1 <1>        0.000
      5 C           2.3179    3.2276   -3.0818 C.ar       1 <1>        0.000
      6 N           3.3721    2.5478   -2.6106 N.ar       1 <1>        0.000
      7 C           4.5445    3.1478   -2.3631 C.ar       1 <1>        0.000
      8 C           4.7074    4.5194   -2.5915 C.ar       1 <1>        0.000
      9 C           3.6245    5.2577   -3.0837 C.ar       1 <1>        0.000
     10 C           2.4129    4.6018   -3.3321 C.ar       1 <1>        0.000
     11 C           5.9386    5.1316   -2.3280 C.ar       1 <1>        0.000
     12 C           7.0069    4.3721   -1.8361 C.ar       1 <1>        0.000
     13 C           6.8440    3.0005   -1.6077 C.ar       1 <1>        0.000
     14 C           5.6128    2.3883   -1.8713 C.ar       1 <1>        0.000
     15 H           1.6024    0.7762   -2.4389 H.spc      1 <1>        0.000
     16 H           3.7232    6.3270   -3.2707 H.spc      1 <1>        0.000
     17 H           1.5547    5.1538   -3.7154 H.spc      1 <1>        0.000
     18 H           6.0654    6.1995   -2.5058 H.spc      1 <1>        0.000
     19 H           7.9655    4.8487   -1.6309 H.spc      1 <1>        0.000
     20 H           7.6757    2.4092   -1.2246 H.spc      1 <1>        0.000
     21 H           5.4860    1.3204   -1.6936 H.spc      1 <1>        0.000
@<TRIPOS>BOND
     1    1    2 1  
     2    2    3 am 
     3    3    4 2  
     4    3    5 1  
     5    5    6 ar 
     6    6    7 ar 
     7    7    8 ar 
     8    8    9 ar 
     9    9   10 ar 
    10   10    5 ar 
    11    8   11 ar 
    12   11   12 ar 
    13   12   13 ar 
    14   13   14 ar 
    15   14    7 ar 
    16    2   15 1  
    17    9   16 1  
    18   10   17 1  
    19   11   18 1  
    20   12   19 1  
    21   13   20 1  
    22   14   21 1  
