# Name:          seed_class_4_336_24/38664
# Creation time: Fri May 21 00:57:17 2010


@<TRIPOS>MOLECULE
seed_class_4_336_24/38664
   14    14     1     1     1
SMALL
USER_CHARGES


@<TRIPOS>ATOM
      1 O          -3.3443    0.9340    0.9376 O.3        1 <1>        0.000
      2 C          -2.7181    2.1528    0.5285 C.3        1 <1>        0.000
      3 O          -2.9868    2.4225   -0.8499 O.3        1 <1>        0.000
      4 C          -4.3838    2.6033   -1.0958 C.3        1 <1>        0.000
      5 C          -5.2025    1.4019   -0.5878 C.3        1 <1>        0.000
      6 C          -4.7691    0.9989    0.8339 C.3        1 <1>        0.000
      7 H          -5.3212    1.9973    1.8503 H.spc      1 <1>        0.000
      8 H          -5.0076    0.2937   -1.4703 H.spc      1 <1>        0.000
      9 H          -1.2278    2.0691    0.7568 H.spc      1 <1>        0.000
     10 H          -3.1274    2.9678    1.1254 H.spc      1 <1>        0.000
     11 H          -4.5372    2.6976   -2.1708 H.spc      1 <1>        0.000
     12 H          -4.7159    3.4972   -0.5678 H.spc      1 <1>        0.000
     13 H          -6.2544    1.6862   -0.5614 H.spc      1 <1>        0.000
     14 H          -5.1718    0.0083    1.0452 H.spc      1 <1>        0.000
@<TRIPOS>BOND
     1    1    2 1  
     2    2    3 1  
     3    3    4 1  
     4    4    5 1  
     5    5    6 1  
     6    6    1 1  
     7    6    7 1  
     8    5    8 1  
     9    2    9 1  
    10    2   10 1  
    11    4   11 1  
    12    4   12 1  
    13    5   13 1  
    14    6   14 1  
