# Name:          seed_class_4_165_335/38664
# Creation time: Fri May 21 00:57:15 2010


@<TRIPOS>MOLECULE
seed_class_4_165_335/38664
    7     7     1     1     1
SMALL
USER_CHARGES


@<TRIPOS>ATOM
      1 O          -7.2772    1.1571    3.2875 O.3        1 <1>        0.000
      2 C          -6.8018    2.3509    2.7747 C.3        1 <1>        0.000
      3 C          -6.1629    1.0384    2.4762 C.3        1 <1>        0.000
      4 H          -4.8328    0.7187    3.1154 H.spc      1 <1>        0.000
      5 H          -7.5997    3.0435    1.6736 H.spc      1 <1>        0.000
      6 H          -6.4771    3.3077    3.1836 H.spc      1 <1>        0.000
      7 H          -5.9008    0.4784    1.5786 H.spc      1 <1>        0.000
@<TRIPOS>BOND
     1    1    2 1  
     2    2    3 1  
     3    3    1 1  
     4    3    4 1  
     5    2    5 1  
     6    2    6 1  
     7    3    7 1  
