#	Name:			imidazolidine
#	Creating user name:	becker
#	Creation time:		Thu Dec 19 02:54:45 2002

#	Modifying user name:	zmliu
#	Modification time:	Thu Mar 11 20:50:58 2004

@<TRIPOS>MOLECULE
imidazolidine
   13    13     1     1     0
SMALL
GAST_HUCK


@<TRIPOS>ATOM
      1 N1          0.5853    1.0485    0.3544 N.3       1 IMIDAZOLIDINE   -0.1982 
      2 C1          1.2830   -0.2474    0.1956 C.3       1 IMIDAZOLIDINE    0.1782 
      3 N2          0.2669   -1.2597   -0.1731 N.3       1 IMIDAZOLIDINE   -0.1982 
      4 C2         -1.0193   -0.6580    0.2215 C.3       1 IMIDAZOLIDINE    0.1091 
      5 C3         -0.8057    0.8371   -0.0832 C.3       1 IMIDAZOLIDINE    0.1091 
      6 H1          1.0638    1.8401   -0.2112 H.spc     1 IMIDAZOLIDINE   -1.0000 
      7 H2          1.6973   -0.5222    1.1776 H.spc     1 IMIDAZOLIDINE   -1.0000 
      8 H3          2.1140   -0.2078   -0.5309 H.spc     1 IMIDAZOLIDINE   -1.0000 
      9 H4          0.2797   -1.4349   -1.2432 H.spc     1 IMIDAZOLIDINE   -1.0000 
     10 H5         -1.1540   -0.8101    1.3049 H.spc     1 IMIDAZOLIDINE   -1.0000 
     11 H6         -1.8881   -1.0819   -0.3091 H.spc     1 IMIDAZOLIDINE   -1.0000 
     12 H7         -0.9131    1.0131   -1.1677 H.spc     1 IMIDAZOLIDINE   -1.0000 
     13 H8         -1.5097    1.4833    0.4646 H.spc     1 IMIDAZOLIDINE   -1.0000 
@<TRIPOS>BOND
     1    1    2 1    
     2    1    5 1    
     3    2    3 1    
     4    3    4 1    
     5    4    5 1    
     6    1    6 1    
     7    2    7 1    
     8    2    8 1    
     9    3    9 1    
    10    4   10 1    
    11    4   11 1    
    12    5   12 1    
    13    5   13 1    
@<TRIPOS>SUBSTRUCTURE
     1 IMIDAZOLIDINE     1 PERM              0 ****  ****    0 ROOT 
@<TRIPOS>NORMAL
@<TRIPOS>FF_PBC
FORCE_FIELD_SETUP_FEATURE Force Field Setup information
v1.0  0 0.000000 0.000000 0.000000 0.000000 0.000000 0.000000 NONE 2 0 0 0 0 0 0 0 0 0 0 0 0
