# Name:          seed_class_3_88_274/26467
# Creation time: Fri May 21 00:57:14 2010


@<TRIPOS>MOLECULE
seed_class_3_88_274/26467
    7     6     1     1     1
SMALL
USER_CHARGES


@<TRIPOS>ATOM
      1 P          -4.8928    0.1659    0.2823 P.3        1 <1>        0.000
      2 O          -3.8574    0.9607    0.9363 O.2        1 <1>        0.000
      3 O          -6.2770    0.8937    0.4211 O.3        1 <1>        0.000
      4 O          -4.9744   -1.2475    0.9609 O.3        1 <1>        0.000
      5 H          -4.4860   -0.0293   -1.4736 H.spc      1 <1>        0.000
      6 H          -6.9570    0.3703   -0.0092 H.spc      1 <1>        0.000
      7 H          -5.6555   -1.7692    0.5301 H.spc      1 <1>        0.000
@<TRIPOS>BOND
     1    1    2 2  
     2    1    3 1  
     3    1    4 1  
     4    1    5 1  
     5    3    6 1  
     6    4    7 1  
