# Name:          seed_class_4_283_34/38664
# Creation time: Fri May 21 00:57:16 2010


@<TRIPOS>MOLECULE
seed_class_4_283_34/38664
   17    17     1     1     1
SMALL
USER_CHARGES


@<TRIPOS>ATOM
      1 H           0.7675    1.4970    1.2334 H.spc      1 <1>        0.000
      2 C          -0.4366    0.8270    0.5731 C.3        1 <1>        0.000
      3 C          -1.5324    1.8736    0.2975 C.3        1 <1>        0.000
      4 C          -2.8128    1.2138   -0.2474 C.3        1 <1>        0.000
      5 C          -3.3303    0.1198    0.7049 C.3        1 <1>        0.000
      6 C          -2.2305   -0.9235    0.9789 C.3        1 <1>        0.000
      7 C          -0.9293   -0.3094    1.4369 C.2        1 <1>        0.000
      8 O          -0.3310   -0.6958    2.4151 O.2        1 <1>        0.000
      9 H          -2.7200   -1.9309    2.0153 H.spc      1 <1>        0.000
     10 H          -3.8245    2.2043   -0.4481 H.spc      1 <1>        0.000
     11 H          -2.5452    0.6190   -1.6270 H.spc      1 <1>        0.000
     12 H          -0.1459    0.4016   -0.3874 H.spc      1 <1>        0.000
     13 H          -1.1606    2.5769   -0.4476 H.spc      1 <1>        0.000
     14 H          -1.7734    2.3780    1.2332 H.spc      1 <1>        0.000
     15 H          -4.1824   -0.3779    0.2419 H.spc      1 <1>        0.000
     16 H          -3.6227    0.5814    1.6481 H.spc      1 <1>        0.000
     17 H          -2.0268   -1.4225    0.0315 H.spc      1 <1>        0.000
@<TRIPOS>BOND
     1    1    2 1  
     2    2    3 1  
     3    3    4 1  
     4    4    5 1  
     5    5    6 1  
     6    6    7 1  
     7    7    2 1  
     8    7    8 2  
     9    6    9 1  
    10    4   10 1  
    11    4   11 1  
    12    2   12 1  
    13    3   13 1  
    14    3   14 1  
    15    5   15 1  
    16    5   16 1  
    17    6   17 1  
