# Name:          seed_class_4_180_177/38664
# Creation time: Fri May 21 00:57:15 2010


@<TRIPOS>MOLECULE
seed_class_4_180_177/38664
   21    22     1     1     1
SMALL
USER_CHARGES


@<TRIPOS>ATOM
      1 H          -1.7047    2.3543   -0.1153 H.spc      1 <1>        0.000
      2 C          -0.8751    2.7772    1.0962 C.3        1 <1>        0.000
      3 N          -1.6819    2.6541    2.3189 N.3        1 <1>        0.000
      4 C          -0.8640    2.9286    3.5091 C.3        1 <1>        0.000
      5 C           0.2401    1.8655    3.6590 C.3        1 <1>        0.000
      6 C           0.9399    1.5494    2.3588 C.ar       1 <1>        0.000
      7 C           0.4088    1.9835    1.1384 C.ar       1 <1>        0.000
      8 C           1.0690    1.6827   -0.0590 C.ar       1 <1>        0.000
      9 C           2.2603    0.9477   -0.0359 C.ar       1 <1>        0.000
     10 C           2.7915    0.5136    1.1845 C.ar       1 <1>        0.000
     11 C           2.1313    0.8144    2.3819 C.ar       1 <1>        0.000
     12 H           3.9573   -0.2057    1.2071 H.spc      1 <1>        0.000
     13 H           2.9063    0.6533   -1.2076 H.spc      1 <1>        0.000
     14 H          -2.8017    3.6048    2.2648 H.spc      1 <1>        0.000
     15 H          -0.5893    3.8261    1.0171 H.spc      1 <1>        0.000
     16 H          -1.5027    2.9039    4.3920 H.spc      1 <1>        0.000
     17 H          -0.4003    3.9093    3.4026 H.spc      1 <1>        0.000
     18 H          -0.2299    0.9481    4.0133 H.spc      1 <1>        0.000
     19 H           0.9864    2.2587    4.3493 H.spc      1 <1>        0.000
     20 H           0.6555    2.0208   -1.0092 H.spc      1 <1>        0.000
     21 H           2.5448    0.4764    3.3321 H.spc      1 <1>        0.000
@<TRIPOS>BOND
     1    1    2 1  
     2    2    3 1  
     3    3    4 1  
     4    4    5 1  
     5    5    6 1  
     6    6    7 ar 
     7    7    2 1  
     8    7    8 ar 
     9    8    9 ar 
    10    9   10 ar 
    11   10   11 ar 
    12   11    6 ar 
    13   10   12 1  
    14    9   13 1  
    15    3   14 1  
    16    2   15 1  
    17    4   16 1  
    18    4   17 1  
    19    5   18 1  
    20    5   19 1  
    21    8   20 1  
    22   11   21 1  
