# Name:          seed_class_3_143_22/26467
# Creation time: Fri May 21 00:57:15 2010


@<TRIPOS>MOLECULE
seed_class_3_143_22/26467
    7     6     1     1     1
SMALL
USER_CHARGES


@<TRIPOS>ATOM
      1 S           5.4560    0.0430    4.5237 S.3        1 <1>        0.000
      2 H           7.0522    0.9043    4.3732 H.spc      1 <1>        0.000
      3 C           4.6722   -0.0281    2.9383 C.2        1 <1>        0.000
      4 O           5.2401    0.4343    1.9502 O.2        1 <1>        0.000
      5 N           3.4691   -0.5817    2.8156 N.am       1 <1>        0.000
      6 H           2.8291   -0.6638    1.4947 H.spc      1 <1>        0.000
      7 H           2.9905   -0.9493    3.6380 H.spc      1 <1>        0.000
@<TRIPOS>BOND
     1    1    2 1  
     2    1    3 1  
     3    3    4 2  
     4    3    5 am 
     5    6    5 1  
     6    5    7 1  
