# Name:          seed_class_5_450_43/34898
# Creation time: Fri May 21 00:57:19 2010


@<TRIPOS>MOLECULE
seed_class_5_450_43/34898
   12    12     1     1     1
SMALL
USER_CHARGES


@<TRIPOS>ATOM
      1 Br          7.4158    1.1380    2.6183 Br         1 <1>        0.000
      2 C           5.8531    0.3858    1.8423 C.ar       1 <1>        0.000
      3 C           5.5508   -0.9657    2.0471 C.ar       1 <1>        0.000
      4 C           4.3993   -1.5199    1.4753 C.ar       1 <1>        0.000
      5 C           3.5502   -0.7225    0.6986 C.ar       1 <1>        0.000
      6 C           3.8525    0.6290    0.4938 C.ar       1 <1>        0.000
      7 C           5.0040    1.1832    1.0656 C.ar       1 <1>        0.000
      8 H           2.3082   -1.3202    0.0819 H.spc      1 <1>        0.000
      9 H           6.2119   -1.5865    2.6517 H.spc      1 <1>        0.000
     10 H           4.1639   -2.5721    1.6348 H.spc      1 <1>        0.000
     11 H           3.1914    1.2498   -0.1108 H.spc      1 <1>        0.000
     12 H           5.2394    2.2354    0.9061 H.spc      1 <1>        0.000
@<TRIPOS>BOND
     1    1    2 1  
     2    2    3 ar 
     3    3    4 ar 
     4    4    5 ar 
     5    5    6 ar 
     6    6    7 ar 
     7    7    2 ar 
     8    5    8 1  
     9    3    9 1  
    10    4   10 1  
    11    6   11 1  
    12    7   12 1  
