# Name:          seed_class_2_41_120/95646
# Creation time: Fri May 21 00:57:13 2010


@<TRIPOS>MOLECULE
seed_class_2_41_120/95646
    9     9     1     1     1
SMALL
USER_CHARGES


@<TRIPOS>ATOM
      1 N          -4.1044   -0.1205    3.3108 N.pl3      1 <1>        0.000
      2 N          -4.4257   -0.8187    4.5404 N.ar       1 <1>        0.000
      3 C          -5.5348   -0.2916    5.0247 C.ar       1 <1>        0.000
      4 C          -5.9599    0.7802    4.0968 C.ar       1 <1>        0.000
      5 C          -5.0617    0.8230    3.1033 C.ar       1 <1>        0.000
      6 H          -2.9485   -0.3856    2.4422 H.spc      1 <1>        0.000
      7 H          -6.0444   -0.5910    5.9406 H.spc      1 <1>        0.000
      8 H          -6.8391    1.4158    4.2019 H.spc      1 <1>        0.000
      9 H          -5.0935    1.5097    2.2574 H.spc      1 <1>        0.000
@<TRIPOS>BOND
     1    1    2 ar 
     2    2    3 ar 
     3    3    4 ar 
     4    4    5 ar 
     5    5    1 ar 
     6    1    6 1  
     7    3    7 1  
     8    4    8 1  
     9    5    9 1  
