# Name:          seed_class_1_1_438491/603445
# Creation time: Fri May 21 00:57:10 2010


@<TRIPOS>MOLECULE
seed_class_1_1_438491/603445
    5     4     1     1     1
SMALL
USER_CHARGES


@<TRIPOS>ATOM
      1 H           0.9402    2.6521   -0.8573 H.spc      1 <1>        0.000
      2 H           2.2766    1.1107    0.4087 H.spc      1 <1>        0.000
      3 H          -0.1493    0.7593    0.1402 H.spc      1 <1>        0.000
      4 H           1.2874    0.6996   -1.4402 H.spc      1 <1>        0.000
      5 C           1.1041    1.2698   -0.5295 C.3        1 <1>        0.000
@<TRIPOS>BOND
     1    5    1 1  
     2    5    2 1  
     3    5    3 1  
     4    5    4 1  
