# Name:          seed_class_5_417_78/34898
# Creation time: Fri May 21 00:57:18 2010


@<TRIPOS>MOLECULE
seed_class_5_417_78/34898
   16    17     1     1     1
SMALL
USER_CHARGES


@<TRIPOS>ATOM
      1 N           2.7856   -3.4991    0.5053 N.am       1 <1>        0.000
      2 C           1.4327   -3.5842    0.6143 C.2        1 <1>        0.000
      3 N           0.6328   -3.0774   -0.3053 N.2        1 <1>        0.000
      4 C           1.1582   -2.4311   -1.4305 C.ar       1 <1>        0.000
      5 N           0.5627   -1.8365   -2.4989 N.pl3      1 <1>        0.000
      6 C           1.5393   -1.3573   -3.3152 C.ar       1 <1>        0.000
      7 N           2.7137   -1.6387   -2.7823 N.ar       1 <1>        0.000
      8 C           2.4852   -2.3223   -1.5821 C.ar       1 <1>        0.000
      9 C           3.3575   -2.8999   -0.5353 C.2        1 <1>        0.000
     10 O           4.5821   -2.8276   -0.6255 O.2        1 <1>        0.000
     11 H          -0.8849   -1.7301   -2.7310 H.spc      1 <1>        0.000
     12 N           0.8913   -4.2061    1.6959 N.pl3      1 <1>        0.000
     13 H           3.3728   -3.9024    1.2353 H.spc      1 <1>        0.000
     14 H           1.3787   -0.8282   -4.2545 H.spc      1 <1>        0.000
     15 H          -0.1219   -4.2767    1.7894 H.spc      1 <1>        0.000
     16 H           1.4985   -4.6019    2.4136 H.spc      1 <1>        0.000
@<TRIPOS>BOND
     1    1    2 1  
     2    2    3 2  
     3    3    4 1  
     4    4    5 ar 
     5    5    6 ar 
     6    6    7 ar 
     7    7    8 ar 
     8    8    4 ar 
     9    8    9 1  
    10    9    1 am 
    11    9   10 2  
    12    5   11 1  
    13    2   12 1  
    14    1   13 1  
    15    6   14 1  
    16   12   15 1  
    17   12   16 1  
