# Name:          seed_class_5_488_32/34898
# Creation time: Fri May 21 00:57:19 2010


@<TRIPOS>MOLECULE
seed_class_5_488_32/34898
   14    14     1     1     1
SMALL
USER_CHARGES


@<TRIPOS>ATOM
      1 H          -1.2129   -1.6198    0.4621 H.spc      1 <1>        0.000
      2 C          -2.2961   -0.8036   -0.2017 C.ar       1 <1>        0.000
      3 C          -3.5720   -1.3373   -0.4190 C.ar       1 <1>        0.000
      4 N          -4.5089   -0.5840   -1.0109 N.ar       1 <1>        0.000
      5 C          -4.2452    0.6714   -1.3984 C.ar       1 <1>        0.000
      6 N          -3.0351    1.2138   -1.2060 N.ar       1 <1>        0.000
      7 C          -2.0565    0.5110   -0.6194 C.ar       1 <1>        0.000
      8 N          -5.2510    1.4291   -2.0146 N.pl3      1 <1>        0.000
      9 N          -3.8670   -2.6487   -0.0206 N.pl3      1 <1>        0.000
     10 H          -1.0758    0.9620   -0.4677 H.spc      1 <1>        0.000
     11 H          -6.1750    1.0240   -2.1649 H.spc      1 <1>        0.000
     12 H          -5.0588    2.3855   -2.3127 H.spc      1 <1>        0.000
     13 H          -3.1506   -3.2183    0.4297 H.spc      1 <1>        0.000
     14 H          -4.7980   -3.0332   -0.1810 H.spc      1 <1>        0.000
@<TRIPOS>BOND
     1    1    2 1  
     2    2    3 ar 
     3    3    4 ar 
     4    4    5 ar 
     5    5    6 ar 
     6    6    7 ar 
     7    7    2 ar 
     8    5    8 1  
     9    3    9 1  
    10    7   10 1  
    11    8   11 1  
    12    8   12 1  
    13    9   13 1  
    14    9   14 1  
