# Name:          seed_class_4_302_30/38664
# Creation time: Fri May 21 00:57:17 2010


@<TRIPOS>MOLECULE
seed_class_4_302_30/38664
   10    10     1     1     1
SMALL
USER_CHARGES


@<TRIPOS>ATOM
      1 S          -5.0950    0.0138    3.0893 S.3        1 <1>        0.000
      2 C          -6.0362   -0.9414    1.8587 C.3        1 <1>        0.000
      3 C          -7.4275   -0.3901    2.0600 C.2        1 <1>        0.000
      4 N          -7.5451    0.5484    2.9949 N.am       1 <1>        0.000
      5 C          -6.4783    0.9447    3.6833 C.2        1 <1>        0.000
      6 O          -6.4569    1.7989    4.5681 O.2        1 <1>        0.000
      7 O          -8.3894   -0.7835    1.4021 O.2        1 <1>        0.000
      8 H          -5.5236   -0.7225    0.4360 H.spc      1 <1>        0.000
      9 H          -5.9643   -2.0216    1.9859 H.spc      1 <1>        0.000
     10 H          -8.4563    0.9656    3.1846 H.spc      1 <1>        0.000
@<TRIPOS>BOND
     1    1    2 1  
     2    2    3 1  
     3    3    4 am 
     4    4    5 am 
     5    5    1 1  
     6    5    6 2  
     7    3    7 2  
     8    2    8 1  
     9    2    9 1  
    10    4   10 1  
