#	Name:			2H-chromene
#	Creating user name:	becker
#	Creation time:		Thu Dec 19 02:54:38 2002

#	Modifying user name:	zmliu
#	Modification time:	Thu Mar 11 20:18:28 2004

@<TRIPOS>MOLECULE
2H-chromene
   18    19     1     1     0
SMALL
GAST_HUCK


@<TRIPOS>ATOM
      1 O1          1.0907    1.4615   -0.4648 O.3       1 CHROMENE   -0.3864 
      2 C1          2.2610    0.9198    0.1723 C.3       1 CHROMENE    0.0018 
      3 C2          2.3821   -0.5693   -0.0343 C.2       1 CHROMENE   -0.0473 
      4 C3          1.2832   -1.3200   -0.1629 C.2       1 CHROMENE    0.0804 
      5 C4         -1.2521   -1.3521    0.0404 C.ar      1 CHROMENE    0.0343 
      6 C5         -2.4706   -0.6700    0.1086 C.ar      1 CHROMENE    0.0178 
      7 C6         -2.4992    0.7250    0.0148 C.ar      1 CHROMENE    0.0203 
      8 C7         -1.3103    1.4392   -0.1609 C.ar      1 CHROMENE    0.0503 
      9 C8         -0.0933    0.7573   -0.2407 C.ar      1 CHROMENE    0.1293 
     10 C9         -0.0626   -0.6344   -0.1171 C.ar      1 CHROMENE    0.0995 
     11 H1          2.2171    1.1209    1.2538 H.spc     1 CHROMENE   -1.0000 
     12 H2          3.1349    1.4405   -0.2478 H.spc     1 CHROMENE   -1.0000 
     13 H3          3.3690   -1.0338   -0.0590 H.spc     1 CHROMENE   -1.0000 
     14 H4          1.3515   -2.4009   -0.2899 H.spc     1 CHROMENE   -1.0000 
     15 H5         -1.2314   -2.4348    0.1121 H.spc     1 CHROMENE   -1.0000 
     16 H6         -3.3955   -1.2241    0.2355 H.spc     1 CHROMENE   -1.0000 
     17 H7         -3.4453    1.2537    0.0774 H.spc     1 CHROMENE   -1.0000 
     18 H8         -1.3294    2.5214   -0.2375 H.spc     1 CHROMENE   -1.0000 
@<TRIPOS>BOND
     1    2    1 1    
     2    1    9 1    
     3    3    2 1    
     4    4    3 2    
     5   10    4 1    
     6    5    6 ar   
     7    5   10 ar   
     8    6    7 ar   
     9    7    8 ar   
    10    8    9 ar   
    11    9   10 ar   
    12    2   11 1    
    13    2   12 1    
    14    3   13 1    
    15    4   14 1    
    16    5   15 1    
    17    6   16 1    
    18    7   17 1    
    19    8   18 1    
@<TRIPOS>SUBSTRUCTURE
     1 CHROMENE     5 PERM              0 ****  ****    0 ROOT 
@<TRIPOS>NORMAL
@<TRIPOS>FF_PBC
FORCE_FIELD_SETUP_FEATURE Force Field Setup information
v1.0  0 0.000000 0.000000 0.000000 0.000000 0.000000 0.000000 NONE 2 0 0 0 0 0 0 0 0 0 0 0 0
