# Name:          seed_class_4_328_25/38664
# Creation time: Fri May 21 00:57:17 2010


@<TRIPOS>MOLECULE
seed_class_4_328_25/38664
   26    28     1     1     1
SMALL
USER_CHARGES


@<TRIPOS>ATOM
      1 O          -1.5083    0.3360   -1.1624 O.3        1 <1>        0.000
      2 C          -1.5259    0.7084    0.2182 C.3        1 <1>        0.000
      3 C          -0.2320    1.4528    0.5966 C.3        1 <1>        0.000
      4 C           0.9986    0.8174   -0.0050 C.2        1 <1>        0.000
      5 C           0.8924   -0.1357   -0.9409 C.2        1 <1>        0.000
      6 C          -0.4609   -0.6024   -1.4214 C.3        1 <1>        0.000
      7 H          -0.8010   -1.9460   -0.7828 H.spc      1 <1>        0.000
      8 C           2.0875   -0.7693   -1.5414 C.2        1 <1>        0.000
      9 C           3.4275   -0.3322   -1.0901 C.ar       1 <1>        0.000
     10 C           3.5284    0.6643   -0.1119 C.ar       1 <1>        0.000
     11 C           4.7880    1.0898    0.3266 C.ar       1 <1>        0.000
     12 C           5.9468    0.5188   -0.2131 C.ar       1 <1>        0.000
     13 C           5.8459   -0.4776   -1.1913 C.ar       1 <1>        0.000
     14 C           4.5863   -0.9031   -1.6298 C.ar       1 <1>        0.000
     15 H           4.4876   -1.8782   -2.5871 H.spc      1 <1>        0.000
     16 H           6.9798   -1.0363   -1.7195 H.spc      1 <1>        0.000
     17 C           2.3189    1.2837    0.4745 C.2        1 <1>        0.000
     18 O           2.4082    2.1591    1.3339 O.2        1 <1>        0.000
     19 O           1.9693   -1.6427   -2.3994 O.2        1 <1>        0.000
     20 H          -0.3245    2.8085    0.1511 H.spc      1 <1>        0.000
     21 H          -2.7394    1.5914    0.5053 H.spc      1 <1>        0.000
     22 H          -1.5919   -0.1980    0.8201 H.spc      1 <1>        0.000
     23 H          -0.1300    1.4031    1.6807 H.spc      1 <1>        0.000
     24 H          -0.3911   -0.7026   -2.5045 H.spc      1 <1>        0.000
     25 H           4.8665    1.8656    1.0882 H.spc      1 <1>        0.000
     26 H           6.9275    0.8500    0.1283 H.spc      1 <1>        0.000
@<TRIPOS>BOND
     1    1    2 1  
     2    2    3 1  
     3    3    4 1  
     4    4    5 2  
     5    5    6 1  
     6    6    1 1  
     7    6    7 1  
     8    5    8 1  
     9    8    9 1  
    10    9   10 ar 
    11   10   11 ar 
    12   11   12 ar 
    13   12   13 ar 
    14   13   14 ar 
    15   14    9 ar 
    16   14   15 1  
    17   13   16 1  
    18   10   17 1  
    19   17    4 1  
    20   17   18 2  
    21    8   19 2  
    22    3   20 1  
    23    2   21 1  
    24    2   22 1  
    25    3   23 1  
    26    6   24 1  
    27   11   25 1  
    28   12   26 1  
