# Name:          seed_class_2_35_259/95646
# Creation time: Fri May 21 00:57:13 2010


@<TRIPOS>MOLECULE
seed_class_2_35_259/95646
   10    10     1     1     1
SMALL
USER_CHARGES


@<TRIPOS>ATOM
      1 H          -1.7809    1.0657    1.3132 H.spc      1 <1>        0.000
      2 N          -2.6274   -0.2036    0.4560 N.pl3      1 <1>        0.000
      3 C          -3.9661   -0.0711    0.6562 C.ar       1 <1>        0.000
      4 C          -4.4343   -1.1804    1.2441 C.ar       1 <1>        0.000
      5 C          -3.2696   -2.0766    1.4198 C.ar       1 <1>        0.000
      6 C          -2.2176   -1.4148    0.9193 C.ar       1 <1>        0.000
      7 H          -5.8343   -1.4544    1.6384 H.spc      1 <1>        0.000
      8 H          -4.5630    0.7988    0.3821 H.spc      1 <1>        0.000
      9 H          -3.2680   -3.0714    1.8652 H.spc      1 <1>        0.000
     10 H          -1.1941   -1.7885    0.8883 H.spc      1 <1>        0.000
@<TRIPOS>BOND
     1    1    2 1  
     2    2    3 ar 
     3    3    4 ar 
     4    4    5 ar 
     5    5    6 ar 
     6    6    2 ar 
     7    4    7 1  
     8    3    8 1  
     9    5    9 1  
    10    6   10 1  
