# Name:          seed_class_4_152_5924/38664
# Creation time: Fri May 21 00:57:15 2010


@<TRIPOS>MOLECULE
seed_class_4_152_5924/38664
   16    16     1     1     1
SMALL
USER_CHARGES


@<TRIPOS>ATOM
      1 H           0.5444   -0.8370   -1.6263 H.spc      1 <1>        0.000
      2 C           1.6976   -0.0127   -1.2367 C.3        1 <1>        0.000
      3 O           2.8646   -0.8309   -1.1209 O.3        1 <1>        0.000
      4 C           3.9826   -0.0785   -0.6425 C.3        1 <1>        0.000
      5 C           4.3654    1.0538   -1.6135 C.3        1 <1>        0.000
      6 C           3.1503    1.9519   -1.9115 C.3        1 <1>        0.000
      7 C           1.8975    1.1249   -2.2553 C.3        1 <1>        0.000
      8 H           0.7508    1.9791   -2.2369 H.spc      1 <1>        0.000
      9 H           3.4610    2.8119   -3.0109 H.spc      1 <1>        0.000
     10 H           5.4021    1.8452   -1.0273 H.spc      1 <1>        0.000
     11 H           5.1645   -0.9934   -0.4274 H.spc      1 <1>        0.000
     12 H           1.5117    0.4412   -0.2633 H.spc      1 <1>        0.000
     13 H           3.6954    0.3783    0.3046 H.spc      1 <1>        0.000
     14 H           4.7102    0.6110   -2.5479 H.spc      1 <1>        0.000
     15 H           2.9340    2.5339   -1.0156 H.spc      1 <1>        0.000
     16 H           2.0279    0.6884   -3.2455 H.spc      1 <1>        0.000
@<TRIPOS>BOND
     1    1    2 1  
     2    2    3 1  
     3    3    4 1  
     4    4    5 1  
     5    5    6 1  
     6    6    7 1  
     7    7    2 1  
     8    7    8 1  
     9    6    9 1  
    10    5   10 1  
    11    4   11 1  
    12    2   12 1  
    13    4   13 1  
    14    5   14 1  
    15    6   15 1  
    16    7   16 1  
