# Name:          seed_class_4_362_21/38664
# Creation time: Fri May 21 00:57:18 2010


@<TRIPOS>MOLECULE
seed_class_4_362_21/38664
   18    19     1     1     1
SMALL
USER_CHARGES


@<TRIPOS>ATOM
      1 O           0.6339   -1.4299    0.4133 O.3        1 <1>        0.000
      2 C          -0.6174   -2.0373    0.0814 C.3        1 <1>        0.000
      3 C          -1.5513   -0.8524   -0.2276 C.3        1 <1>        0.000
      4 C          -0.6069    0.2488   -0.7445 C.3        1 <1>        0.000
      5 O          -0.6988    1.4533    0.0208 O.3        1 <1>        0.000
      6 C           0.6061    2.0375   -0.0085 C.3        1 <1>        0.000
      7 C           1.5671    0.8416    0.1254 C.3        1 <1>        0.000
      8 C           0.7951   -0.3375   -0.4953 C.3        1 <1>        0.000
      9 H           2.7849    1.0840   -0.5840 H.spc      1 <1>        0.000
     10 H          -2.5142   -1.2077   -1.2234 H.spc      1 <1>        0.000
     11 H          -0.9986   -2.6571    0.8929 H.spc      1 <1>        0.000
     12 H          -0.5290   -2.7191   -0.7644 H.spc      1 <1>        0.000
     13 H          -2.1240   -0.5350    0.6438 H.spc      1 <1>        0.000
     14 H          -0.8401    0.5026   -1.7786 H.spc      1 <1>        0.000
     15 H           0.7459    2.7654    0.7907 H.spc      1 <1>        0.000
     16 H           0.7808    2.6014   -0.9248 H.spc      1 <1>        0.000
     17 H           1.8542    0.6524    1.1597 H.spc      1 <1>        0.000
     18 H           1.3172   -0.7201   -1.3723 H.spc      1 <1>        0.000
@<TRIPOS>BOND
     1    1    2 1  
     2    2    3 1  
     3    3    4 1  
     4    4    5 1  
     5    5    6 1  
     6    6    7 1  
     7    7    8 1  
     8    8    1 1  
     9    8    4 1  
    10    7    9 1  
    11    3   10 1  
    12    2   11 1  
    13    2   12 1  
    14    3   13 1  
    15    4   14 1  
    16    6   15 1  
    17    6   16 1  
    18    7   17 1  
    19    8   18 1  
