#	Name:			SOCH2
#	Creating user name:	becker
#	Creation time:		Thu Dec 19 02:55:03 2002

#	Modifying user name:	zmliu
#	Modification time:	Thu Mar 11 21:31:17 2004

@<TRIPOS>MOLECULE
SOCH2
    5     4     1     1     0
SMALL
GAST_HUCK


@<TRIPOS>ATOM
      1 S1         -0.9064   -0.7493   -0.0003 S.2       1 SOCH2       0.4309 
      2 O1         -1.9661    0.2662    0.0003 O.2       1 SOCH2       0.0706 
      3 C1          0.6301    0.0025    0.0000 C.2       1 SOCH2       0.4985 
      4 H1          0.7107    1.0886   -0.0001 H.spc     1 SOCH2      -1.0000 
      5 H2          1.5317   -0.6080    0.0003 H.spc     1 SOCH2      -1.0000 
@<TRIPOS>BOND
     1    1    2 2    
     2    1    3 2    
     3    3    4 1    
     4    3    5 1    
@<TRIPOS>SUBSTRUCTURE
     1 SOCH2       1 PERM              0 ****  ****    0 ROOT 
@<TRIPOS>NORMAL
@<TRIPOS>FF_PBC
FORCE_FIELD_SETUP_FEATURE Force Field Setup information
v1.0  0 0.000000 0.000000 0.000000 0.000000 0.000000 0.000000 NONE 2 0 0 0 0 0 0 0 0 0 0 0 0
