#	Name:			1,2,3,4-tetrahydroisoquinoline
#	Creating user name:	becker
#	Creation time:		Thu Dec 19 02:54:37 2002

#	Modifying user name:	zmliu
#	Modification time:	Thu Mar 11 16:41:56 2004

@<TRIPOS>MOLECULE
1,2,3,4-tetrahydroisoquinoline
   21    22     1     1     1
SMALL
GAST_HUCK


@<TRIPOS>ATOM
      1 C1          1.0092    1.5233    0.1096 C.3       1 TETRAHYDROISOQUINOLINE    0.0275 
      2 N1          2.1853    0.6972    0.4534 N.3       1 TETRAHYDROISOQUINOLINE   -0.2794 
      3 C2          2.2346   -0.5703   -0.3004 C.3       1 TETRAHYDROISOQUINOLINE    0.0251 
      4 C3          1.0608   -1.4523    0.1827 C.3       1 TETRAHYDROISOQUINOLINE   -0.0427 
      5 C4         -1.4697   -1.4056    0.0517 C.ar      1 TETRAHYDROISOQUINOLINE    0.0678 
      6 C5         -2.6909   -0.7311   -0.0307 C.ar      1 TETRAHYDROISOQUINOLINE    0.0890 
      7 C6         -2.7131    0.6652   -0.0679 C.ar      1 TETRAHYDROISOQUINOLINE    0.0891 
      8 C7         -1.5137    1.3811   -0.0221 C.ar      1 TETRAHYDROISOQUINOLINE    0.0690 
      9 C8         -0.2892    0.7087    0.0608 C.ar      1 TETRAHYDROISOQUINOLINE   -0.0156 
     10 C9         -0.2668   -0.6914    0.0952 C.ar      1 TETRAHYDROISOQUINOLINE   -0.0298 
     11 H1          1.1461    1.9983   -0.8758 H.spc     1 TETRAHYDROISOQUINOLINE   -1.0000 
     12 H2          0.9093    2.3124    0.8716 H.spc     1 TETRAHYDROISOQUINOLINE   -1.0000 
     13 H3          3.0999    1.2631    0.3145 H.spc     1 TETRAHYDROISOQUINOLINE   -1.0000 
     14 H4          3.1863   -1.0939   -0.1083 H.spc     1 TETRAHYDROISOQUINOLINE   -1.0000 
     15 H5          2.1525   -0.3812   -1.3842 H.spc     1 TETRAHYDROISOQUINOLINE   -1.0000 
     16 H6          1.2163   -1.7275    1.2379 H.spc     1 TETRAHYDROISOQUINOLINE   -1.0000 
     17 H7          1.0201   -2.3732   -0.4214 H.spc     1 TETRAHYDROISOQUINOLINE   -1.0000 
     18 H8         -1.4602   -2.4905    0.0837 H.spc     1 TETRAHYDROISOQUINOLINE   -1.0000 
     19 H9         -3.6206   -1.2907   -0.0656 H.spc     1 TETRAHYDROISOQUINOLINE   -1.0000 
     20 H10        -3.6598    1.1927   -0.1323 H.spc     1 TETRAHYDROISOQUINOLINE   -1.0000 
     21 H11        -1.5362    2.4658   -0.0523 H.spc     1 TETRAHYDROISOQUINOLINE   -1.0000 
@<TRIPOS>BOND
     1    2    1 1    
     2    1    9 1    
     3    3    2 1    
     4    4    3 1    
     5   10    4 1    
     6    5    6 ar   
     7    5   10 ar   
     8    6    7 ar   
     9    7    8 ar   
    10    8    9 ar   
    11    9   10 ar   
    12    1   11 1    
    13    1   12 1    
    14    2   13 1    
    15    3   14 1    
    16    3   15 1    
    17    4   16 1    
    18    4   17 1    
    19    5   18 1    
    20    6   19 1    
    21    7   20 1    
    22    8   21 1    
@<TRIPOS>SUBSTRUCTURE
     1 TETRAHYDROISOQUINOLINE     5 PERM              0 ****  ****    0 ROOT 
@<TRIPOS>SET
LAB$A_TYPE      STATIC     ATOMS    LABELGROUP SYSTEM 
21 1 2 3 4 5 6 7 8 9 10 11 12 13 14 15 16 17 18 19 \
 20 21
@<TRIPOS>NORMAL
@<TRIPOS>FF_PBC
FORCE_FIELD_SETUP_FEATURE Force Field Setup information
v1.0  0 0.000000 0.000000 0.000000 0.000000 0.000000 0.000000 NONE 2 0 0 0 0 0 0 0 0 0 0 0 0
