# Name:          seed_class_5_398_128/34898
# Creation time: Fri May 21 00:57:18 2010


@<TRIPOS>MOLECULE
seed_class_5_398_128/34898
   15    16     1     1     1
SMALL
USER_CHARGES


@<TRIPOS>ATOM
      1 H          -0.5851    0.7270   -0.2461 H.spc      1 <1>        0.000
      2 C          -1.6721    1.4860   -0.8813 C.3        1 <1>        0.000
      3 C          -2.3908    0.7650   -2.0369 C.3        1 <1>        0.000
      4 S          -1.7231   -0.9280   -2.0440 S.3        1 <1>        0.000
      5 C          -3.1340   -1.6905   -1.1835 C.3        1 <1>        0.000
      6 C          -4.1747   -0.5562   -1.2261 C.3        1 <1>        0.000
      7 N          -3.5948    0.7942   -1.1940 N.am       1 <1>        0.000
      8 C          -3.0058    1.4164   -0.1767 C.2        1 <1>        0.000
      9 O          -3.3999    1.7938    0.9256 O.2        1 <1>        0.000
     10 H          -5.0352   -0.7085   -2.4575 H.spc      1 <1>        0.000
     11 H          -2.7868   -2.1045    0.2436 H.spc      1 <1>        0.000
     12 H          -1.1208    2.4167   -1.0153 H.spc      1 <1>        0.000
     13 H          -2.4022    1.1113   -3.0704 H.spc      1 <1>        0.000
     14 H          -3.4773   -2.6189   -1.6400 H.spc      1 <1>        0.000
     15 H          -4.7685   -0.6526   -0.3171 H.spc      1 <1>        0.000
@<TRIPOS>BOND
     1    2    1 1  
     2    2    3 1  
     3    3    4 1  
     4    4    5 1  
     5    5    6 1  
     6    6    7 1  
     7    7    3 1  
     8    7    8 am 
     9    8    2 1  
    10    8    9 2  
    11    6   10 1  
    12    5   11 1  
    13    2   12 1  
    14    3   13 1  
    15    5   14 1  
    16    6   15 1  
