# Name:          seed_class_2_40_137/95646
# Creation time: Fri May 21 00:57:13 2010


@<TRIPOS>MOLECULE
seed_class_2_40_137/95646
    8     8     1     1     1
SMALL
USER_CHARGES


@<TRIPOS>ATOM
      1 H           1.5440    1.6809   -0.7671 H.spc      1 <1>        0.000
      2 N           0.1356    1.6244   -0.8918 N.pl3      1 <1>        0.000
      3 N          -0.6162    1.0656   -1.9986 N.ar       1 <1>        0.000
      4 C          -1.8944    1.2199   -1.7072 C.ar       1 <1>        0.000
      5 N          -1.9939    1.8529   -0.4624 N.ar       1 <1>        0.000
      6 C          -0.7802    2.0833    0.0027 C.ar       1 <1>        0.000
      7 H          -0.4597    2.7505    1.3189 H.spc      1 <1>        0.000
      8 H          -3.0314    0.7951   -2.5541 H.spc      1 <1>        0.000
@<TRIPOS>BOND
     1    1    2 1  
     2    2    3 ar 
     3    3    4 ar 
     4    4    5 ar 
     5    5    6 ar 
     6    6    2 ar 
     7    6    7 1  
     8    4    8 1  
