# Name:          seed_class_4_213_80/38664
# Creation time: Fri May 21 00:57:16 2010


@<TRIPOS>MOLECULE
seed_class_4_213_80/38664
   24    26     1     1     1
SMALL
USER_CHARGES


@<TRIPOS>ATOM
      1 N          -1.8756    2.6165   -0.2709 N.pl3      1 <1>        0.000
      2 C          -2.1198    1.4300    0.5619 C.3        1 <1>        0.000
      3 N          -3.4476    0.9169    0.1949 N.3        1 <1>        0.000
      4 C          -3.3305   -0.5471    0.2585 C.3        1 <1>        0.000
      5 C          -1.9236   -0.8457   -0.2921 C.3        1 <1>        0.000
      6 C          -1.0857    0.3825    0.1091 C.3        1 <1>        0.000
      7 C          -0.2981    1.0638   -0.9844 C.ar       1 <1>        0.000
      8 C          -0.8043    2.3575   -1.1582 C.ar       1 <1>        0.000
      9 C          -0.2431    3.2052   -2.1207 C.ar       1 <1>        0.000
     10 C           0.8241    2.7592   -2.9094 C.ar       1 <1>        0.000
     11 C           1.3303    1.4655   -2.7356 C.ar       1 <1>        0.000
     12 C           0.7691    0.6178   -1.7731 C.ar       1 <1>        0.000
     13 H          -0.1671    0.0237    1.2763 H.spc      1 <1>        0.000
     14 H          -4.4325    1.3675    1.1887 H.spc      1 <1>        0.000
     15 H          -2.3977    3.4911   -0.2174 H.spc      1 <1>        0.000
     16 H          -2.0567    1.6435    1.6289 H.spc      1 <1>        0.000
     17 H          -4.1094   -1.0447   -0.3192 H.spc      1 <1>        0.000
     18 H          -3.4605   -0.9236    1.2731 H.spc      1 <1>        0.000
     19 H          -1.9310   -1.0013   -1.3709 H.spc      1 <1>        0.000
     20 H          -1.5135   -1.7708    0.1130 H.spc      1 <1>        0.000
     21 H          -0.6371    4.2125   -2.2560 H.spc      1 <1>        0.000
     22 H           1.2609    3.4192   -3.6588 H.spc      1 <1>        0.000
     23 H           2.1613    1.1183   -3.3496 H.spc      1 <1>        0.000
     24 H           1.1631   -0.3895   -1.6378 H.spc      1 <1>        0.000
@<TRIPOS>BOND
     1    1    2 1  
     2    2    3 1  
     3    3    4 1  
     4    4    5 1  
     5    6    5 1  
     6    6    2 1  
     7    6    7 1  
     8    7    8 ar 
     9    8    1 1  
    10    8    9 ar 
    11    9   10 ar 
    12   10   11 ar 
    13   11   12 ar 
    14   12    7 ar 
    15    6   13 1  
    16    3   14 1  
    17    1   15 1  
    18    2   16 1  
    19    4   17 1  
    20    4   18 1  
    21    5   19 1  
    22    5   20 1  
    23    9   21 1  
    24   10   22 1  
    25   11   23 1  
    26   12   24 1  
