# Name:          seed_class_4_246_50/38664
# Creation time: Fri May 21 00:57:16 2010


@<TRIPOS>MOLECULE
seed_class_4_246_50/38664
   32    35     1     1     1
SMALL
USER_CHARGES


@<TRIPOS>ATOM
      1 N           4.6481    2.9714    1.4999 N.3        1 <1>        0.000
      2 C           4.2215    1.6839    0.9327 C.3        1 <1>        0.000
      3 C           2.7382    1.7756    0.5327 C.3        1 <1>        0.000
      4 C           2.2833    0.4993   -0.1336 C.ar       1 <1>        0.000
      5 C           3.1980   -0.2126   -0.9189 C.ar       1 <1>        0.000
      6 C           2.8137   -1.4148   -1.5247 C.ar       1 <1>        0.000
      7 C           1.5147   -1.9051   -1.3453 C.ar       1 <1>        0.000
      8 C           0.6000   -1.1933   -0.5601 C.ar       1 <1>        0.000
      9 C           0.9843    0.0089    0.0458 C.ar       1 <1>        0.000
     10 H          -0.6712   -1.6731   -0.3845 H.spc      1 <1>        0.000
     11 H           1.1386   -3.0816   -1.9382 H.spc      1 <1>        0.000
     12 C           4.5613    0.3215   -1.1343 C.ar       1 <1>        0.000
     13 C           5.0821    1.2569   -0.2322 C.ar       1 <1>        0.000
     14 C           6.3702    1.7712   -0.4228 C.ar       1 <1>        0.000
     15 C           7.1375    1.3502   -1.5155 C.ar       1 <1>        0.000
     16 C           6.6166    0.4148   -2.4177 C.ar       1 <1>        0.000
     17 C           5.3286   -0.0995   -2.2271 C.ar       1 <1>        0.000
     18 H           4.8189   -1.0148   -3.1099 H.spc      1 <1>        0.000
     19 H           7.3675    0.0029   -3.4870 H.spc      1 <1>        0.000
     20 H           8.3980    1.8535   -1.7020 H.spc      1 <1>        0.000
     21 C           6.9142    2.8198    0.5178 C.3        1 <1>        0.000
     22 C           6.0854    2.9597    1.8082 C.3        1 <1>        0.000
     23 H           3.8868    3.2422    2.7279 H.spc      1 <1>        0.000
     24 H           4.3438    0.9139    1.6945 H.spc      1 <1>        0.000
     25 H           2.6131    2.6017   -0.1673 H.spc      1 <1>        0.000
     26 H           2.1411    1.9358    1.4304 H.spc      1 <1>        0.000
     27 H           3.5259   -1.9691   -2.1360 H.spc      1 <1>        0.000
     28 H           0.2721    0.5631    0.6572 H.spc      1 <1>        0.000
     29 H           6.8850    3.7780   -0.0009 H.spc      1 <1>        0.000
     30 H           7.9227    2.5194    0.8021 H.spc      1 <1>        0.000
     31 H           6.3496    3.8968    2.2983 H.spc      1 <1>        0.000
     32 H           6.3003    2.1130    2.4601 H.spc      1 <1>        0.000
@<TRIPOS>BOND
     1    1    2 1  
     2    2    3 1  
     3    3    4 1  
     4    4    5 ar 
     5    5    6 ar 
     6    6    7 ar 
     7    7    8 ar 
     8    8    9 ar 
     9    9    4 ar 
    10    8   10 1  
    11    7   11 1  
    12    5   12 1  
    13   12   13 ar 
    14   13    2 1  
    15   13   14 ar 
    16   14   15 ar 
    17   15   16 ar 
    18   16   17 ar 
    19   17   12 ar 
    20   17   18 1  
    21   16   19 1  
    22   15   20 1  
    23   14   21 1  
    24   21   22 1  
    25   22    1 1  
    26    1   23 1  
    27    2   24 1  
    28    3   25 1  
    29    3   26 1  
    30    6   27 1  
    31    9   28 1  
    32   21   29 1  
    33   21   30 1  
    34   22   31 1  
    35   22   32 1  
