# Name:          seed_class_4_274_37/38664
# Creation time: Fri May 21 00:57:16 2010


@<TRIPOS>MOLECULE
seed_class_4_274_37/38664
   17    18     1     1     1
SMALL
USER_CHARGES


@<TRIPOS>ATOM
      1 H           1.3715   -0.3318    3.5040 H.spc      1 <1>        0.000
      2 C          -0.0100   -0.0370    3.5867 C.ar       1 <1>        0.000
      3 C          -0.9122   -0.6611    2.7169 C.ar       1 <1>        0.000
      4 C          -2.2790   -0.3695    2.7986 C.ar       1 <1>        0.000
      5 C          -2.7437    0.5462    3.7502 C.ar       1 <1>        0.000
      6 C          -1.8415    1.1703    4.6201 C.ar       1 <1>        0.000
      7 C          -0.4747    0.8787    4.5383 C.ar       1 <1>        0.000
      8 C          -4.2127    0.6560    3.6077 C.2        1 <1>        0.000
      9 N          -4.6373   -0.1398    2.6303 N.am       1 <1>        0.000
     10 C          -3.4928   -0.8471    2.0380 C.3        1 <1>        0.000
     11 H          -6.0371   -0.2893    2.2071 H.spc      1 <1>        0.000
     12 O          -4.9354    1.3778    4.2931 O.2        1 <1>        0.000
     13 H          -0.5504   -1.3741    1.9760 H.spc      1 <1>        0.000
     14 H          -2.2033    1.8832    5.3610 H.spc      1 <1>        0.000
     15 H           0.2277    1.3646    5.2155 H.spc      1 <1>        0.000
     16 H          -3.4029   -0.6354    0.9725 H.spc      1 <1>        0.000
     17 H          -3.6103   -1.9280    2.1152 H.spc      1 <1>        0.000
@<TRIPOS>BOND
     1    1    2 1  
     2    2    3 ar 
     3    3    4 ar 
     4    4    5 ar 
     5    5    6 ar 
     6    6    7 ar 
     7    7    2 ar 
     8    5    8 1  
     9    8    9 am 
    10    9   10 1  
    11   10    4 1  
    12    9   11 1  
    13    8   12 2  
    14    3   13 1  
    15    6   14 1  
    16    7   15 1  
    17   10   16 1  
    18   10   17 1  
