# Name:          seed_class_4_257_44/38664
# Creation time: Fri May 21 00:57:16 2010


@<TRIPOS>MOLECULE
seed_class_4_257_44/38664
   13    13     1     1     1
SMALL
USER_CHARGES


@<TRIPOS>ATOM
      1 H          -1.3652    2.4922   -0.3499 H.spc      1 <1>        0.000
      2 C          -0.1031    2.2472    0.1235 C.2        1 <1>        0.000
      3 C           0.7419    1.4878   -0.5870 C.2        1 <1>        0.000
      4 C           2.1176    1.1848   -0.1330 C.2        1 <1>        0.000
      5 C           2.5479    1.7581    1.1618 C.2        1 <1>        0.000
      6 C           1.7371    2.5228    1.9058 C.2        1 <1>        0.000
      7 C           0.3331    2.8334    1.4449 C.3        1 <1>        0.000
      8 H          -0.6493    2.3946    2.5270 H.spc      1 <1>        0.000
      9 H           0.1546    4.3481    1.3950 H.spc      1 <1>        0.000
     10 H           2.1868    3.0282    3.0972 H.spc      1 <1>        0.000
     11 H           3.9165    1.4779    1.6503 H.spc      1 <1>        0.000
     12 O           2.8732    0.4845   -0.8049 O.2        1 <1>        0.000
     13 H           0.2716    0.9181   -1.9040 H.spc      1 <1>        0.000
@<TRIPOS>BOND
     1    1    2 1  
     2    2    3 2  
     3    3    4 1  
     4    4    5 1  
     5    5    6 2  
     6    6    7 1  
     7    7    2 1  
     8    7    8 1  
     9    7    9 1  
    10    6   10 1  
    11    5   11 1  
    12    4   12 2  
    13    3   13 1  
