# Name:          seed_class_5_410_89/34898
# Creation time: Fri May 21 00:57:18 2010


@<TRIPOS>MOLECULE
seed_class_5_410_89/34898
   40    43     1     1     1
SMALL
USER_CHARGES


@<TRIPOS>ATOM
      1 H          -5.0660   -0.1646   -1.3618 H.spc      1 <1>        0.000
      2 C          -4.5354   -1.4038   -0.8010 C.3        1 <1>        0.000
      3 C          -3.0060   -1.3441   -0.6307 C.3        1 <1>        0.000
      4 C          -2.0618   -0.7383   -1.6857 C.3        1 <1>        0.000
      5 C          -0.5891   -0.8366   -1.2463 C.3        1 <1>        0.000
      6 C          -0.3707   -0.1981    0.1380 C.3        1 <1>        0.000
      7 C          -1.3148   -0.8039    1.1930 C.3        1 <1>        0.000
      8 C          -1.0142   -0.2179    2.5850 C.3        1 <1>        0.000
      9 C           0.4276   -0.5548    3.0085 C.3        1 <1>        0.000
     10 C           1.4455   -0.3200    1.9182 C.ar       1 <1>        0.000
     11 C           1.0728   -0.1536    0.5790 C.ar       1 <1>        0.000
     12 C           2.0517    0.0618   -0.3984 C.ar       1 <1>        0.000
     13 C           3.4033    0.1108   -0.0367 C.ar       1 <1>        0.000
     14 C           3.7760   -0.0556    1.3025 C.ar       1 <1>        0.000
     15 C           2.7971   -0.2710    2.2799 C.ar       1 <1>        0.000
     16 O           5.0986   -0.0076    1.6564 O.3        1 <1>        0.000
     17 H           6.0605    0.2376    0.6272 H.spc      1 <1>        0.000
     18 C          -2.7875   -0.7056    0.7535 C.3        1 <1>        0.000
     19 C          -3.9649   -1.2197    1.6027 C.3        1 <1>        0.000
     20 C          -5.0671   -1.6601    0.6214 C.3        1 <1>        0.000
     21 H          -2.5583   -2.8028   -0.6097 H.spc      1 <1>        0.000
     22 H          -4.9277   -2.4377   -1.7077 H.spc      1 <1>        0.000
     23 H          -2.3151    0.3142   -1.8126 H.spc      1 <1>        0.000
     24 H          -2.1825   -1.2925   -2.6165 H.spc      1 <1>        0.000
     25 H           0.0248   -0.3047   -1.9731 H.spc      1 <1>        0.000
     26 H          -0.3152   -1.8900   -1.1882 H.spc      1 <1>        0.000
     27 H          -0.6420    0.8523    0.0324 H.spc      1 <1>        0.000
     28 H          -1.1258   -1.8740    1.2780 H.spc      1 <1>        0.000
     29 H          -1.7067   -0.6479    3.3086 H.spc      1 <1>        0.000
     30 H          -1.1294    0.8653    2.5469 H.spc      1 <1>        0.000
     31 H           0.4560   -1.6149    3.2607 H.spc      1 <1>        0.000
     32 H           0.6849    0.0973    3.8431 H.spc      1 <1>        0.000
     33 H           1.7615    0.1914   -1.4410 H.spc      1 <1>        0.000
     34 H           4.1654    0.2785   -0.7977 H.spc      1 <1>        0.000
     35 H           3.0873   -0.4006    3.3225 H.spc      1 <1>        0.000
     36 H          -2.8541    0.3792    0.8364 H.spc      1 <1>        0.000
     37 H          -4.3306   -0.4385    2.2691 H.spc      1 <1>        0.000
     38 H          -3.6524   -2.0531    2.2319 H.spc      1 <1>        0.000
     39 H          -5.9848   -1.0986    0.7962 H.spc      1 <1>        0.000
     40 H          -5.3058   -2.7147    0.7588 H.spc      1 <1>        0.000
@<TRIPOS>BOND
     1    2    1 1  
     2    2    3 1  
     3    3    4 1  
     4    4    5 1  
     5    5    6 1  
     6    6    7 1  
     7    7    8 1  
     8    8    9 1  
     9    9   10 1  
    10   10   11 ar 
    11   11    6 1  
    12   11   12 ar 
    13   12   13 ar 
    14   13   14 ar 
    15   14   15 ar 
    16   15   10 ar 
    17   14   16 1  
    18   16   17 1  
    19    7   18 1  
    20   18    3 1  
    21   18   19 1  
    22   19   20 1  
    23   20    2 1  
    24    3   21 1  
    25    2   22 1  
    26    4   23 1  
    27    4   24 1  
    28    5   25 1  
    29    5   26 1  
    30    6   27 1  
    31    7   28 1  
    32    8   29 1  
    33    8   30 1  
    34    9   31 1  
    35    9   32 1  
    36   12   33 1  
    37   13   34 1  
    38   15   35 1  
    39   18   36 1  
    40   19   37 1  
    41   19   38 1  
    42   20   39 1  
    43   20   40 1  
