# Name:          seed_class_5_464_39/34898
# Creation time: Fri May 21 00:57:19 2010


@<TRIPOS>MOLECULE
seed_class_5_464_39/34898
   21    22     1     1     1
SMALL
USER_CHARGES


@<TRIPOS>ATOM
      1 O           0.7807   -0.9579    1.3431 O.3        1 <1>        0.000
      2 C           2.0713   -1.0735    0.7382 C.3        1 <1>        0.000
      3 C           2.5965    0.3094    0.3103 C.3        1 <1>        0.000
      4 C           1.6160    0.9601   -0.6831 C.3        1 <1>        0.000
      5 C           0.1684    0.6112   -0.4323 C.ar       1 <1>        0.000
      6 C          -0.1480   -0.3222    0.5620 C.ar       1 <1>        0.000
      7 C          -1.4850   -0.6572    0.8077 C.ar       1 <1>        0.000
      8 C          -2.5055   -0.0587    0.0591 C.ar       1 <1>        0.000
      9 C          -2.1890    0.8747   -0.9352 C.ar       1 <1>        0.000
     10 C          -0.8521    1.2097   -1.1808 C.ar       1 <1>        0.000
     11 H          -0.5108    2.2165   -2.2532 H.spc      1 <1>        0.000
     12 O          -3.1877    1.4604   -1.6677 O.3        1 <1>        0.000
     13 H          -3.9475   -0.4200    0.3241 H.spc      1 <1>        0.000
     14 H          -1.8263   -1.6639    1.8801 H.spc      1 <1>        0.000
     15 H           3.0427   -1.7186    1.7226 H.spc      1 <1>        0.000
     16 H           1.9990   -2.0011   -0.4714 H.spc      1 <1>        0.000
     17 H           3.5681    0.1915   -0.1695 H.spc      1 <1>        0.000
     18 H           2.6907    0.9456    1.1904 H.spc      1 <1>        0.000
     19 H           1.8703    0.5924   -1.6772 H.spc      1 <1>        0.000
     20 H           1.7126    2.0402   -0.5732 H.spc      1 <1>        0.000
     21 H          -4.0375    1.1230   -1.3752 H.spc      1 <1>        0.000
@<TRIPOS>BOND
     1    1    2 1  
     2    2    3 1  
     3    3    4 1  
     4    4    5 1  
     5    5    6 ar 
     6    6    1 1  
     7    6    7 ar 
     8    7    8 ar 
     9    8    9 ar 
    10    9   10 ar 
    11   10    5 ar 
    12   10   11 1  
    13    9   12 1  
    14    8   13 1  
    15    7   14 1  
    16    2   15 1  
    17    2   16 1  
    18    3   17 1  
    19    3   18 1  
    20    4   19 1  
    21    4   20 1  
    22   12   21 1  
