# Name:          seed_class_4_334_25/38664
# Creation time: Fri May 21 00:57:17 2010


@<TRIPOS>MOLECULE
seed_class_4_334_25/38664
   17    18     1     1     1
SMALL
USER_CHARGES


@<TRIPOS>ATOM
      1 H           0.9453   -0.1735   -1.4403 H.spc      1 <1>        0.000
      2 N          -0.0696    0.2770   -0.4770 N.am       1 <1>        0.000
      3 S          -1.5360    0.7037   -1.3314 S.o2       1 <1>        0.000
      4 C          -2.6306   -0.5395   -0.5302 C.ar       1 <1>        0.000
      5 C          -1.7680   -1.2018    0.3514 C.ar       1 <1>        0.000
      6 C          -2.2516   -2.2403    1.1561 C.ar       1 <1>        0.000
      7 C          -3.5979   -2.6165    1.0793 C.ar       1 <1>        0.000
      8 C          -4.4606   -1.9542    0.1977 C.ar       1 <1>        0.000
      9 C          -3.9769   -0.9157   -0.6070 C.ar       1 <1>        0.000
     10 C          -0.3681   -0.7216    0.3492 C.2        1 <1>        0.000
     11 O           0.4834   -1.2247    1.0806 O.2        1 <1>        0.000
     12 O          -1.4331    0.5353   -2.7477 O.2        1 <1>        0.000
     13 O          -1.9511    2.0526   -1.1010 O.2        1 <1>        0.000
     14 H          -1.5799   -2.7560    1.8424 H.spc      1 <1>        0.000
     15 H          -3.9744   -3.4250    1.7059 H.spc      1 <1>        0.000
     16 H          -5.5088   -2.2471    0.1379 H.spc      1 <1>        0.000
     17 H          -4.6485   -0.4000   -1.2933 H.spc      1 <1>        0.000
@<TRIPOS>BOND
     1    1    2 1  
     2    2    3 1  
     3    3    4 1  
     4    4    5 ar 
     5    5    6 ar 
     6    6    7 ar 
     7    7    8 ar 
     8    8    9 ar 
     9    9    4 ar 
    10    5   10 1  
    11   10    2 am 
    12   10   11 2  
    13    3   12 2  
    14    3   13 2  
    15    6   14 1  
    16    7   15 1  
    17    8   16 1  
    18    9   17 1  
