# Name:          seed_class_4_172_267/38664
# Creation time: Fri May 21 00:57:15 2010


@<TRIPOS>MOLECULE
seed_class_4_172_267/38664
   22    23     1     1     1
SMALL
USER_CHARGES


@<TRIPOS>ATOM
      1 H           3.1325   -1.6411   -2.5867 H.spc      1 <1>        0.000
      2 C           4.5298   -1.6703   -1.9690 C.3        1 <1>        0.000
      3 C           5.5852   -1.8507   -3.0758 C.3        1 <1>        0.000
      4 C           6.9983   -1.6078   -2.5138 C.3        1 <1>        0.000
      5 C           7.1270   -0.1676   -1.9839 C.3        1 <1>        0.000
      6 C           5.9553    0.2674   -1.1366 C.ar       1 <1>        0.000
      7 C           4.7434   -0.4335   -1.1295 C.ar       1 <1>        0.000
      8 C           3.6842    0.0078   -0.3274 C.ar       1 <1>        0.000
      9 C           3.8369    1.1500    0.4676 C.ar       1 <1>        0.000
     10 C           5.0488    1.8509    0.4605 C.ar       1 <1>        0.000
     11 C           6.1080    1.4096   -0.3416 C.ar       1 <1>        0.000
     12 H           5.1982    2.9686    1.2385 H.spc      1 <1>        0.000
     13 H           4.6335   -2.5232   -1.2983 H.spc      1 <1>        0.000
     14 H           5.3912   -1.1322   -3.8722 H.spc      1 <1>        0.000
     15 H           5.5260   -2.8688   -3.4606 H.spc      1 <1>        0.000
     16 H           7.7272   -1.7589   -3.3101 H.spc      1 <1>        0.000
     17 H           7.1785   -2.3042   -1.6948 H.spc      1 <1>        0.000
     18 H           7.1727    0.4968   -2.8468 H.spc      1 <1>        0.000
     19 H           8.0182   -0.1267   -1.3576 H.spc      1 <1>        0.000
     20 H           2.7407   -0.5379   -0.3219 H.spc      1 <1>        0.000
     21 H           3.0122    1.4936    1.0921 H.spc      1 <1>        0.000
     22 H           7.0515    1.9553   -0.3471 H.spc      1 <1>        0.000
@<TRIPOS>BOND
     1    1    2 1  
     2    2    3 1  
     3    3    4 1  
     4    4    5 1  
     5    5    6 1  
     6    6    7 ar 
     7    7    2 1  
     8    7    8 ar 
     9    8    9 ar 
    10    9   10 ar 
    11   10   11 ar 
    12   11    6 ar 
    13   10   12 1  
    14    2   13 1  
    15    3   14 1  
    16    3   15 1  
    17    4   16 1  
    18    4   17 1  
    19    5   18 1  
    20    5   19 1  
    21    8   20 1  
    22    9   21 1  
    23   11   22 1  
