# Name:          seed_class_2_14_18224/95646
# Creation time: Fri May 21 00:57:12 2010


@<TRIPOS>MOLECULE
seed_class_2_14_18224/95646
    6     5     1     1     1
SMALL
USER_CHARGES


@<TRIPOS>ATOM
      1 H          -2.6997   -0.2572   -0.3455 H.spc      1 <1>        0.000
      2 C          -4.1132   -0.5857   -0.0546 C.2        1 <1>        0.000
      3 O          -4.3862   -1.4107    0.8159 O.2        1 <1>        0.000
      4 N          -5.0881    0.0112   -0.7344 N.am       1 <1>        0.000
      5 H          -6.4824   -0.1191   -0.2873 H.spc      1 <1>        0.000
      6 H          -4.8683    0.5594   -1.5660 H.spc      1 <1>        0.000
@<TRIPOS>BOND
     1    1    2 1  
     2    2    3 2  
     3    2    4 am 
     4    4    5 1  
     5    4    6 1  
