# Name:          seed_class_3_97_95/26467
# Creation time: Fri May 21 00:57:14 2010


@<TRIPOS>MOLECULE
seed_class_3_97_95/26467
   11    10     1     1     1
SMALL
USER_CHARGES


@<TRIPOS>ATOM
      1 S           0.0572    2.2992   -1.6051 S.o2       1 <1>        0.000
      2 O           0.0172    3.6627   -1.1759 O.2        1 <1>        0.000
      3 O          -0.1289    2.2398   -3.0217 O.2        1 <1>        0.000
      4 N          -1.2171    1.4001   -0.8112 N.am       1 <1>        0.000
      5 C          -1.6331    0.2445   -1.3215 C.2        1 <1>        0.000
      6 O          -1.1499   -0.1744   -2.3956 O.2        1 <1>        0.000
      7 N          -2.5631   -0.4654   -0.6892 N.am       1 <1>        0.000
      8 H          -2.9706   -1.7765   -1.2145 H.spc      1 <1>        0.000
      9 H           1.6878    1.5666   -1.1695 H.spc      1 <1>        0.000
     10 H          -1.6408    1.7623    0.0430 H.spc      1 <1>        0.000
     11 H          -2.9936   -0.1001    0.1603 H.spc      1 <1>        0.000
@<TRIPOS>BOND
     1    1    2 2  
     2    1    3 2  
     3    1    4 1  
     4    4    5 am 
     5    5    6 2  
     6    5    7 am 
     7    7    8 1  
     8    1    9 1  
     9    4   10 1  
    10    7   11 1  
