# Name:          seed_class_4_367_20/38664
# Creation time: Fri May 21 00:57:18 2010


@<TRIPOS>MOLECULE
seed_class_4_367_20/38664
   30    33     1     1     1
SMALL
USER_CHARGES


@<TRIPOS>ATOM
      1 O           2.8200   -1.2352    1.7389 O.3        1 <1>        0.000
      2 C           3.1982   -1.2785    0.3604 C.3        1 <1>        0.000
      3 C           2.5743   -0.0994   -0.4092 C.3        1 <1>        0.000
      4 O           3.4935    0.9946   -0.3537 O.3        1 <1>        0.000
      5 C           4.7130    0.6067    0.0762 C.2        1 <1>        0.000
      6 C           4.6849   -0.8770    0.3554 C.3        1 <1>        0.000
      7 O           5.6806    1.3364    0.2164 O.2        1 <1>        0.000
      8 C           1.1373    0.1539   -0.0206 C.2        1 <1>        0.000
      9 C           0.5962   -0.4543    1.0438 C.2        1 <1>        0.000
     10 C           1.4083   -1.4103    1.8845 C.3        1 <1>        0.000
     11 H           1.0281   -2.8485    1.5444 H.spc      1 <1>        0.000
     12 C          -0.8070   -0.2351    1.4600 C.2        1 <1>        0.000
     13 C          -1.6274    0.6971    0.6544 C.ar       1 <1>        0.000
     14 C          -1.0745    1.3393   -0.4600 C.ar       1 <1>        0.000
     15 C          -1.8545    2.2201   -1.2188 C.ar       1 <1>        0.000
     16 C          -3.1874    2.4588   -0.8631 C.ar       1 <1>        0.000
     17 C          -3.7403    1.8167    0.2513 C.ar       1 <1>        0.000
     18 C          -2.9603    0.9358    1.0101 C.ar       1 <1>        0.000
     19 H          -3.5013    0.3074    2.1006 H.spc      1 <1>        0.000
     20 H          -5.0446    2.0502    0.5993 H.spc      1 <1>        0.000
     21 C           0.3341    1.0895   -0.8391 C.2        1 <1>        0.000
     22 O           0.8283    1.6492   -1.8166 O.2        1 <1>        0.000
     23 O          -1.2757   -0.8082    2.4422 O.2        1 <1>        0.000
     24 H           2.9273   -2.2462   -0.0618 H.spc      1 <1>        0.000
     25 H           2.4462   -0.3219   -1.4685 H.spc      1 <1>        0.000
     26 H           5.1602   -1.1089    1.3085 H.spc      1 <1>        0.000
     27 H           5.2416   -1.4319   -0.3997 H.spc      1 <1>        0.000
     28 H           1.1718   -1.1896    2.9254 H.spc      1 <1>        0.000
     29 H          -1.4241    2.7200   -2.0865 H.spc      1 <1>        0.000
     30 H          -3.7947    3.1446   -1.4539 H.spc      1 <1>        0.000
@<TRIPOS>BOND
     1    1    2 1  
     2    2    3 1  
     3    3    4 1  
     4    4    5 1  
     5    5    6 1  
     6    6    2 1  
     7    5    7 2  
     8    3    8 1  
     9    8    9 2  
    10    9   10 1  
    11   10    1 1  
    12   10   11 1  
    13    9   12 1  
    14   12   13 1  
    15   13   14 ar 
    16   14   15 ar 
    17   15   16 ar 
    18   16   17 ar 
    19   17   18 ar 
    20   18   13 ar 
    21   18   19 1  
    22   17   20 1  
    23   14   21 1  
    24   21    8 1  
    25   21   22 2  
    26   12   23 2  
    27    2   24 1  
    28    3   25 1  
    29    6   26 1  
    30    6   27 1  
    31   10   28 1  
    32   15   29 1  
    33   16   30 1  
