# Name:          seed_class_2_48_96/95646
# Creation time: Fri May 21 00:57:14 2010


@<TRIPOS>MOLECULE
seed_class_2_48_96/95646
   16    17     1     1     1
SMALL
USER_CHARGES


@<TRIPOS>ATOM
      1 H           2.0701   -0.6963    2.6531 H.spc      1 <1>        0.000
      2 C           0.9412   -0.1769    1.8492 C.ar       1 <1>        0.000
      3 N           1.1762    0.7389    0.8997 N.ar       1 <1>        0.000
      4 C           0.1767    1.2297    0.1542 C.ar       1 <1>        0.000
      5 C          -1.1295    0.7764    0.3739 C.ar       1 <1>        0.000
      6 C          -1.3404   -0.1807    1.3736 C.ar       1 <1>        0.000
      7 N          -0.2974   -0.6311    2.0841 N.ar       1 <1>        0.000
      8 H          -2.6435   -0.6683    1.6313 H.spc      1 <1>        0.000
      9 C          -2.1841    1.2799   -0.3970 C.ar       1 <1>        0.000
     10 C          -1.9325    2.2366   -1.3877 C.ar       1 <1>        0.000
     11 C          -0.6263    2.6899   -1.6074 C.ar       1 <1>        0.000
     12 C           0.4284    2.1865   -0.8364 C.ar       1 <1>        0.000
     13 H          -3.2011    0.9271   -0.2259 H.spc      1 <1>        0.000
     14 H          -2.7536    2.6285   -1.9880 H.spc      1 <1>        0.000
     15 H          -0.4304    3.4348   -2.3787 H.spc      1 <1>        0.000
     16 H           1.4454    2.5395   -1.0074 H.spc      1 <1>        0.000
@<TRIPOS>BOND
     1    1    2 1  
     2    2    3 ar 
     3    3    4 ar 
     4    4    5 ar 
     5    5    6 ar 
     6    6    7 ar 
     7    7    2 ar 
     8    6    8 1  
     9    5    9 ar 
    10    9   10 ar 
    11   10   11 ar 
    12   11   12 ar 
    13   12    4 ar 
    14    9   13 1  
    15   10   14 1  
    16   11   15 1  
    17   12   16 1  
