# Name:          seed_class_1_11_376/603445
# Creation time: Fri May 21 00:57:11 2010


@<TRIPOS>MOLECULE
seed_class_1_11_376/603445
    5     4     1     1     1
SMALL
USER_CHARGES


@<TRIPOS>ATOM
      1 H           5.3961    1.4106    1.2348 H.spc      1 <1>        0.000
      2 H           4.5752    3.0943    2.1178 H.spc      1 <1>        0.000
      3 H           5.2996    2.0550    3.2004 H.spc      1 <1>        0.000
      4 H           6.2369    3.0251    2.2221 H.spc      1 <1>        0.000
      5 N           5.3753    2.4820    2.2772 N.4        1 <1>        0.000
@<TRIPOS>BOND
     1    5    1 1  
     2    5    2 1  
     3    5    3 1  
     4    5    4 1  
