# Name:          seed_class_3_121_36/26467
# Creation time: Fri May 21 00:57:15 2010


@<TRIPOS>MOLECULE
seed_class_3_121_36/26467
    6     5     1     1     1
SMALL
USER_CHARGES


@<TRIPOS>ATOM
      1 H          -1.8135    3.1428    0.7154 H.spc      1 <1>        0.000
      2 C          -2.6865    2.1917    1.3973 C.1        1 <1>        0.000
      3 C          -3.4040    1.4100    1.9578 C.1        1 <1>        0.000
      4 C          -4.2231    0.5176    2.5977 C.1        1 <1>        0.000
      5 C          -4.9406   -0.2641    3.1581 C.1        1 <1>        0.000
      6 H          -5.8136   -1.2152    3.8400 H.spc      1 <1>        0.000
@<TRIPOS>BOND
     1    1    2 1  
     2    2    3 3  
     3    3    4 1  
     4    4    5 3  
     5    5    6 1  
