# Name:          seed_class_4_168_310/38664
# Creation time: Fri May 21 00:57:15 2010


@<TRIPOS>MOLECULE
seed_class_4_168_310/38664
   13    13     1     1     1
SMALL
USER_CHARGES


@<TRIPOS>ATOM
      1 H           2.6363    1.3234   -1.8542 H.spc      1 <1>        0.000
      2 C           2.2909    0.0006   -1.3141 C.2        1 <1>        0.000
      3 C           3.2235   -0.8439   -0.8529 C.2        1 <1>        0.000
      4 N           2.8919   -2.0654   -0.3554 N.pl3      1 <1>        0.000
      5 C           1.7319   -2.0812    0.3544 C.2        1 <1>        0.000
      6 C           0.6810   -1.3360   -0.0095 C.2        1 <1>        0.000
      7 C           0.8638   -0.4882   -1.2456 C.3        1 <1>        0.000
      8 H          -0.0839    0.6869   -1.2121 H.spc      1 <1>        0.000
      9 H          -0.5863   -1.3444    0.7549 H.spc      1 <1>        0.000
     10 H           1.6274   -2.9566    1.5804 H.spc      1 <1>        0.000
     11 H           4.6752   -0.4299   -0.8863 H.spc      1 <1>        0.000
     12 H           3.4635   -2.8974   -0.5019 H.spc      1 <1>        0.000
     13 H           0.6457   -1.0884   -2.1289 H.spc      1 <1>        0.000
@<TRIPOS>BOND
     1    1    2 1  
     2    2    3 2  
     3    3    4 1  
     4    4    5 1  
     5    5    6 2  
     6    6    7 1  
     7    7    2 1  
     8    7    8 1  
     9    6    9 1  
    10    5   10 1  
    11    3   11 1  
    12    4   12 1  
    13    7   13 1  
