# Name:          seed_class_5_542_23/34898
# Creation time: Fri May 21 00:57:20 2010


@<TRIPOS>MOLECULE
seed_class_5_542_23/34898
   18    18     1     1     1
SMALL
USER_CHARGES


@<TRIPOS>ATOM
      1 N          -8.8715   -0.3496   -0.3675 N.pl3      1 <1>        0.000
      2 C          -8.1950   -1.2241   -1.1595 C.2        1 <1>        0.000
      3 N          -8.8582   -2.0793   -1.9152 N.2        1 <1>        0.000
      4 C          -6.7151   -1.2167   -1.1741 C.ar       1 <1>        0.000
      5 C          -6.0186   -2.1168   -1.9895 C.ar       1 <1>        0.000
      6 C          -4.6187   -2.1099   -2.0034 C.ar       1 <1>        0.000
      7 C          -3.9152   -1.2029   -1.2018 C.ar       1 <1>        0.000
      8 C          -4.6117   -0.3029   -0.3864 C.ar       1 <1>        0.000
      9 C          -6.0116   -0.3098   -0.3725 C.ar       1 <1>        0.000
     10 O          -2.5453   -1.1962   -1.2153 O.3        1 <1>        0.000
     11 H          -1.8704   -0.2483   -0.3840 H.spc      1 <1>        0.000
     12 H          -9.8914   -0.3546   -0.3574 H.spc      1 <1>        0.000
     13 H          -8.3589    0.3112    0.2164 H.spc      1 <1>        0.000
     14 H          -8.3508   -2.7351   -2.5092 H.spc      1 <1>        0.000
     15 H          -6.5663   -2.8230   -2.6135 H.spc      1 <1>        0.000
     16 H          -4.0765   -2.8106   -2.6383 H.spc      1 <1>        0.000
     17 H          -4.0640    0.4032    0.2377 H.spc      1 <1>        0.000
     18 H          -6.5538    0.3909    0.2624 H.spc      1 <1>        0.000
@<TRIPOS>BOND
     1    1    2 1  
     2    2    3 2  
     3    2    4 1  
     4    4    5 ar 
     5    5    6 ar 
     6    6    7 ar 
     7    7    8 ar 
     8    8    9 ar 
     9    9    4 ar 
    10    7   10 1  
    11   10   11 1  
    12    1   12 1  
    13    1   13 1  
    14    3   14 1  
    15    5   15 1  
    16    6   16 1  
    17    8   17 1  
    18    9   18 1  
