# Name:          seed_class_5_440_47/34898
# Creation time: Fri May 21 00:57:19 2010


@<TRIPOS>MOLECULE
seed_class_5_440_47/34898
   12    12     1     1     1
SMALL
USER_CHARGES


@<TRIPOS>ATOM
      1 F           4.7437    0.7520   -6.3477 F          1 <1>        0.000
      2 C           5.2585    0.2557   -5.2026 C.ar       1 <1>        0.000
      3 C           6.5018   -0.3880   -5.2153 C.ar       1 <1>        0.000
      4 C           7.0356   -0.9027   -4.0279 C.ar       1 <1>        0.000
      5 C           6.3263   -0.7739   -2.8278 C.ar       1 <1>        0.000
      6 C           5.0831   -0.1302   -2.8151 C.ar       1 <1>        0.000
      7 C           4.5492    0.3845   -4.0025 C.ar       1 <1>        0.000
      8 H           4.3180    0.0088   -1.5207 H.spc      1 <1>        0.000
      9 F           8.2345   -1.5234   -4.0401 F          1 <1>        0.000
     10 H           7.0541   -0.4884   -6.1497 H.spc      1 <1>        0.000
     11 H           6.7419   -1.1748   -1.9033 H.spc      1 <1>        0.000
     12 H           3.5812    0.8855   -3.9926 H.spc      1 <1>        0.000
@<TRIPOS>BOND
     1    1    2 1  
     2    2    3 ar 
     3    3    4 ar 
     4    4    5 ar 
     5    5    6 ar 
     6    6    7 ar 
     7    7    2 ar 
     8    6    8 1  
     9    4    9 1  
    10    3   10 1  
    11    5   11 1  
    12    7   12 1  
