# Name:          seed_class_4_207_96/38664
# Creation time: Fri May 21 00:57:16 2010


@<TRIPOS>MOLECULE
seed_class_4_207_96/38664
   32    35     1     1     1
SMALL
USER_CHARGES


@<TRIPOS>ATOM
      1 H           3.2196   -3.0030   -0.4754 H.spc      1 <1>        0.000
      2 C           1.5590   -2.2988   -0.6256 C.3        1 <1>        0.000
      3 C           0.5411   -3.1925    0.1070 C.3        1 <1>        0.000
      4 N          -0.8027   -2.5983    0.0659 N.3        1 <1>        0.000
      5 C          -0.8466   -1.2729    0.7002 C.3        1 <1>        0.000
      6 C           0.1136   -0.2990   -0.0078 C.3        1 <1>        0.000
      7 C           1.5456   -0.8620   -0.0715 C.3        1 <1>        0.000
      8 C           0.0902    1.1165    0.5175 C.ar       1 <1>        0.000
      9 C          -1.0739    1.3891    1.2457 C.ar       1 <1>        0.000
     10 C          -1.2273    2.6261    1.8831 C.ar       1 <1>        0.000
     11 N          -2.4857    2.6090    2.5299 N.pl3      1 <1>        0.000
     12 C          -3.0883    1.4110    2.3031 C.ar       1 <1>        0.000
     13 C          -2.3080    0.6289    1.5448 C.ar       1 <1>        0.000
     14 C          -2.2669   -0.6870    0.8053 C.3        1 <1>        0.000
     15 C          -0.2165    3.5905    1.7923 C.ar       1 <1>        0.000
     16 C           0.9477    3.3179    1.0640 C.ar       1 <1>        0.000
     17 C           1.1010    2.0809    0.4266 C.ar       1 <1>        0.000
     18 H          -1.7548   -3.4923    0.7405 H.spc      1 <1>        0.000
     19 H           1.2753   -2.2571   -1.6772 H.spc      1 <1>        0.000
     20 H           0.8483   -3.2935    1.1479 H.spc      1 <1>        0.000
     21 H           0.5099   -4.1647   -0.3849 H.spc      1 <1>        0.000
     22 H          -0.5108   -1.4118    1.7278 H.spc      1 <1>        0.000
     23 H          -0.2722   -0.2187   -1.0241 H.spc      1 <1>        0.000
     24 H           1.9578   -0.8758    0.9375 H.spc      1 <1>        0.000
     25 H           2.1375   -0.2298   -0.7334 H.spc      1 <1>        0.000
     26 H          -2.8785    3.3736    3.0790 H.spc      1 <1>        0.000
     27 H          -4.0689    1.1268    2.6848 H.spc      1 <1>        0.000
     28 H          -2.6295   -0.5107   -0.2074 H.spc      1 <1>        0.000
     29 H          -2.8799   -1.3985    1.3586 H.spc      1 <1>        0.000
     30 H          -0.3359    4.5536    2.2886 H.spc      1 <1>        0.000
     31 H           1.7347    4.0687    0.9933 H.spc      1 <1>        0.000
     32 H           2.0074    1.8686   -0.1405 H.spc      1 <1>        0.000
@<TRIPOS>BOND
     1    1    2 1  
     2    2    3 1  
     3    3    4 1  
     4    4    5 1  
     5    5    6 1  
     6    6    7 1  
     7    7    2 1  
     8    6    8 1  
     9    8    9 ar 
    10    9   10 ar 
    11   10   11 ar 
    12   11   12 ar 
    13   12   13 ar 
    14   13    9 ar 
    15   13   14 1  
    16   14    5 1  
    17   10   15 ar 
    18   15   16 ar 
    19   16   17 ar 
    20   17    8 ar 
    21    4   18 1  
    22    2   19 1  
    23    3   20 1  
    24    3   21 1  
    25    5   22 1  
    26    6   23 1  
    27    7   24 1  
    28    7   25 1  
    29   11   26 1  
    30   12   27 1  
    31   14   28 1  
    32   14   29 1  
    33   15   30 1  
    34   16   31 1  
    35   17   32 1  
