#	Name:			phenanthridine
#	Creating user name:	becker
#	Creation time:		Thu Dec 19 02:54:59 2002

#	Modifying user name:	zmliu
#	Modification time:	Thu Mar 11 21:06:45 2004

@<TRIPOS>MOLECULE
phenanthridine
   23    25     1     1     0
SMALL
GAST_HUCK


@<TRIPOS>ATOM
      1 N1         -0.6710    2.1801    0.0869 N.ar      1 PHENANTHRIDINE   -0.2799 
      2 C1          0.6703    2.1661   -0.0178 C.ar      1 PHENANTHRIDINE    0.0883 
      3 C2          1.3638    0.9517   -0.0262 C.ar      1 PHENANTHRIDINE    0.0323 
      4 C3          0.6477   -0.2526    0.0511 C.ar      1 PHENANTHRIDINE    0.0133 
      5 C4         -0.7562   -0.2087   -0.0316 C.ar      1 PHENANTHRIDINE    0.0174 
      6 C5         -1.3879    1.0398    0.0596 C.ar      1 PHENANTHRIDINE    0.0554 
      7 C6         -1.5713   -1.3376   -0.2110 C.ar      1 PHENANTHRIDINE    0.0068 
      8 C7         -2.9646   -1.2396   -0.1418 C.ar      1 PHENANTHRIDINE    0.0056 
      9 C8         -3.5746    0.0029    0.0393 C.ar      1 PHENANTHRIDINE    0.0058 
     10 C9         -2.7800    1.1474    0.1210 C.ar      1 PHENANTHRIDINE    0.0143 
     11 C10         2.7618    0.9524   -0.1073 C.ar      1 PHENANTHRIDINE    0.0130 
     12 C11         3.4698   -0.2491   -0.0494 C.ar      1 PHENANTHRIDINE    0.0093 
     13 C12         2.7740   -1.4453    0.1303 C.ar      1 PHENANTHRIDINE    0.0091 
     14 C13         1.3788   -1.4395    0.2165 C.ar      1 PHENANTHRIDINE    0.0094 
     15 H1          1.1953    3.1126   -0.0900 H.spc     1 PHENANTHRIDINE   -1.0000 
     16 H2         -1.1562   -2.3151   -0.4201 H.spc     1 PHENANTHRIDINE   -1.0000 
     17 H3         -3.5771   -2.1316   -0.2324 H.spc     1 PHENANTHRIDINE   -1.0000 
     18 H4         -4.6552    0.0788    0.1116 H.spc     1 PHENANTHRIDINE   -1.0000 
     19 H5         -3.2445    2.1224    0.2313 H.spc     1 PHENANTHRIDINE   -1.0000 
     20 H6          3.3103    1.8834   -0.2143 H.spc     1 PHENANTHRIDINE   -1.0000 
     21 H7          4.5518   -0.2531   -0.1386 H.spc     1 PHENANTHRIDINE   -1.0000 
     22 H8          3.3202   -2.3809    0.2058 H.spc     1 PHENANTHRIDINE   -1.0000 
     23 H9          0.8949   -2.3844    0.4270 H.spc     1 PHENANTHRIDINE   -1.0000 
@<TRIPOS>BOND
     1    1    2 ar   
     2    1    6 ar   
     3    2    3 ar   
     4    3    4 ar   
     5    3   11 ar   
     6    4    5 ar   
     7    4   14 ar   
     8    5    6 ar   
     9    5    7 ar   
    10    6   10 ar   
    11    7    8 ar   
    12    8    9 ar   
    13    9   10 ar   
    14   11   12 ar   
    15   12   13 ar   
    16   13   14 ar   
    17    2   15 1    
    18    7   16 1    
    19    8   17 1    
    20    9   18 1    
    21   10   19 1    
    22   11   20 1    
    23   12   21 1    
    24   13   22 1    
    25   14   23 1    
@<TRIPOS>SUBSTRUCTURE
     1 PHENANTHRIDINE     1 PERM              0 ****  ****    0 ROOT 
@<TRIPOS>NORMAL
@<TRIPOS>FF_PBC
FORCE_FIELD_SETUP_FEATURE Force Field Setup information
v1.0  0 0.000000 0.000000 0.000000 0.000000 0.000000 0.000000 NONE 2 0 0 0 0 0 0 0 0 0 0 0 0
