# Name:          seed_class_1_10_890/603445
# Creation time: Fri May 21 00:57:11 2010


@<TRIPOS>MOLECULE
seed_class_1_10_890/603445
    2     1     1     1     1
SMALL
USER_CHARGES


@<TRIPOS>ATOM
      1 H           1.9462    3.3159   -0.2646 H.spc      1 <1>        0.000
      2 I          -0.0668    3.7437   -0.6828 I          1 <1>        0.000
@<TRIPOS>BOND
     1    2    1 1  
