# Name:          seed_class_5_474_35/34898
# Creation time: Fri May 21 00:57:19 2010


@<TRIPOS>MOLECULE
seed_class_5_474_35/34898
   26    28     1     1     1
SMALL
USER_CHARGES


@<TRIPOS>ATOM
      1 H           0.8681    1.3922    1.6515 H.spc      1 <1>        0.000
      2 C           1.8767    2.3974    1.2868 C.3        1 <1>        0.000
      3 O           1.8667    2.6720   -0.1166 O.3        1 <1>        0.000
      4 C           2.8559    1.8036   -0.6753 C.3        1 <1>        0.000
      5 N           3.8268    1.5694    0.4033 N.am       1 <1>        0.000
      6 C           5.0593    0.8993   -0.0357 C.3        1 <1>        0.000
      7 C           5.5626    1.3390   -1.3898 C.2        1 <1>        0.000
      8 N           4.8280    2.0958   -2.2001 N.am       1 <1>        0.000
      9 C           3.4784    2.5677   -1.8586 C.3        1 <1>        0.000
     10 C           2.7501    2.8849   -3.1780 C.3        1 <1>        0.000
     11 C           3.6106    2.1989   -4.2553 C.3        1 <1>        0.000
     12 C           5.0283    2.1690   -3.6547 C.3        1 <1>        0.000
     13 O           6.6837    0.9873   -1.7537 O.2        1 <1>        0.000
     14 H           4.8430   -0.6133   -0.0393 H.spc      1 <1>        0.000
     15 C           3.2782    1.9096    1.5662 C.2        1 <1>        0.000
     16 O           3.8156    1.8395    2.6703 O.2        1 <1>        0.000
     17 H           2.3638    0.5236   -1.0807 H.spc      1 <1>        0.000
     18 H           1.5364    3.6400    2.1084 H.spc      1 <1>        0.000
     19 H           5.8295    1.1885    0.6794 H.spc      1 <1>        0.000
     20 H           3.4138    3.5313   -1.3531 H.spc      1 <1>        0.000
     21 H           2.6536    3.9572   -3.3483 H.spc      1 <1>        0.000
     22 H           1.7221    2.5227   -3.1790 H.spc      1 <1>        0.000
     23 H           3.5801    2.7339   -5.2045 H.spc      1 <1>        0.000
     24 H           3.2467    1.1995   -4.4937 H.spc      1 <1>        0.000
     25 H           5.6041    3.0501   -3.9379 H.spc      1 <1>        0.000
     26 H           5.6045    1.3210   -4.0249 H.spc      1 <1>        0.000
@<TRIPOS>BOND
     1    2    1 1  
     2    2    3 1  
     3    3    4 1  
     4    4    5 1  
     5    5    6 1  
     6    6    7 1  
     7    7    8 am 
     8    8    9 1  
     9    9    4 1  
    10    9   10 1  
    11   10   11 1  
    12   11   12 1  
    13   12    8 1  
    14    7   13 2  
    15    6   14 1  
    16    5   15 am 
    17   15    2 1  
    18   15   16 2  
    19    4   17 1  
    20    2   18 1  
    21    6   19 1  
    22    9   20 1  
    23   10   21 1  
    24   10   22 1  
    25   11   23 1  
    26   11   24 1  
    27   12   25 1  
    28   12   26 1  
