# Name:          seed_class_5_515_26/34898
# Creation time: Fri May 21 00:57:20 2010


@<TRIPOS>MOLECULE
seed_class_5_515_26/34898
   15    15     1     1     1
SMALL
USER_CHARGES


@<TRIPOS>ATOM
      1 N           9.1558   -2.7622   -2.8059 N.pl3      1 <1>        0.000
      2 C           8.1260   -2.0978   -2.1248 C.ar       1 <1>        0.000
      3 C           8.4335   -1.1927   -1.1019 C.ar       1 <1>        0.000
      4 C           7.4052   -0.5293   -0.4218 C.ar       1 <1>        0.000
      5 C           6.0695   -0.7710   -0.7645 C.ar       1 <1>        0.000
      6 C           5.7621   -1.6761   -1.7874 C.ar       1 <1>        0.000
      7 C           6.7903   -2.3395   -2.4675 C.ar       1 <1>        0.000
      8 O           5.0633   -0.1218   -0.0990 O.3        1 <1>        0.000
      9 H           3.7142   -0.4087   -0.4768 H.spc      1 <1>        0.000
     10 H          10.1289   -2.5861   -2.5561 H.spc      1 <1>        0.000
     11 H           8.9318   -3.4216   -3.5511 H.spc      1 <1>        0.000
     12 H           9.4734   -1.0045   -0.8350 H.spc      1 <1>        0.000
     13 H           7.6446    0.1754    0.3746 H.spc      1 <1>        0.000
     14 H           4.7222   -1.8643   -2.0543 H.spc      1 <1>        0.000
     15 H           6.5509   -3.0442   -3.2639 H.spc      1 <1>        0.000
@<TRIPOS>BOND
     1    1    2 1  
     2    2    3 ar 
     3    3    4 ar 
     4    4    5 ar 
     5    5    6 ar 
     6    6    7 ar 
     7    7    2 ar 
     8    5    8 1  
     9    8    9 1  
    10    1   10 1  
    11    1   11 1  
    12    3   12 1  
    13    4   13 1  
    14    6   14 1  
    15    7   15 1  
