#	Name:			tetrahydrothiophene
#	Creating user name:	becker
#	Creation time:		Thu Dec 19 02:55:05 2002

#	Modifying user name:	zmliu
#	Modification time:	Thu Mar 11 21:35:08 2004

@<TRIPOS>MOLECULE
tetrahydrothiophene
   13    13     1     1     0
SMALL
GAST_HUCK


@<TRIPOS>ATOM
      1 S1          0.0000    1.8472    0.0020 S.3       1 TETRAHYDROTHIOPHENE   -0.1403 
      2 C1          1.3457    0.6274   -0.1318 C.3       1 TETRAHYDROTHIOPHENE    0.0576 
      3 C2          0.7110   -0.7141    0.3034 C.3       1 TETRAHYDROTHIOPHENE    0.0125 
      4 C3         -0.7107   -0.7143   -0.3033 C.3       1 TETRAHYDROTHIOPHENE    0.0125 
      5 C4         -1.3459    0.6271    0.1318 C.3       1 TETRAHYDROTHIOPHENE    0.0576 
      6 H1          2.2088    0.9087    0.4917 H.spc     1 TETRAHYDROTHIOPHENE   -1.0000 
      7 H2          1.6574    0.5827   -1.1873 H.spc     1 TETRAHYDROTHIOPHENE   -1.0000 
      8 H3          0.6384   -0.7520    1.4034 H.spc     1 TETRAHYDROTHIOPHENE   -1.0000 
      9 H4          1.3071   -1.5755   -0.0401 H.spc     1 TETRAHYDROTHIOPHENE   -1.0000 
     10 H5         -1.3066   -1.5758    0.0402 H.spc     1 TETRAHYDROTHIOPHENE   -1.0000 
     11 H6         -0.6379   -0.7521   -1.4032 H.spc     1 TETRAHYDROTHIOPHENE   -1.0000 
     12 H7         -2.2075    0.9091   -0.4932 H.spc     1 TETRAHYDROTHIOPHENE   -1.0000 
     13 H8         -1.6598    0.5815    1.1866 H.spc     1 TETRAHYDROTHIOPHENE   -1.0000 
@<TRIPOS>BOND
     1    1    2 1    
     2    1    5 1    
     3    2    3 1    
     4    3    4 1    
     5    4    5 1    
     6    2    6 1    
     7    2    7 1    
     8    3    8 1    
     9    3    9 1    
    10    4   10 1    
    11    4   11 1    
    12    5   12 1    
    13    5   13 1    
@<TRIPOS>SUBSTRUCTURE
     1 TETRAHYDROTHIOPHENE     1 PERM              0 ****  ****    0 ROOT 
@<TRIPOS>NORMAL
@<TRIPOS>FF_PBC
FORCE_FIELD_SETUP_FEATURE Force Field Setup information
v1.0  0 0.000000 0.000000 0.000000 0.000000 0.000000 0.000000 NONE 2 0 0 0 0 0 0 0 0 0 0 0 0
