# Name:          seed_class_3_110_56/26467
# Creation time: Fri May 21 00:57:14 2010


@<TRIPOS>MOLECULE
seed_class_3_110_56/26467
    4     3     1     1     1
SMALL
USER_CHARGES


@<TRIPOS>ATOM
      1 H          -1.5209    0.4848   -0.2042 H.spc      1 <1>        0.000
      2 N          -2.8147    0.3926    0.0407 N.2        1 <1>        0.000
      3 O          -3.3926   -0.7090    0.6829 O.3        1 <1>        0.000
      4 H          -4.8127   -0.7196    0.8504 H.spc      1 <1>        0.000
@<TRIPOS>BOND
     1    1    2 2  
     2    2    3 1  
     3    3    4 1  
