# Name:          seed_class_5_559_21/34898
# Creation time: Fri May 21 00:57:20 2010


@<TRIPOS>MOLECULE
seed_class_5_559_21/34898
   35    35     1     1     1
SMALL
USER_CHARGES


@<TRIPOS>ATOM
      1 O          -7.1099    2.0949    0.5913 O.3        1 <1>        0.000
      2 C          -6.0341    1.9387    1.3402 C.2        1 <1>        0.000
      3 O          -6.1478    1.7625    2.5420 O.2        1 <1>        0.000
      4 C          -4.6900    1.9774    0.7218 C.2        1 <1>        0.000
      5 C          -3.8423    0.9545    0.8969 C.2        1 <1>        0.000
      6 H          -4.2584   -0.2377    1.7250 H.spc      1 <1>        0.000
      7 C          -2.4982    0.9932    0.2785 C.2        1 <1>        0.000
      8 C          -1.4395    0.5149    0.9463 C.2        1 <1>        0.000
      9 C          -0.0954    0.5536    0.3280 C.2        1 <1>        0.000
     10 C           0.7358   -0.4883    0.4660 C.2        1 <1>        0.000
     11 H           0.3012   -1.7019    1.2525 H.spc      1 <1>        0.000
     12 C           2.0799   -0.4497   -0.1523 C.2        1 <1>        0.000
     13 C           3.0343   -1.2922    0.2658 C.2        1 <1>        0.000
     14 C           4.3784   -1.2536   -0.3525 C.2        1 <1>        0.000
     15 C           4.5833   -1.9427   -1.4833 C.2        1 <1>        0.000
     16 C           5.9143   -1.9716   -2.1957 C.3        1 <1>        0.000
     17 C           6.8848   -0.8690   -1.7331 C.3        1 <1>        0.000
     18 C           6.8727   -0.7648   -0.1966 C.3        1 <1>        0.000
     19 C           5.4584   -0.4392    0.3186 C.3        1 <1>        0.000
     20 H           5.3982   -0.6456    1.8294 H.spc      1 <1>        0.000
     21 H           5.1720    1.0487    0.1377 H.spc      1 <1>        0.000
     22 H           3.4328   -2.7247   -2.0707 H.spc      1 <1>        0.000
     23 H          -6.8463    2.2218   -0.3230 H.spc      1 <1>        0.000
     24 H          -4.3897    2.8379    0.1240 H.spc      1 <1>        0.000
     25 H          -2.3695    1.4107   -0.7201 H.spc      1 <1>        0.000
     26 H          -1.5682    0.0973    1.9449 H.spc      1 <1>        0.000
     27 H           0.2184    1.4296   -0.2396 H.spc      1 <1>        0.000
     28 H           2.2935    0.2641   -0.9479 H.spc      1 <1>        0.000
     29 H           2.8207   -2.0060    1.0614 H.spc      1 <1>        0.000
     30 H           5.7208   -1.8129   -3.2566 H.spc      1 <1>        0.000
     31 H           6.3817   -2.9316   -1.9765 H.spc      1 <1>        0.000
     32 H           6.5725    0.0845   -2.1590 H.spc      1 <1>        0.000
     33 H           7.8925   -1.1158   -2.0672 H.spc      1 <1>        0.000
     34 H           7.5497    0.0338    0.1068 H.spc      1 <1>        0.000
     35 H           7.1882   -1.7201    0.2229 H.spc      1 <1>        0.000
@<TRIPOS>BOND
     1    1    2 1  
     2    2    3 2  
     3    2    4 1  
     4    4    5 2  
     5    5    6 1  
     6    5    7 1  
     7    7    8 2  
     8    8    9 1  
     9    9   10 2  
    10   10   11 1  
    11   10   12 1  
    12   12   13 2  
    13   13   14 1  
    14   14   15 2  
    15   15   16 1  
    16   16   17 1  
    17   17   18 1  
    18   18   19 1  
    19   19   14 1  
    20   19   20 1  
    21   19   21 1  
    22   15   22 1  
    23    1   23 1  
    24    4   24 1  
    25    7   25 1  
    26    8   26 1  
    27    9   27 1  
    28   12   28 1  
    29   13   29 1  
    30   16   30 1  
    31   16   31 1  
    32   17   32 1  
    33   17   33 1  
    34   18   34 1  
    35   18   35 1  
