# Name:          seed_class_5_563_20/34898
# Creation time: Fri May 21 00:57:20 2010


@<TRIPOS>MOLECULE
seed_class_5_563_20/34898
   16    17     1     1     1
SMALL
USER_CHARGES


@<TRIPOS>ATOM
      1 N          -0.5295    1.3640    0.7392 N.pl3      1 <1>        0.000
      2 C           0.6474    1.1727   -0.0226 C.ar       1 <1>        0.000
      3 N           1.0691    0.2317   -0.8783 N.ar       1 <1>        0.000
      4 C           2.2707    0.3232   -1.4644 C.ar       1 <1>        0.000
      5 N           3.0865    1.3563   -1.2138 N.ar       1 <1>        0.000
      6 C           2.7247    2.3308   -0.3681 C.ar       1 <1>        0.000
      7 C           1.4757    2.2652    0.2610 C.ar       1 <1>        0.000
      8 N           0.7842    3.0722    1.1724 N.ar       1 <1>        0.000
      9 C          -0.3867    2.5229    1.4364 C.ar       1 <1>        0.000
     10 O           3.5690    3.3811   -0.1214 O.3        1 <1>        0.000
     11 N           2.6812   -0.6788   -2.3548 N.pl3      1 <1>        0.000
     12 H          -1.6966    0.4708    0.7713 H.spc      1 <1>        0.000
     13 H          -1.1316    2.9382    2.1152 H.spc      1 <1>        0.000
     14 H           4.3750    3.2688   -0.6307 H.spc      1 <1>        0.000
     15 H           3.5941   -0.6177   -2.8057 H.spc      1 <1>        0.000
     16 H           2.0670   -1.4690   -2.5517 H.spc      1 <1>        0.000
@<TRIPOS>BOND
     1    1    2 ar 
     2    2    3 ar 
     3    3    4 ar 
     4    4    5 ar 
     5    5    6 ar 
     6    6    7 ar 
     7    7    2 ar 
     8    7    8 ar 
     9    8    9 ar 
    10    9    1 ar 
    11    6   10 1  
    12    4   11 1  
    13    1   12 1  
    14    9   13 1  
    15   10   14 1  
    16   11   15 1  
    17   11   16 1  
