# Name:          seed_class_4_287_34/38664
# Creation time: Fri May 21 00:57:16 2010


@<TRIPOS>MOLECULE
seed_class_4_287_34/38664
    9     9     1     1     1
SMALL
USER_CHARGES


@<TRIPOS>ATOM
      1 H           4.3000   -0.4910   -0.1921 H.spc      1 <1>        0.000
      2 C           3.5360   -0.0243    1.0462 C.3        1 <1>        0.000
      3 N           2.2179   -0.6667    1.1509 N.2        1 <1>        0.000
      4 C           2.1791   -1.3230    2.2956 C.2        1 <1>        0.000
      5 N           3.3829   -1.1808    2.9961 N.2        1 <1>        0.000
      6 C           4.2333   -0.4283    2.3231 C.2        1 <1>        0.000
      7 H           3.4662    1.0575    0.9321 H.spc      1 <1>        0.000
      8 H           1.3236   -1.8990    2.6485 H.spc      1 <1>        0.000
      9 H           5.2423   -0.1523    2.6294 H.spc      1 <1>        0.000
@<TRIPOS>BOND
     1    1    2 1  
     2    2    3 1  
     3    3    4 2  
     4    4    5 1  
     5    5    6 2  
     6    6    2 1  
     7    2    7 1  
     8    4    8 1  
     9    6    9 1  
