# Name:          seed_class_4_218_74/38664
# Creation time: Fri May 21 00:57:16 2010


@<TRIPOS>MOLECULE
seed_class_4_218_74/38664
   13    13     1     1     1
SMALL
USER_CHARGES


@<TRIPOS>ATOM
      1 H          -0.5484    1.5433    1.3303 H.spc      1 <1>        0.000
      2 C          -1.8753    2.0871    1.6537 C.3        1 <1>        0.000
      3 C          -2.7027    1.0332    2.4128 C.3        1 <1>        0.000
      4 C          -4.0984    1.1862    1.7801 C.3        1 <1>        0.000
      5 C          -3.8774    1.8709    0.4525 C.2        1 <1>        0.000
      6 C          -2.6373    2.3735    0.3820 C.2        1 <1>        0.000
      7 H          -4.7223   -0.1907    1.5575 H.spc      1 <1>        0.000
      8 H          -1.7299    2.9893    2.2478 H.spc      1 <1>        0.000
      9 H          -2.7038    1.1872    3.4919 H.spc      1 <1>        0.000
     10 H          -2.2994    0.0249    2.3188 H.spc      1 <1>        0.000
     11 H          -4.7706    1.7570    2.4208 H.spc      1 <1>        0.000
     12 H          -4.6233    1.9459   -0.3388 H.spc      1 <1>        0.000
     13 H          -2.2345    2.9141   -0.4745 H.spc      1 <1>        0.000
@<TRIPOS>BOND
     1    1    2 1  
     2    2    3 1  
     3    3    4 1  
     4    4    5 1  
     5    5    6 2  
     6    6    2 1  
     7    4    7 1  
     8    2    8 1  
     9    3    9 1  
    10    3   10 1  
    11    4   11 1  
    12    5   12 1  
    13    6   13 1  
