# Name:          seed_class_1_4_9352/603445
# Creation time: Fri May 21 00:57:11 2010


@<TRIPOS>MOLECULE
seed_class_1_4_9352/603445
    4     3     1     1     1
SMALL
USER_CHARGES


@<TRIPOS>ATOM
      1 H          -5.3820   -1.5594   -2.3384 H.spc      1 <1>        0.000
      2 H          -7.4196   -1.2814   -2.1186 H.spc      1 <1>        0.000
      3 H          -6.4027   -0.1871   -1.1755 H.spc      1 <1>        0.000
      4 N          -6.4941   -0.9593   -1.8356 N.pl3      1 <1>        0.000
@<TRIPOS>BOND
     1    4    1 1  
     2    4    2 1  
     3    4    3 1  
