#	Name:			cyclopentadiene
#	Creating user name:	becker
#	Creation time:		Thu Dec 19 02:54:44 2002

#	Modifying user name:	zmliu
#	Modification time:	Thu Mar 11 20:40:32 2004

@<TRIPOS>MOLECULE
cyclopentadiene
   11    11     1     1     0
SMALL
GAST_HUCK


@<TRIPOS>ATOM
      1 C1         -0.1885    1.1473    0.0002 C.2       1 CYCLOPENTADIENE   -0.0526 
      2 C2          1.0805    0.7333   -0.0001 C.2       1 CYCLOPENTADIENE    0.0790 
      3 C3          1.0808   -0.7329    0.0000 C.2       1 CYCLOPENTADIENE    0.0790 
      4 C4         -0.1881   -1.1474    0.0001 C.2       1 CYCLOPENTADIENE   -0.0526 
      5 C5         -1.1623   -0.0002   -0.0001 C.3       1 CYCLOPENTADIENE   -0.0528 
      6 H1         -0.4878    2.1954    0.0005 H.spc     1 CYCLOPENTADIENE   -1.0000 
      7 H2          1.9654    1.3690   -0.0002 H.spc     1 CYCLOPENTADIENE   -1.0000 
      8 H3          1.9660   -1.3682    0.0000 H.spc     1 CYCLOPENTADIENE   -1.0000 
      9 H4         -0.4868   -2.1956    0.0003 H.spc     1 CYCLOPENTADIENE   -1.0000 
     10 H5         -1.7893   -0.0003   -0.9047 H.spc     1 CYCLOPENTADIENE   -1.0000 
     11 H6         -1.7899   -0.0004    0.9039 H.spc     1 CYCLOPENTADIENE   -1.0000 
@<TRIPOS>BOND
     1    1    2 2    
     2    1    5 1    
     3    2    3 1    
     4    3    4 2    
     5    4    5 1    
     6    1    6 1    
     7    2    7 1    
     8    3    8 1    
     9    4    9 1    
    10    5   10 1    
    11    5   11 1    
@<TRIPOS>SUBSTRUCTURE
     1 CYCLOPENTADIENE     1 PERM              0 ****  ****    0 ROOT 
@<TRIPOS>NORMAL
@<TRIPOS>FF_PBC
FORCE_FIELD_SETUP_FEATURE Force Field Setup information
v1.0  0 0.000000 0.000000 0.000000 0.000000 0.000000 0.000000 NONE 2 0 0 0 0 0 0 0 0 0 0 0 0
