# Name:          seed_class_2_75_23/95646
# Creation time: Fri May 21 00:57:14 2010


@<TRIPOS>MOLECULE
seed_class_2_75_23/95646
    8     7     1     1     1
SMALL
USER_CHARGES


@<TRIPOS>ATOM
      1 H          -1.3529   -1.6245    0.7142 H.spc      1 <1>        0.000
      2 C          -2.5259   -0.9569    0.0371 C.2        1 <1>        0.000
      3 O          -2.3334   -0.0794   -0.8030 O.2        1 <1>        0.000
      4 N          -3.7674   -1.3179    0.3491 N.am       1 <1>        0.000
      5 C          -4.8002   -0.7428   -0.2604 C.2        1 <1>        0.000
      6 O          -4.6069    0.1108   -1.1246 O.2        1 <1>        0.000
      7 H          -6.2102   -1.1378    0.1086 H.spc      1 <1>        0.000
      8 H          -3.9274   -2.0358    1.0558 H.spc      1 <1>        0.000
@<TRIPOS>BOND
     1    1    2 1  
     2    2    3 2  
     3    2    4 am 
     4    4    5 am 
     5    5    6 2  
     6    5    7 1  
     7    4    8 1  
