# Name:          seed_class_3_114_47/26467
# Creation time: Fri May 21 00:57:14 2010


@<TRIPOS>MOLECULE
seed_class_3_114_47/26467
   14    13     1     1     1
SMALL
USER_CHARGES


@<TRIPOS>ATOM
      1 H           2.4572    3.5121   -0.7769 H.spc      1 <1>        0.000
      2 N           3.6108    3.1641   -0.1463 N.am       1 <1>        0.000
      3 C           3.6827    2.0172    0.5234 C.2        1 <1>        0.000
      4 O           2.6744    1.5471    1.0480 O.2        1 <1>        0.000
      5 C           4.9760    1.3067    0.6372 C.2        1 <1>        0.000
      6 C           5.0599    0.1792    1.3565 C.2        1 <1>        0.000
      7 C           6.3532   -0.5314    1.4703 C.2        1 <1>        0.000
      8 C           6.4539   -1.6192    2.2462 C.2        1 <1>        0.000
      9 H           7.7734   -2.3442    2.3624 H.spc      1 <1>        0.000
     10 H           4.4209    3.7826   -0.1869 H.spc      1 <1>        0.000
     11 H           5.8602    1.7005    0.1360 H.spc      1 <1>        0.000
     12 H           4.1757   -0.2146    1.8578 H.spc      1 <1>        0.000
     13 H           7.2237   -0.1699    0.9230 H.spc      1 <1>        0.000
     14 H           5.5834   -1.9808    2.7935 H.spc      1 <1>        0.000
@<TRIPOS>BOND
     1    1    2 1  
     2    2    3 am 
     3    3    4 2  
     4    3    5 1  
     5    5    6 2  
     6    6    7 1  
     7    7    8 2  
     8    8    9 1  
     9    2   10 1  
    10    5   11 1  
    11    6   12 1  
    12    7   13 1  
    13    8   14 1  
