# Name:          seed_class_5_571_20/34898
# Creation time: Fri May 21 00:57:20 2010


@<TRIPOS>MOLECULE
seed_class_5_571_20/34898
   20    20     1     1     1
SMALL
USER_CHARGES


@<TRIPOS>ATOM
      1 H          -0.0879    2.6763   -0.6440 H.spc      1 <1>        0.000
      2 C          -1.2798    2.7792   -1.5654 C.2        1 <1>        0.000
      3 O          -1.2637    3.5722   -2.5055 O.2        1 <1>        0.000
      4 C          -2.4673    1.9258   -1.3374 C.2        1 <1>        0.000
      5 C          -2.5167    0.6929   -1.8600 C.2        1 <1>        0.000
      6 C          -3.7043   -0.1604   -1.6320 C.ar       1 <1>        0.000
      7 C          -3.5434   -1.5196   -1.3373 C.ar       1 <1>        0.000
      8 C          -4.6667   -2.3268   -1.1216 C.ar       1 <1>        0.000
      9 C          -5.9509   -1.7749   -1.2005 C.ar       1 <1>        0.000
     10 C          -6.1118   -0.4157   -1.4952 C.ar       1 <1>        0.000
     11 C          -4.9885    0.3915   -1.7109 C.ar       1 <1>        0.000
     12 O          -7.0502   -2.5648   -0.9894 O.3        1 <1>        0.000
     13 O          -4.5093   -3.6569   -0.8332 O.3        1 <1>        0.000
     14 H          -3.3017    2.3002   -0.7444 H.spc      1 <1>        0.000
     15 H          -1.6823    0.3185   -2.4530 H.spc      1 <1>        0.000
     16 H          -2.5436   -1.9493   -1.2758 H.spc      1 <1>        0.000
     17 H          -7.1116    0.0140   -1.5567 H.spc      1 <1>        0.000
     18 H          -5.1138    1.4497   -1.9403 H.spc      1 <1>        0.000
     19 H          -7.8456   -2.0350   -1.0798 H.spc      1 <1>        0.000
     20 H          -3.5737   -3.8712   -0.8172 H.spc      1 <1>        0.000
@<TRIPOS>BOND
     1    1    2 1  
     2    2    3 2  
     3    2    4 1  
     4    4    5 2  
     5    5    6 1  
     6    6    7 ar 
     7    7    8 ar 
     8    8    9 ar 
     9    9   10 ar 
    10   10   11 ar 
    11   11    6 ar 
    12    9   12 1  
    13    8   13 1  
    14    4   14 1  
    15    5   15 1  
    16    7   16 1  
    17   10   17 1  
    18   11   18 1  
    19   12   19 1  
    20   13   20 1  
