# Name:          seed_class_2_28_479/95646
# Creation time: Fri May 21 00:57:13 2010


@<TRIPOS>MOLECULE
seed_class_2_28_479/95646
   17    18     1     1     1
SMALL
USER_CHARGES


@<TRIPOS>ATOM
      1 H           6.1984    3.5346    0.5811 H.spc      1 <1>        0.000
      2 C           5.7759    1.8887    0.2071 C.ar       1 <1>        0.000
      3 C           6.6957    0.8594    0.4408 C.ar       1 <1>        0.000
      4 C           6.3557   -0.4649    0.1398 C.ar       1 <1>        0.000
      5 N           7.2463   -1.4395    0.3689 N.ar       1 <1>        0.000
      6 C           6.9717   -2.7230    0.0989 C.ar       1 <1>        0.000
      7 C           5.7308   -3.0874   -0.4371 C.ar       1 <1>        0.000
      8 C           4.7790   -2.0918   -0.6877 C.ar       1 <1>        0.000
      9 C           5.0959   -0.7600   -0.3949 C.ar       1 <1>        0.000
     10 C           4.1761    0.2693   -0.6286 C.ar       1 <1>        0.000
     11 C           4.5161    1.5936   -0.3276 C.ar       1 <1>        0.000
     12 H           3.5152   -2.4267   -1.2290 H.spc      1 <1>        0.000
     13 H           7.6765    1.0891    0.8571 H.spc      1 <1>        0.000
     14 H           7.7206   -3.4895    0.2982 H.spc      1 <1>        0.000
     15 H           5.5088   -4.1318   -0.6563 H.spc      1 <1>        0.000
     16 H           3.1953    0.0396   -1.0449 H.spc      1 <1>        0.000
     17 H           3.8000    2.3949   -0.5095 H.spc      1 <1>        0.000
@<TRIPOS>BOND
     1    1    2 1  
     2    2    3 ar 
     3    3    4 ar 
     4    4    5 ar 
     5    5    6 ar 
     6    6    7 ar 
     7    7    8 ar 
     8    8    9 ar 
     9    9    4 ar 
    10    9   10 ar 
    11   10   11 ar 
    12   11    2 ar 
    13    8   12 1  
    14    3   13 1  
    15    6   14 1  
    16    7   15 1  
    17   10   16 1  
    18   11   17 1  
