# Name:          seed_class_3_95_97/26467
# Creation time: Fri May 21 00:57:14 2010


@<TRIPOS>MOLECULE
seed_class_3_95_97/26467
    4     3     1     1     1
SMALL
USER_CHARGES


@<TRIPOS>ATOM
      1 S           1.0204   -1.6616   -0.5338 S.3        1 <1>        0.000
      2 S          -0.2003   -1.9663    1.0720 S.3        1 <1>        0.000
      3 H          -1.7908   -1.2156    0.6038 H.spc      1 <1>        0.000
      4 H           1.8160   -0.0546   -0.2225 H.spc      1 <1>        0.000
@<TRIPOS>BOND
     1    1    2 1  
     2    2    3 1  
     3    1    4 1  
