# Name:          seed_class_4_310_28/38664
# Creation time: Fri May 21 00:57:17 2010


@<TRIPOS>MOLECULE
seed_class_4_310_28/38664
   11    11     1     1     1
SMALL
USER_CHARGES


@<TRIPOS>ATOM
      1 O           3.7112   -0.6849    0.0063 O.3        1 <1>        0.000
      2 C           5.0295   -1.1349   -0.0081 C.2        1 <1>        0.000
      3 C           5.8157   -0.1733   -0.8129 C.2        1 <1>        0.000
      4 C           4.9866    0.7877   -1.2426 C.2        1 <1>        0.000
      5 C           3.6281    0.4911   -0.7356 C.2        1 <1>        0.000
      6 C           2.5235    1.2187   -0.9504 C.2        1 <1>        0.000
      7 H           1.2043    0.7804   -0.3607 H.spc      1 <1>        0.000
      8 O           5.4570   -2.1368    0.5412 O.2        1 <1>        0.000
      9 H           6.8840   -0.2360   -1.0202 H.spc      1 <1>        0.000
     10 H           5.2650    1.6418   -1.8599 H.spc      1 <1>        0.000
     11 H           2.5773    2.1269   -1.5508 H.spc      1 <1>        0.000
@<TRIPOS>BOND
     1    1    2 1  
     2    2    3 1  
     3    3    4 2  
     4    4    5 1  
     5    5    1 1  
     6    5    6 2  
     7    6    7 1  
     8    2    8 2  
     9    3    9 1  
    10    4   10 1  
    11    6   11 1  
