# Name:          seed_class_2_76_23/95646
# Creation time: Fri May 21 00:57:14 2010


@<TRIPOS>MOLECULE
seed_class_2_76_23/95646
   15    16     1     1     1
SMALL
USER_CHARGES


@<TRIPOS>ATOM
      1 H          -1.9091    0.6866   -0.8486 H.spc      1 <1>        0.000
      2 C          -0.7135    0.6779    0.0736 C.ar       1 <1>        0.000
      3 C          -0.6743    1.5121    1.1973 C.ar       1 <1>        0.000
      4 N           0.3866    1.5046    2.0159 N.ar       1 <1>        0.000
      5 C           1.4457    0.7116    1.8037 C.ar       1 <1>        0.000
      6 N           2.4905    0.7293    2.6426 N.ar       1 <1>        0.000
      7 C           3.5525   -0.0612    2.4359 C.ar       1 <1>        0.000
      8 N           3.6031   -0.8925    1.3861 N.ar       1 <1>        0.000
      9 C           2.5914   -0.9584    0.5098 C.ar       1 <1>        0.000
     10 C           1.4670   -0.1456    0.6970 C.ar       1 <1>        0.000
     11 C           0.3757   -0.1644   -0.1798 C.ar       1 <1>        0.000
     12 H           0.3734   -1.0796   -1.3808 H.spc      1 <1>        0.000
     13 H           2.6583   -1.8329   -0.5839 H.spc      1 <1>        0.000
     14 H           4.6289   -0.0179    3.3331 H.spc      1 <1>        0.000
     15 H          -1.5144    2.1737    1.4082 H.spc      1 <1>        0.000
@<TRIPOS>BOND
     1    1    2 1  
     2    2    3 ar 
     3    3    4 ar 
     4    4    5 ar 
     5    5    6 ar 
     6    6    7 ar 
     7    7    8 ar 
     8    8    9 ar 
     9    9   10 ar 
    10   10    5 ar 
    11   10   11 ar 
    12   11    2 ar 
    13   11   12 1  
    14    9   13 1  
    15    7   14 1  
    16    3   15 1  
