# Name:          seed_class_3_116_41/26467
# Creation time: Fri May 21 00:57:14 2010


@<TRIPOS>MOLECULE
seed_class_3_116_41/26467
    8     7     1     1     1
SMALL
USER_CHARGES


@<TRIPOS>ATOM
      1 S          -2.2096   -1.8270   -0.3943 S.3        1 <1>        0.000
      2 H          -0.7053   -0.8219   -0.1964 H.spc      1 <1>        0.000
      3 C          -3.4338   -1.2917    0.7666 C.2        1 <1>        0.000
      4 N          -3.4455   -1.7883    1.9895 N.2        1 <1>        0.000
      5 N          -4.3624   -0.3687    0.3985 N.pl3      1 <1>        0.000
      6 H          -4.1510   -1.4798    2.6585 H.spc      1 <1>        0.000
      7 H          -5.0679   -0.0602    1.0675 H.spc      1 <1>        0.000
      8 H          -4.3533    0.0150   -0.5465 H.spc      1 <1>        0.000
@<TRIPOS>BOND
     1    1    2 1  
     2    1    3 1  
     3    3    4 2  
     4    3    5 1  
     5    4    6 1  
     6    5    7 1  
     7    5    8 1  
