# Name:          seed_class_3_145_22/26467
# Creation time: Fri May 21 00:57:15 2010


@<TRIPOS>MOLECULE
seed_class_3_145_22/26467
    6     5     1     1     1
SMALL
USER_CHARGES


@<TRIPOS>ATOM
      1 H          -0.7245    0.1925   -0.0746 H.spc      1 <1>        0.000
      2 N          -1.8252   -0.3997    0.5561 N.2        1 <1>        0.000
      3 N          -3.0082   -0.1233    0.2621 N.2        1 <1>        0.000
      4 N          -4.1482   -0.7367    0.9154 N.pl3      1 <1>        0.000
      5 H          -5.3898   -0.2134    0.3275 H.spc      1 <1>        0.000
      6 H          -4.0941   -2.1939    0.7293 H.spc      1 <1>        0.000
@<TRIPOS>BOND
     1    1    2 1  
     2    2    3 2  
     3    3    4 1  
     4    4    5 1  
     5    4    6 1  
