# Name:          seed_class_2_58_55/95646
# Creation time: Fri May 21 00:57:14 2010


@<TRIPOS>MOLECULE
seed_class_2_58_55/95646
   10     9     1     1     1
SMALL
USER_CHARGES


@<TRIPOS>ATOM
      1 H           1.3694   -0.0246   -0.4597 H.spc      1 <1>        0.000
      2 N           0.1667   -0.2083   -1.1821 N.am       1 <1>        0.000
      3 C          -1.0034    0.0351   -0.5984 C.2        1 <1>        0.000
      4 O          -1.0407    0.4241    0.5889 O.2        1 <1>        0.000
      5 N          -2.1338   -0.1356   -1.2781 N.am       1 <1>        0.000
      6 C          -3.3029    0.1268   -0.7008 C.2        1 <1>        0.000
      7 O          -3.3372    0.7101    0.3815 O.2        1 <1>        0.000
      8 H          -4.5626   -0.2831   -1.3608 H.spc      1 <1>        0.000
      9 H           0.1970   -0.5274   -2.1504 H.spc      1 <1>        0.000
     10 H          -2.1041   -0.4677   -2.2421 H.spc      1 <1>        0.000
@<TRIPOS>BOND
     1    1    2 1  
     2    2    3 am 
     3    3    4 2  
     4    3    5 am 
     5    5    6 am 
     6    6    7 2  
     7    6    8 1  
     8    2    9 1  
     9    5   10 1  
