# Name:          seed_class_5_395_152/34898
# Creation time: Fri May 21 00:57:18 2010


@<TRIPOS>MOLECULE
seed_class_5_395_152/34898
   12    12     1     1     1
SMALL
USER_CHARGES


@<TRIPOS>ATOM
      1 H          -1.1614    1.1291    2.0322 H.spc      1 <1>        0.000
      2 C          -2.5273    0.5923    1.6765 C.ar       1 <1>        0.000
      3 C          -2.9492   -0.6413    2.1867 C.ar       1 <1>        0.000
      4 C          -4.2156   -1.1389    1.8569 C.ar       1 <1>        0.000
      5 C          -5.0599   -0.4029    1.0170 C.ar       1 <1>        0.000
      6 C          -4.6380    0.8306    0.5069 C.ar       1 <1>        0.000
      7 C          -3.3716    1.3283    0.8367 C.ar       1 <1>        0.000
      8 Cl         -6.6338   -1.0214    0.6072 Cl         1 <1>        0.000
      9 Cl         -4.7400   -2.6721    2.4909 Cl         1 <1>        0.000
     10 H          -2.2918   -1.2143    2.8406 H.spc      1 <1>        0.000
     11 H          -5.2954    1.4036   -0.1470 H.spc      1 <1>        0.000
     12 H          -3.0431    2.2888    0.4396 H.spc      1 <1>        0.000
@<TRIPOS>BOND
     1    1    2 1  
     2    2    3 ar 
     3    3    4 ar 
     4    4    5 ar 
     5    5    6 ar 
     6    6    7 ar 
     7    7    2 ar 
     8    5    8 1  
     9    4    9 1  
    10    3   10 1  
    11    6   11 1  
    12    7   12 1  
