# Name:          seed_class_4_167_319/38664
# Creation time: Fri May 21 00:57:15 2010


@<TRIPOS>MOLECULE
seed_class_4_167_319/38664
   15    15     1     1     1
SMALL
USER_CHARGES


@<TRIPOS>ATOM
      1 H           0.3383    0.7494   -0.1252 H.spc      1 <1>        0.000
      2 C           1.6068    1.3938    0.4319 C.3        1 <1>        0.000
      3 C           2.4960    0.3739    1.1672 C.3        1 <1>        0.000
      4 C           3.9570    0.8438    1.0393 C.3        1 <1>        0.000
      5 C           3.9110    1.9622   -0.0184 C.3        1 <1>        0.000
      6 C           2.5243    1.9211   -0.6869 C.3        1 <1>        0.000
      7 H           2.1195    3.2249   -1.1127 H.spc      1 <1>        0.000
      8 H           4.9153    1.7154   -1.0060 H.spc      1 <1>        0.000
      9 H           4.8825   -0.2962    0.6166 H.spc      1 <1>        0.000
     10 H           1.2409    2.1849    1.0864 H.spc      1 <1>        0.000
     11 H           2.3776   -0.6168    0.7284 H.spc      1 <1>        0.000
     12 H           2.2098    0.3101    2.2170 H.spc      1 <1>        0.000
     13 H           4.3595    1.1946    1.9896 H.spc      1 <1>        0.000
     14 H           4.0878    2.9344    0.4416 H.spc      1 <1>        0.000
     15 H           2.5018    1.3017   -1.5836 H.spc      1 <1>        0.000
@<TRIPOS>BOND
     1    1    2 1  
     2    2    3 1  
     3    3    4 1  
     4    4    5 1  
     5    5    6 1  
     6    6    2 1  
     7    6    7 1  
     8    5    8 1  
     9    4    9 1  
    10    2   10 1  
    11    3   11 1  
    12    3   12 1  
    13    4   13 1  
    14    5   14 1  
    15    6   15 1  
