#	Name:			phenanthrene
#	Creating user name:	becker
#	Creation time:		Thu Dec 19 02:54:59 2002

#	Modifying user name:	zmliu
#	Modification time:	Thu Mar 11 21:05:43 2004

@<TRIPOS>MOLECULE
phenanthrene
   24    26     1     1     0
SMALL
GAST_HUCK


@<TRIPOS>ATOM
      1 C1          2.7965    0.9187    0.0000 C.ar      1 PHENANTHRENE    0.0000 
      2 C2          3.5521   -0.2528    0.0000 C.ar      1 PHENANTHRENE   -0.0000 
      3 C3          2.8916   -1.4798    0.0000 C.ar      1 PHENANTHRENE   -0.0000 
      4 C4          1.4946   -1.5276    0.0000 C.ar      1 PHENANTHRENE    0.0000 
      5 C5          0.7066   -0.3619    0.0000 C.ar      1 PHENANTHRENE    0.0000 
      6 C6          1.3962    0.8641    0.0000 C.ar      1 PHENANTHRENE    0.0000 
      7 C7         -0.7066   -0.3619    0.0000 C.ar      1 PHENANTHRENE   -0.0000 
      8 C8         -1.3962    0.8641    0.0000 C.ar      1 PHENANTHRENE   -0.0000 
      9 C9         -0.6961    2.0738    0.0000 C.ar      1 PHENANTHRENE   -0.0000 
     10 C10         0.6961    2.0738    0.0000 C.ar      1 PHENANTHRENE   -0.0000 
     11 C11        -1.4946   -1.5276    0.0000 C.ar      1 PHENANTHRENE   -0.0000 
     12 C12        -2.8916   -1.4798    0.0000 C.ar      1 PHENANTHRENE   -0.0000 
     13 C13        -3.5521   -0.2528    0.0000 C.ar      1 PHENANTHRENE   -0.0000 
     14 C14        -2.7965    0.9187    0.0000 C.ar      1 PHENANTHRENE   -0.0000 
     15 H1          3.3175    1.8716    0.0000 H.spc     1 PHENANTHRENE   -1.0000 
     16 H2          4.6371   -0.2107    0.0000 H.spc     1 PHENANTHRENE   -1.0000 
     17 H3          3.4694   -2.3996    0.0000 H.spc     1 PHENANTHRENE   -1.0000 
     18 H4          1.0727   -2.5209    0.0000 H.spc     1 PHENANTHRENE   -1.0000 
     19 H5         -1.2203    3.0252    0.0000 H.spc     1 PHENANTHRENE   -1.0000 
     20 H6          1.2203    3.0252    0.0000 H.spc     1 PHENANTHRENE   -1.0000 
     21 H7         -1.0727   -2.5209    0.0000 H.spc     1 PHENANTHRENE   -1.0000 
     22 H8         -3.4694   -2.3996    0.0000 H.spc     1 PHENANTHRENE   -1.0000 
     23 H9         -4.6371   -0.2107    0.0000 H.spc     1 PHENANTHRENE   -1.0000 
     24 H10        -3.3175    1.8716    0.0000 H.spc     1 PHENANTHRENE   -1.0000 
@<TRIPOS>BOND
     1    1    2 ar   
     2    1    6 ar   
     3    2    3 ar   
     4    3    4 ar   
     5    4    5 ar   
     6    5    6 ar   
     7    5    7 ar   
     8    6   10 ar   
     9    7    8 ar   
    10    7   11 ar   
    11    8    9 ar   
    12    8   14 ar   
    13    9   10 ar   
    14   11   12 ar   
    15   12   13 ar   
    16   13   14 ar   
    17    1   15 1    
    18    2   16 1    
    19    3   17 1    
    20    4   18 1    
    21    9   19 1    
    22   10   20 1    
    23   11   21 1    
    24   12   22 1    
    25   13   23 1    
    26   14   24 1    
@<TRIPOS>SUBSTRUCTURE
     1 PHENANTHRENE     1 PERM              0 ****  ****    0 ROOT 
@<TRIPOS>NORMAL
@<TRIPOS>FF_PBC
FORCE_FIELD_SETUP_FEATURE Force Field Setup information
v1.0  0 0.000000 0.000000 0.000000 0.000000 0.000000 0.000000 NONE 2 0 0 0 0 0 0 0 0 0 0 0 0
