# Name:          seed_class_2_62_51/95646
# Creation time: Fri May 21 00:57:14 2010


@<TRIPOS>MOLECULE
seed_class_2_62_51/95646
   10    10     1     1     1
SMALL
USER_CHARGES


@<TRIPOS>ATOM
      1 H          -2.6645    0.4067    0.1935 H.spc      1 <1>        0.000
      2 C          -1.3694    0.4396    0.6391 C.ar       1 <1>        0.000
      3 N          -0.5846   -0.6373    0.4976 N.ar       1 <1>        0.000
      4 N           0.6935   -0.6351    0.9260 N.ar       1 <1>        0.000
      5 C           1.2308    0.4443    1.5107 C.ar       1 <1>        0.000
      6 C           0.4615    1.6006    1.6872 C.ar       1 <1>        0.000
      7 C          -0.8659    1.5983    1.2423 C.ar       1 <1>        0.000
      8 H          -1.7367    2.8206    1.4096 H.spc      1 <1>        0.000
      9 H           2.6374    0.4140    1.9699 H.spc      1 <1>        0.000
     10 H           0.8874    2.4848    2.1614 H.spc      1 <1>        0.000
@<TRIPOS>BOND
     1    1    2 1  
     2    2    3 ar 
     3    3    4 ar 
     4    4    5 ar 
     5    5    6 ar 
     6    6    7 ar 
     7    7    2 ar 
     8    7    8 1  
     9    5    9 1  
    10    6   10 1  
