# Name:          seed_class_2_66_43/95646
# Creation time: Fri May 21 00:57:14 2010


@<TRIPOS>MOLECULE
seed_class_2_66_43/95646
   14    15     1     1     1
SMALL
USER_CHARGES


@<TRIPOS>ATOM
      1 H           6.2298    0.6550   -1.6033 H.spc      1 <1>        0.000
      2 C           4.8081    1.3180   -0.8503 C.ar       1 <1>        0.000
      3 N           3.5948    0.9318   -1.2678 N.ar       1 <1>        0.000
      4 C           2.4732    1.4160   -0.7171 C.ar       1 <1>        0.000
      5 N           1.0977    1.1874   -0.9575 N.pl3      1 <1>        0.000
      6 C           0.3927    1.9608   -0.0889 C.ar       1 <1>        0.000
      7 N           1.2165    2.6541    0.6747 N.ar       1 <1>        0.000
      8 C           2.5372    2.3507    0.3232 C.ar       1 <1>        0.000
      9 C           3.7901    2.7744    0.7822 C.ar       1 <1>        0.000
     10 C           4.9430    2.2497    0.1860 C.ar       1 <1>        0.000
     11 H          -1.0842    2.0169   -0.0111 H.spc      1 <1>        0.000
     12 H           0.5325    0.2778   -1.9646 H.spc      1 <1>        0.000
     13 H           3.8667    3.5012    1.5909 H.spc      1 <1>        0.000
     14 H           5.9312    2.5620    0.5237 H.spc      1 <1>        0.000
@<TRIPOS>BOND
     1    1    2 1  
     2    2    3 ar 
     3    3    4 ar 
     4    4    5 ar 
     5    5    6 ar 
     6    6    7 ar 
     7    7    8 ar 
     8    8    4 ar 
     9    8    9 ar 
    10    9   10 ar 
    11   10    2 ar 
    12    6   11 1  
    13    5   12 1  
    14    9   13 1  
    15   10   14 1  
