# Name:          seed_class_3_109_56/26467
# Creation time: Fri May 21 00:57:14 2010


@<TRIPOS>MOLECULE
seed_class_3_109_56/26467
   10     9     1     1     1
SMALL
USER_CHARGES


@<TRIPOS>ATOM
      1 N           1.6397    0.2931    0.2362 N.pl3      1 <1>        0.000
      2 H           2.5987   -0.1555   -0.7836 H.spc      1 <1>        0.000
      3 C           0.3356   -0.0843    0.1562 C.cat      1 <1>        0.000
      4 N          -0.6196    0.7715    0.4686 N.pl3      1 <1>        0.000
      5 C          -0.3066    2.0029    0.8617 C.1        1 <1>        0.000
      6 N          -0.0337    3.0770    1.2045 N.1        1 <1>        0.000
      7 N           0.0156   -1.3436   -0.2457 N.pl3      1 <1>        0.000
      8 H          -1.3418   -1.7199   -0.3799 H.spc      1 <1>        0.000
      9 H           1.9524    0.8875    1.0039 H.spc      1 <1>        0.000
     10 H           0.7541   -2.0168   -0.4504 H.spc      1 <1>        0.000
@<TRIPOS>BOND
     1    2    1 1  
     2    1    3 ar 
     3    3    4 ar 
     4    4    5 1  
     5    5    6 3  
     6    3    7 ar 
     7    7    8 1  
     8    1    9 1  
     9    7   10 1  
