# Name:          seed_class_3_98_93/26467
# Creation time: Fri May 21 00:57:14 2010


@<TRIPOS>MOLECULE
seed_class_3_98_93/26467
    9     8     1     1     1
SMALL
USER_CHARGES


@<TRIPOS>ATOM
      1 H           6.2038    4.3514    2.1609 H.spc      1 <1>        0.000
      2 N           4.9664    3.7194    1.6810 N.am       1 <1>        0.000
      3 N           4.3689    4.1512    0.4324 N.2        1 <1>        0.000
      4 O           4.9127    5.0132   -0.2382 O.2        1 <1>        0.000
      5 C           4.3949    2.7516    2.3921 C.2        1 <1>        0.000
      6 O           4.8964    2.3964    3.4806 O.2        1 <1>        0.000
      7 N           3.2898    2.1618    1.9451 N.am       1 <1>        0.000
      8 H           2.6980    1.0448    2.6953 H.spc      1 <1>        0.000
      9 H           2.8529    2.4846    1.0817 H.spc      1 <1>        0.000
@<TRIPOS>BOND
     1    1    2 1  
     2    2    3 1  
     3    3    4 2  
     4    2    5 am 
     5    5    6 2  
     6    5    7 am 
     7    8    7 1  
     8    7    9 1  
