# Name:          seed_class_4_305_30/38664
# Creation time: Fri May 21 00:57:17 2010


@<TRIPOS>MOLECULE
seed_class_4_305_30/38664
   18    18     1     1     1
SMALL
USER_CHARGES


@<TRIPOS>ATOM
      1 N          -4.5514    0.0771    0.3426 N.4        1 <1>        0.000
      2 C          -4.4123   -1.4105    0.2891 C.3        1 <1>        0.000
      3 C          -5.5111   -2.0408   -0.5866 C.3        1 <1>        0.000
      4 C          -6.9170   -1.6142   -0.1250 C.3        1 <1>        0.000
      5 C          -7.0256   -0.0831   -0.0005 C.3        1 <1>        0.000
      6 C          -5.8890    0.4984    0.8606 C.3        1 <1>        0.000
      7 H          -3.4694    0.6591    1.1945 H.spc      1 <1>        0.000
      8 H          -4.4669    0.4281   -0.6114 H.spc      1 <1>        0.000
      9 H          -4.5042   -1.8054    1.3009 H.spc      1 <1>        0.000
     10 H          -3.4412   -1.6541   -0.1419 H.spc      1 <1>        0.000
     11 H          -5.4362   -3.1252   -0.5062 H.spc      1 <1>        0.000
     12 H          -5.3687   -1.7044   -1.6136 H.spc      1 <1>        0.000
     13 H          -7.1097   -2.0560    0.8526 H.spc      1 <1>        0.000
     14 H          -7.6425   -1.9542   -0.8640 H.spc      1 <1>        0.000
     15 H          -7.9759    0.1568    0.4764 H.spc      1 <1>        0.000
     16 H          -6.9567    0.3491   -0.9988 H.spc      1 <1>        0.000
     17 H          -6.0001    0.1293    1.8802 H.spc      1 <1>        0.000
     18 H          -5.9486    1.5863    0.8282 H.spc      1 <1>        0.000
@<TRIPOS>BOND
     1    1    2 1  
     2    2    3 1  
     3    3    4 1  
     4    4    5 1  
     5    5    6 1  
     6    6    1 1  
     7    1    7 1  
     8    1    8 1  
     9    2    9 1  
    10    2   10 1  
    11    3   11 1  
    12    3   12 1  
    13    4   13 1  
    14    4   14 1  
    15    5   15 1  
    16    5   16 1  
    17    6   17 1  
    18    6   18 1  
