# Name:          seed_class_4_356_21/38664
# Creation time: Fri May 21 00:57:18 2010


@<TRIPOS>MOLECULE
seed_class_4_356_21/38664
   29    31     1     1     1
SMALL
USER_CHARGES


@<TRIPOS>ATOM
      1 H           2.7006   -0.9176   -0.6131 H.spc      1 <1>        0.000
      2 C           3.5098    0.3089   -0.5716 C.3        1 <1>        0.000
      3 C           4.9468   -0.0579   -0.2877 C.ar       1 <1>        0.000
      4 C           5.5091   -0.3307    0.9650 C.ar       1 <1>        0.000
      5 C           6.8665   -0.6583    1.0667 C.ar       1 <1>        0.000
      6 C           7.6615   -0.7131   -0.0843 C.ar       1 <1>        0.000
      7 C           7.0992   -0.4402   -1.3371 C.ar       1 <1>        0.000
      8 C           5.7419   -0.1126   -1.4388 C.ar       1 <1>        0.000
      9 C           4.7970   -0.3157    2.2965 C.3        1 <1>        0.000
     10 C           3.3367    0.0488    2.6225 C.3        1 <1>        0.000
     11 C           2.7951    1.1756    1.7757 C.ar       1 <1>        0.000
     12 C           2.8704    1.2894    0.3824 C.ar       1 <1>        0.000
     13 C           2.3158    2.4028   -0.2601 C.ar       1 <1>        0.000
     14 C           1.6859    3.4025    0.4908 C.ar       1 <1>        0.000
     15 C           1.6105    3.2887    1.8842 C.ar       1 <1>        0.000
     16 C           2.1651    2.1753    2.5266 C.ar       1 <1>        0.000
     17 H           3.5367    0.8272   -1.5301 H.spc      1 <1>        0.000
     18 H           7.3043   -0.8707    2.0421 H.spc      1 <1>        0.000
     19 H           8.7183   -0.9682   -0.0051 H.spc      1 <1>        0.000
     20 H           7.7182   -0.4828   -2.2333 H.spc      1 <1>        0.000
     21 H           5.3041    0.0999   -2.4142 H.spc      1 <1>        0.000
     22 H           5.3208    0.5016    2.7923 H.spc      1 <1>        0.000
     23 H           4.7928   -1.3801    2.5311 H.spc      1 <1>        0.000
     24 H           3.3042    0.3748    3.6621 H.spc      1 <1>        0.000
     25 H           2.7266   -0.8326    2.4249 H.spc      1 <1>        0.000
     26 H           2.3744    2.4913   -1.3449 H.spc      1 <1>        0.000
     27 H           1.2542    4.2694   -0.0094 H.spc      1 <1>        0.000
     28 H           1.1200    4.0670    2.4688 H.spc      1 <1>        0.000
     29 H           2.1064    2.0867    3.6114 H.spc      1 <1>        0.000
@<TRIPOS>BOND
     1    1    2 1  
     2    2    3 1  
     3    3    4 ar 
     4    4    5 ar 
     5    5    6 ar 
     6    6    7 ar 
     7    7    8 ar 
     8    8    3 ar 
     9    4    9 1  
    10    9   10 1  
    11   10   11 1  
    12   11   12 ar 
    13   12    2 1  
    14   12   13 ar 
    15   13   14 ar 
    16   14   15 ar 
    17   15   16 ar 
    18   16   11 ar 
    19    2   17 1  
    20    5   18 1  
    21    6   19 1  
    22    7   20 1  
    23    8   21 1  
    24    9   22 1  
    25    9   23 1  
    26   10   24 1  
    27   10   25 1  
    28   13   26 1  
    29   14   27 1  
    30   15   28 1  
    31   16   29 1  
