# Name:          seed_class_4_224_69/38664
# Creation time: Fri May 21 00:57:16 2010


@<TRIPOS>MOLECULE
seed_class_4_224_69/38664
   15    15     1     1     1
SMALL
USER_CHARGES


@<TRIPOS>ATOM
      1 H           1.9694   -0.1810    1.5832 H.spc      1 <1>        0.000
      2 N           2.7763   -1.1269    2.1343 N.pl3      1 <1>        0.000
      3 C           2.1786   -2.4555    1.9380 C.3        1 <1>        0.000
      4 C           2.9759   -3.5461    2.6757 C.3        1 <1>        0.000
      5 O           3.1146   -3.2284    4.0631 O.3        1 <1>        0.000
      6 C           3.7514   -1.9630    4.2586 C.3        1 <1>        0.000
      7 C           2.9752   -0.8310    3.5603 C.3        1 <1>        0.000
      8 H           2.1855   -2.6836    0.8721 H.spc      1 <1>        0.000
      9 H           1.1639   -2.4403    2.3359 H.spc      1 <1>        0.000
     10 H           3.9689   -3.6147    2.2314 H.spc      1 <1>        0.000
     11 H           2.4418   -4.4919    2.5849 H.spc      1 <1>        0.000
     12 H           4.7537   -2.0099    3.8328 H.spc      1 <1>        0.000
     13 H           3.7839   -1.7528    5.3276 H.spc      1 <1>        0.000
     14 H           3.5493    0.0914    3.6483 H.spc      1 <1>        0.000
     15 H           1.9992   -0.7327    4.0355 H.spc      1 <1>        0.000
@<TRIPOS>BOND
     1    1    2 1  
     2    2    3 1  
     3    3    4 1  
     4    4    5 1  
     5    5    6 1  
     6    6    7 1  
     7    7    2 1  
     8    3    8 1  
     9    3    9 1  
    10    4   10 1  
    11    4   11 1  
    12    6   12 1  
    13    6   13 1  
    14    7   14 1  
    15    7   15 1  
