# Name:          seed_class_5_510_27/34898
# Creation time: Fri May 21 00:57:19 2010


@<TRIPOS>MOLECULE
seed_class_5_510_27/34898
   18    19     1     1     1
SMALL
USER_CHARGES


@<TRIPOS>ATOM
      1 H          -2.0128   -0.3962    1.0483 H.spc      1 <1>        0.000
      2 N          -0.7030   -0.5235    0.3931 N.am       1 <1>        0.000
      3 C          -0.5696   -1.3837   -0.6125 C.2        1 <1>        0.000
      4 N           0.5786   -1.5612   -1.2599 N.am       1 <1>        0.000
      5 C           1.7292   -0.8234   -0.8938 C.ar       1 <1>        0.000
      6 C           1.6219    0.0906    0.1613 C.ar       1 <1>        0.000
      7 C           2.7372    0.8401    0.5542 C.ar       1 <1>        0.000
      8 C           3.9597    0.6756   -0.1078 C.ar       1 <1>        0.000
      9 C           4.0670   -0.2384   -1.1629 C.ar       1 <1>        0.000
     10 C           2.9517   -0.9879   -1.5559 C.ar       1 <1>        0.000
     11 C           0.3069    0.2254    0.8268 C.2        1 <1>        0.000
     12 O           0.1515    1.0120    1.7595 O.2        1 <1>        0.000
     13 O          -1.5649   -2.0532   -0.9639 O.2        1 <1>        0.000
     14 H           0.6301   -2.2335   -2.0252 H.spc      1 <1>        0.000
     15 H           2.6537    1.5518    1.3756 H.spc      1 <1>        0.000
     16 H           4.8280    1.2591    0.1982 H.spc      1 <1>        0.000
     17 H           5.0188   -0.3665   -1.6784 H.spc      1 <1>        0.000
     18 H           3.0352   -1.6995   -2.3773 H.spc      1 <1>        0.000
@<TRIPOS>BOND
     1    1    2 1  
     2    2    3 am 
     3    3    4 am 
     4    4    5 1  
     5    5    6 ar 
     6    6    7 ar 
     7    7    8 ar 
     8    8    9 ar 
     9    9   10 ar 
    10   10    5 ar 
    11    6   11 1  
    12   11    2 am 
    13   11   12 2  
    14    3   13 2  
    15    4   14 1  
    16    7   15 1  
    17    8   16 1  
    18    9   17 1  
    19   10   18 1  
