# Name:          seed_class_5_468_36/34898
# Creation time: Fri May 21 00:57:19 2010


@<TRIPOS>MOLECULE
seed_class_5_468_36/34898
   24    24     1     1     1
SMALL
USER_CHARGES


@<TRIPOS>ATOM
      1 I          -0.0668    3.7437   -0.6828 I          1 <1>        0.000
      2 C           1.9462    3.3159   -0.2646 C.ar       1 <1>        0.000
      3 C           2.5862    3.9430    0.8112 C.ar       1 <1>        0.000
      4 C           3.9281    3.6578    1.0900 C.ar       1 <1>        0.000
      5 C           4.6302    2.7456    0.2931 C.ar       1 <1>        0.000
      6 C           3.9902    2.1186   -0.7827 C.ar       1 <1>        0.000
      7 C           2.6482    2.4037   -1.0615 C.ar       1 <1>        0.000
      8 C           1.9716    1.7408   -2.1987 C.2        1 <1>        0.000
      9 O           1.3768    2.4149   -3.0382 O.2        1 <1>        0.000
     10 N           2.0068    0.4162   -2.3130 N.am       1 <1>        0.000
     11 H           1.9474   -0.2087   -3.6422 H.spc      1 <1>        0.000
     12 I           5.0432    0.7502   -1.9780 I          1 <1>        0.000
     13 C           6.0488    2.4442    0.5879 C.2        1 <1>        0.000
     14 O           6.3832    2.1084    1.7229 O.2        1 <1>        0.000
     15 N           6.9621    2.5364   -0.3746 N.am       1 <1>        0.000
     16 H           8.1588    1.6834   -0.3364 H.spc      1 <1>        0.000
     17 I           4.8881    4.5984    2.7036 I          1 <1>        0.000
     18 N           1.8766    4.8650    1.6166 N.am       1 <1>        0.000
     19 H           1.0167    4.3798    2.7057 H.spc      1 <1>        0.000
     20 C           1.9877    6.1705    1.3883 C.2        1 <1>        0.000
     21 O           2.6782    6.5749    0.4542 O.2        1 <1>        0.000
     22 H           1.2661    7.1563    2.2758 H.spc      1 <1>        0.000
     23 H           2.0750   -0.1661   -1.4783 H.spc      1 <1>        0.000
     24 H           6.8322    3.1989   -1.1392 H.spc      1 <1>        0.000
@<TRIPOS>BOND
     1    1    2 1  
     2    2    3 ar 
     3    3    4 ar 
     4    4    5 ar 
     5    5    6 ar 
     6    6    7 ar 
     7    7    2 ar 
     8    7    8 1  
     9    8    9 2  
    10    8   10 am 
    11   10   11 1  
    12    6   12 1  
    13    5   13 1  
    14   13   14 2  
    15   13   15 am 
    16   15   16 1  
    17    4   17 1  
    18    3   18 1  
    19   18   19 1  
    20   18   20 am 
    21   20   21 2  
    22   20   22 1  
    23   10   23 1  
    24   15   24 1  
