# Name:          seed_class_3_100_88/26467
# Creation time: Fri May 21 00:57:14 2010


@<TRIPOS>MOLECULE
seed_class_3_100_88/26467
   13    12     1     1     1
SMALL
USER_CHARGES


@<TRIPOS>ATOM
      1 H          -0.9425   -2.9922    2.2780 H.spc      1 <1>        0.000
      2 C          -1.9956   -1.9420    2.0169 C.2        1 <1>        0.000
      3 C          -2.6890   -1.9590    0.8704 C.2        1 <1>        0.000
      4 C          -3.7212   -0.9296    0.6145 C.2        1 <1>        0.000
      5 C          -4.9800   -1.1252    1.0300 C.2        1 <1>        0.000
      6 C          -6.0121   -0.0958    0.7741 C.2        1 <1>        0.000
      7 O          -6.1283    0.3877   -0.3399 O.2        1 <1>        0.000
      8 O          -6.8069    0.2991    1.7512 O.3        1 <1>        0.000
      9 H          -3.3557    0.3410   -0.1149 H.spc      1 <1>        0.000
     10 H          -2.2672   -0.8725    3.0477 H.spc      1 <1>        0.000
     11 H          -2.4929   -2.7309    0.1263 H.spc      1 <1>        0.000
     12 H          -5.2438   -2.0424    1.5565 H.spc      1 <1>        0.000
     13 H          -6.5845   -0.1763    2.5550 H.spc      1 <1>        0.000
@<TRIPOS>BOND
     1    1    2 1  
     2    2    3 2  
     3    3    4 1  
     4    4    5 2  
     5    5    6 1  
     6    6    7 2  
     7    6    8 1  
     8    4    9 1  
     9    2   10 1  
    10    3   11 1  
    11    5   12 1  
    12    8   13 1  
