# Name:          seed_class_5_493_32/34898
# Creation time: Fri May 21 00:57:19 2010


@<TRIPOS>MOLECULE
seed_class_5_493_32/34898
   13    13     1     1     1
SMALL
USER_CHARGES


@<TRIPOS>ATOM
      1 F          10.5397   -1.0585   -1.1203 F          1 <1>        0.000
      2 C           9.2379   -1.1033   -0.7654 C.ar       1 <1>        0.000
      3 C           8.8784   -1.4972    0.5290 C.ar       1 <1>        0.000
      4 C           7.5284   -1.5437    0.8971 C.ar       1 <1>        0.000
      5 C           6.5380   -1.1963   -0.0294 C.ar       1 <1>        0.000
      6 C           6.8975   -0.8024   -1.3238 C.ar       1 <1>        0.000
      7 C           8.2474   -0.7559   -1.6919 C.ar       1 <1>        0.000
      8 O           5.2169   -1.2417    0.3308 O.3        1 <1>        0.000
      9 H           4.2408   -0.8826   -0.6506 H.spc      1 <1>        0.000
     10 H           9.6496   -1.7677    1.2503 H.spc      1 <1>        0.000
     11 H           7.2485   -1.8503    1.9049 H.spc      1 <1>        0.000
     12 H           6.1263   -0.5319   -2.0451 H.spc      1 <1>        0.000
     13 H           8.5273   -0.4493   -2.6997 H.spc      1 <1>        0.000
@<TRIPOS>BOND
     1    1    2 1  
     2    2    3 ar 
     3    3    4 ar 
     4    4    5 ar 
     5    5    6 ar 
     6    6    7 ar 
     7    7    2 ar 
     8    5    8 1  
     9    8    9 1  
    10    3   10 1  
    11    4   11 1  
    12    6   12 1  
    13    7   13 1  
