#	Name:			benzothiazole
#	Creating user name:	becker
#	Creation time:		Thu Dec 19 02:54:41 2002

#	Modifying user name:	zmliu
#	Modification time:	Thu Mar 11 20:33:44 2004

@<TRIPOS>MOLECULE
benzothiazole
   14    15     1     1     0
SMALL
GAST_HUCK


@<TRIPOS>ATOM
      1 S1          2.0825    1.6096   -0.0001 S.3       1 BENZOTHIAZOLE    0.0205 
      2 C1          2.7521   -0.0688    0.0004 C.2       1 BENZOTHIAZOLE    0.1730 
      3 N1          1.8834   -0.9977   -0.0003 N.2       1 BENZOTHIAZOLE   -0.2785 
      4 C2         -0.5340   -1.4200   -0.0007 C.ar      1 BENZOTHIAZOLE   -0.0037 
      5 C3         -1.7791   -0.7789    0.0007 C.ar      1 BENZOTHIAZOLE   -0.0140 
      6 C4         -1.8684    0.6214    0.0000 C.ar      1 BENZOTHIAZOLE   -0.0135 
      7 C5         -0.7168    1.4191   -0.0003 C.ar      1 BENZOTHIAZOLE    0.0026 
      8 C6          0.5202    0.7737   -0.0004 C.ar      1 BENZOTHIAZOLE    0.0668 
      9 C7          0.6008   -0.6095   -0.0006 C.ar      1 BENZOTHIAZOLE    0.0467 
     10 H1          3.8221   -0.2705    0.0015 H.spc     1 BENZOTHIAZOLE   -1.0000 
     11 H2         -0.4501   -2.5015   -0.0019 H.spc     1 BENZOTHIAZOLE   -1.0000 
     12 H3         -2.6867   -1.3746    0.0024 H.spc     1 BENZOTHIAZOLE   -1.0000 
     13 H4         -2.8450    1.0955   -0.0001 H.spc     1 BENZOTHIAZOLE   -1.0000 
     14 H5         -0.7810    2.5022   -0.0005 H.spc     1 BENZOTHIAZOLE   -1.0000 
@<TRIPOS>BOND
     1    2    1 1    
     2    1    8 1    
     3    3    2 2    
     4    9    3 1    
     5    4    5 ar   
     6    4    9 ar   
     7    5    6 ar   
     8    6    7 ar   
     9    7    8 ar   
    10    8    9 ar   
    11    2   10 1    
    12    4   11 1    
    13    5   12 1    
    14    6   13 1    
    15    7   14 1    
@<TRIPOS>SUBSTRUCTURE
     1 BENZOTHIAZOLE     4 PERM              0 ****  ****    0 ROOT 
@<TRIPOS>NORMAL
@<TRIPOS>FF_PBC
FORCE_FIELD_SETUP_FEATURE Force Field Setup information
v1.0  0 0.000000 0.000000 0.000000 0.000000 0.000000 0.000000 NONE 2 0 0 0 0 0 0 0 0 0 0 0 0
