# Name:          seed_class_3_86_346/26467
# Creation time: Fri May 21 00:57:14 2010


@<TRIPOS>MOLECULE
seed_class_3_86_346/26467
    8     7     1     1     1
SMALL
USER_CHARGES


@<TRIPOS>ATOM
      1 H          -6.1629    1.0384    2.4762 H.spc      1 <1>        0.000
      2 C          -4.8328    0.7187    3.1154 C.2        1 <1>        0.000
      3 C          -3.9657   -0.0891    2.4899 C.2        1 <1>        0.000
      4 H          -4.3188   -0.6797    1.1458 H.spc      1 <1>        0.000
      5 C          -2.6620   -0.4024    3.1164 C.2        1 <1>        0.000
      6 O          -2.5103   -0.2538    4.3279 O.2        1 <1>        0.000
      7 H          -1.5180   -0.9046    2.2683 H.spc      1 <1>        0.000
      8 H          -4.5779    1.1450    4.0857 H.spc      1 <1>        0.000
@<TRIPOS>BOND
     1    1    2 1  
     2    2    3 2  
     3    3    4 1  
     4    3    5 1  
     5    5    6 2  
     6    5    7 1  
     7    2    8 1  
