# Name:          seed_class_5_416_80/34898
# Creation time: Fri May 21 00:57:18 2010


@<TRIPOS>MOLECULE
seed_class_5_416_80/34898
   13    13     1     1     1
SMALL
USER_CHARGES


@<TRIPOS>ATOM
      1 N          -0.6849   -0.0355    1.4907 N.am       1 <1>        0.000
      2 C          -0.6849    1.3115    1.3033 C.2        1 <1>        0.000
      3 C          -1.7229    2.0737    1.6736 C.2        1 <1>        0.000
      4 C          -2.8849    1.4044    2.2999 C.2        1 <1>        0.000
      5 N          -2.8446    0.0952    2.4635 N.2        1 <1>        0.000
      6 C          -1.7269   -0.6412    2.0531 C.2        1 <1>        0.000
      7 O          -1.7081   -1.8802    2.2168 O.2        1 <1>        0.000
      8 N          -3.9695    2.1219    2.6978 N.pl3      1 <1>        0.000
      9 H           0.4777   -0.8295    1.0677 H.spc      1 <1>        0.000
     10 H           0.1817    1.7832    0.8400 H.spc      1 <1>        0.000
     11 H          -1.7118    3.1525    1.5185 H.spc      1 <1>        0.000
     12 H          -4.7641    1.6488    3.1282 H.spc      1 <1>        0.000
     13 H          -3.9884    3.1331    2.5658 H.spc      1 <1>        0.000
@<TRIPOS>BOND
     1    1    2 1  
     2    2    3 2  
     3    3    4 1  
     4    4    5 2  
     5    5    6 1  
     6    6    1 am 
     7    6    7 2  
     8    4    8 1  
     9    1    9 1  
    10    2   10 1  
    11    3   11 1  
    12    8   12 1  
    13    8   13 1  
