# Name:          seed_class_5_550_22/34898
# Creation time: Fri May 21 00:57:20 2010


@<TRIPOS>MOLECULE
seed_class_5_550_22/34898
   18    18     1     1     1
SMALL
USER_CHARGES


@<TRIPOS>ATOM
      1 H          -2.6286    0.0659    0.0610 H.spc      1 <1>        0.000
      2 C          -3.9141    0.3900    0.7838 C.2        1 <1>        0.000
      3 O          -4.0516    0.0755    1.9650 O.2        1 <1>        0.000
      4 N          -4.8977    1.0155    0.1434 N.am       1 <1>        0.000
      5 C          -4.7574    1.4641   -1.2494 C.3        1 <1>        0.000
      6 C          -5.9748    1.0625   -2.1029 C.3        1 <1>        0.000
      7 N          -7.2333    1.4804   -1.4684 N.3        1 <1>        0.000
      8 C          -7.3670    0.9045   -0.1226 C.3        1 <1>        0.000
      9 C          -6.1886    1.2988    0.7870 C.3        1 <1>        0.000
     10 H          -8.3664    1.0503   -2.3003 H.spc      1 <1>        0.000
     11 H          -3.8704    0.9938   -1.6738 H.spc      1 <1>        0.000
     12 H          -4.6787    2.5513   -1.2537 H.spc      1 <1>        0.000
     13 H          -5.9825   -0.0224   -2.2074 H.spc      1 <1>        0.000
     14 H          -5.8956    1.5534   -3.0729 H.spc      1 <1>        0.000
     15 H          -7.3810   -0.1816   -0.2142 H.spc      1 <1>        0.000
     16 H          -8.2863    1.2844    0.3232 H.spc      1 <1>        0.000
     17 H          -6.2518    0.7183    1.7074 H.spc      1 <1>        0.000
     18 H          -6.2485    2.3685    0.9877 H.spc      1 <1>        0.000
@<TRIPOS>BOND
     1    1    2 1  
     2    2    3 2  
     3    2    4 am 
     4    4    5 1  
     5    5    6 1  
     6    6    7 1  
     7    7    8 1  
     8    8    9 1  
     9    9    4 1  
    10    7   10 1  
    11    5   11 1  
    12    5   12 1  
    13    6   13 1  
    14    6   14 1  
    15    8   15 1  
    16    8   16 1  
    17    9   17 1  
    18    9   18 1  
