# Name:          seed_class_5_380_272/34898
# Creation time: Fri May 21 00:57:18 2010


@<TRIPOS>MOLECULE
seed_class_5_380_272/34898
   15    15     1     1     1
SMALL
USER_CHARGES


@<TRIPOS>ATOM
      1 H          -2.8249    2.4330    4.4617 H.spc      1 <1>        0.000
      2 O          -3.9640    1.8608    3.8135 O.3        1 <1>        0.000
      3 C          -5.1628    1.9716    4.4242 C.2        1 <1>        0.000
      4 O          -5.2565    2.5780    5.4787 O.2        1 <1>        0.000
      5 C          -6.3635    1.3577    3.8144 C.ar       1 <1>        0.000
      6 C          -6.2490    0.6272    2.6256 C.ar       1 <1>        0.000
      7 C          -7.3848    0.0464    2.0488 C.ar       1 <1>        0.000
      8 C          -8.6350    0.1961    2.6607 C.ar       1 <1>        0.000
      9 C          -8.7495    0.9266    3.8496 C.ar       1 <1>        0.000
     10 C          -7.6137    1.5074    4.4264 C.ar       1 <1>        0.000
     11 H          -5.2756    0.5106    2.1491 H.spc      1 <1>        0.000
     12 H          -7.2957   -0.5224    1.1232 H.spc      1 <1>        0.000
     13 H          -9.5193   -0.2561    2.2115 H.spc      1 <1>        0.000
     14 H          -9.7229    1.0431    4.3261 H.spc      1 <1>        0.000
     15 H          -7.7028    2.0761    5.3520 H.spc      1 <1>        0.000
@<TRIPOS>BOND
     1    1    2 1  
     2    2    3 1  
     3    3    4 2  
     4    3    5 1  
     5    5    6 ar 
     6    6    7 ar 
     7    7    8 ar 
     8    8    9 ar 
     9    9   10 ar 
    10   10    5 ar 
    11    6   11 1  
    12    7   12 1  
    13    8   13 1  
    14    9   14 1  
    15   10   15 1  
