# Name:          seed_class_4_233_62/38664
# Creation time: Fri May 21 00:57:16 2010


@<TRIPOS>MOLECULE
seed_class_4_233_62/38664
   17    18     1     1     1
SMALL
USER_CHARGES


@<TRIPOS>ATOM
      1 H           1.0315    1.6320   -1.9145 H.spc      1 <1>        0.000
      2 C           0.2188    0.7147   -1.0322 C.2        1 <1>        0.000
      3 N          -1.0984    0.7779   -1.0902 N.2        1 <1>        0.000
      4 C          -1.8946   -0.0520   -0.2918 C.ar       1 <1>        0.000
      5 C          -1.2692   -0.9562    0.5749 C.ar       1 <1>        0.000
      6 C          -2.0412   -1.7979    1.3846 C.ar       1 <1>        0.000
      7 C          -3.4386   -1.7354    1.3275 C.ar       1 <1>        0.000
      8 C          -4.0640   -0.8312    0.4607 C.ar       1 <1>        0.000
      9 C          -3.2920    0.0105   -0.3489 C.ar       1 <1>        0.000
     10 H          -4.2118   -2.5783    2.1383 H.spc      1 <1>        0.000
     11 C           0.2105   -0.9798    0.5946 C.2        1 <1>        0.000
     12 N           0.8700   -0.1473   -0.2060 N.am       1 <1>        0.000
     13 H           2.2849   -0.1587   -0.1980 H.spc      1 <1>        0.000
     14 O           0.8170   -1.7524    1.3350 O.2        1 <1>        0.000
     15 H          -1.5543   -2.5019    2.0594 H.spc      1 <1>        0.000
     16 H          -5.1520   -0.7826    0.4162 H.spc      1 <1>        0.000
     17 H          -3.7789    0.7145   -1.0237 H.spc      1 <1>        0.000
@<TRIPOS>BOND
     1    1    2 1  
     2    2    3 2  
     3    3    4 1  
     4    4    5 ar 
     5    5    6 ar 
     6    6    7 ar 
     7    7    8 ar 
     8    8    9 ar 
     9    9    4 ar 
    10    7   10 1  
    11    5   11 1  
    12   11   12 am 
    13   12    2 1  
    14   12   13 1  
    15   11   14 2  
    16    6   15 1  
    17    8   16 1  
    18    9   17 1  
