# Name:          seed_class_5_533_24/34898
# Creation time: Fri May 21 00:57:20 2010


@<TRIPOS>MOLECULE
seed_class_5_533_24/34898
   20    20     1     1     1
SMALL
USER_CHARGES


@<TRIPOS>ATOM
      1 N           4.1149    3.2241    1.2095 N.am       1 <1>        0.000
      2 C           3.6601    4.5863    1.5232 C.3        1 <1>        0.000
      3 C           4.7522    5.2973    2.3438 C.3        1 <1>        0.000
      4 C           6.0373    4.5640    1.9169 C.3        1 <1>        0.000
      5 C           5.5330    3.1464    1.5886 C.3        1 <1>        0.000
      6 H           6.3399    2.5604    0.4547 H.spc      1 <1>        0.000
      7 H           4.8169    6.7909    2.0380 H.spc      1 <1>        0.000
      8 C           3.3822    2.2471    0.6826 C.2        1 <1>        0.000
      9 O           3.8717    1.1305    0.5200 O.2        1 <1>        0.000
     10 C           1.9779    2.5035    0.2920 C.2        1 <1>        0.000
     11 C           1.2328    1.5134   -0.2179 C.2        1 <1>        0.000
     12 H          -0.2000    1.7750   -0.6164 H.spc      1 <1>        0.000
     13 H           2.7350    4.5437    2.0980 H.spc      1 <1>        0.000
     14 H           3.4750    5.1357    0.6002 H.spc      1 <1>        0.000
     15 H           4.5738    5.2538    3.4182 H.spc      1 <1>        0.000
     16 H           6.8050    4.5711    2.6906 H.spc      1 <1>        0.000
     17 H           6.5361    5.0413    1.0734 H.spc      1 <1>        0.000
     18 H           5.6460    2.5040    2.4619 H.spc      1 <1>        0.000
     19 H           1.5497    3.4978    0.4191 H.spc      1 <1>        0.000
     20 H           1.6610    0.5191   -0.3450 H.spc      1 <1>        0.000
@<TRIPOS>BOND
     1    1    2 1  
     2    2    3 1  
     3    3    4 1  
     4    4    5 1  
     5    5    1 1  
     6    5    6 1  
     7    3    7 1  
     8    1    8 am 
     9    8    9 2  
    10    8   10 1  
    11   10   11 2  
    12   12   11 1  
    13    2   13 1  
    14    2   14 1  
    15    3   15 1  
    16    4   16 1  
    17    4   17 1  
    18    5   18 1  
    19   10   19 1  
    20   11   20 1  
