# Name:          seed_class_4_247_49/38664
# Creation time: Fri May 21 00:57:16 2010


@<TRIPOS>MOLECULE
seed_class_4_247_49/38664
   15    15     1     1     1
SMALL
USER_CHARGES


@<TRIPOS>ATOM
      1 H           2.3386    0.7874   -0.5818 H.spc      1 <1>        0.000
      2 C           1.4221    1.1218    0.4637 C.3        1 <1>        0.000
      3 C           2.1950    1.6217    1.6983 C.3        1 <1>        0.000
      4 C           1.1980    2.1002    2.7701 C.3        1 <1>        0.000
      5 C           0.2026    3.1099    2.2505 C.2        1 <1>        0.000
      6 C          -0.1139    3.0347    0.8067 C.2        1 <1>        0.000
      7 C           0.4248    2.1407   -0.0337 C.2        1 <1>        0.000
      8 H           0.0308    2.1523   -1.4913 H.spc      1 <1>        0.000
      9 O          -0.3161    3.9480    2.9862 O.2        1 <1>        0.000
     10 H           3.0659    0.5008    2.2584 H.spc      1 <1>        0.000
     11 H           3.1264    2.7644    1.3041 H.spc      1 <1>        0.000
     12 H           0.7157   -0.1725    0.7889 H.spc      1 <1>        0.000
     13 H           1.7715    2.5805    3.5629 H.spc      1 <1>        0.000
     14 H           0.6374    1.2298    3.1109 H.spc      1 <1>        0.000
     15 H          -0.8293    3.7506    0.4020 H.spc      1 <1>        0.000
@<TRIPOS>BOND
     1    2    1 1  
     2    2    3 1  
     3    3    4 1  
     4    4    5 1  
     5    5    6 1  
     6    6    7 2  
     7    7    2 1  
     8    7    8 1  
     9    5    9 2  
    10    3   10 1  
    11    3   11 1  
    12    2   12 1  
    13    4   13 1  
    14    4   14 1  
    15    6   15 1  
