#	Name:			SCH2
#	Creating user name:	becker
#	Creation time:		Thu Dec 19 02:55:03 2002

#	Modifying user name:	zmliu
#	Modification time:	Thu Mar 11 21:29:38 2004

@<TRIPOS>MOLECULE
SCH2
    4     3     1     1     1
SMALL
GAST_HUCK


@<TRIPOS>ATOM
      1 S1         -1.5547    0.0000    0.0000 S.2       1 SCH2       -0.1229 
      2 C1          0.1552    0.0000    0.0000 C.2       1 SCH2        0.1229 
      3 H1          0.6997    0.9431    0.0000 H.spc     1 SCH2       -1.0000 
      4 H2          0.6997   -0.9431    0.0000 H.spc     1 SCH2       -1.0000 
@<TRIPOS>BOND
     1    2    1 2    
     2    2    3 1    
     3    2    4 1    
@<TRIPOS>SUBSTRUCTURE
     1 SCH2        2 PERM              0 ****  ****    0 ROOT 
@<TRIPOS>SET
LAB$A_TYPE      STATIC     ATOMS    LABELGROUP SYSTEM 
4 1 2 3 4
@<TRIPOS>NORMAL
@<TRIPOS>FF_PBC
FORCE_FIELD_SETUP_FEATURE Force Field Setup information
v1.0  0 0.000000 0.000000 0.000000 0.000000 0.000000 0.000000 NONE 2 0 0 0 0 0 0 0 0 0 0 0 0
