# Name:          seed_class_5_458_41/34898
# Creation time: Fri May 21 00:57:19 2010


@<TRIPOS>MOLECULE
seed_class_5_458_41/34898
   21    22     1     1     1
SMALL
USER_CHARGES


@<TRIPOS>ATOM
      1 O           5.2228    3.3822    1.5220 O.3        1 <1>        0.000
      2 C           4.8483    2.0175    1.7277 C.3        1 <1>        0.000
      3 C           3.6377    1.6428    0.8528 C.3        1 <1>        0.000
      4 C           2.4499    2.5624    1.1919 C.3        1 <1>        0.000
      5 C           2.8476    3.9640    1.5887 C.ar       1 <1>        0.000
      6 C           4.2053    4.2766    1.7262 C.ar       1 <1>        0.000
      7 C           4.5919    5.5711    2.0934 C.ar       1 <1>        0.000
      8 C           3.6207    6.5530    2.3232 C.ar       1 <1>        0.000
      9 C           2.2630    6.2404    2.1857 C.ar       1 <1>        0.000
     10 C           1.8764    4.9459    1.8185 C.ar       1 <1>        0.000
     11 O           3.9990    7.8197    2.6826 O.3        1 <1>        0.000
     12 H           1.5045    2.6180    0.0157 H.spc      1 <1>        0.000
     13 H           3.2592    0.1995    1.0851 H.spc      1 <1>        0.000
     14 H           6.0132    1.1099    1.4124 H.spc      1 <1>        0.000
     15 H           4.5675    1.8926    2.7735 H.spc      1 <1>        0.000
     16 H           3.9005    1.7713   -0.1972 H.spc      1 <1>        0.000
     17 H           1.9652    2.1260    2.0653 H.spc      1 <1>        0.000
     18 H           5.6490    5.8145    2.2004 H.spc      1 <1>        0.000
     19 H           1.5069    7.0049    2.3645 H.spc      1 <1>        0.000
     20 H           0.8193    4.7025    1.7115 H.spc      1 <1>        0.000
     21 H           3.2174    8.3645    2.8007 H.spc      1 <1>        0.000
@<TRIPOS>BOND
     1    1    2 1  
     2    2    3 1  
     3    3    4 1  
     4    4    5 1  
     5    5    6 ar 
     6    6    1 1  
     7    6    7 ar 
     8    7    8 ar 
     9    8    9 ar 
    10    9   10 ar 
    11   10    5 ar 
    12    8   11 1  
    13    4   12 1  
    14    3   13 1  
    15    2   14 1  
    16    2   15 1  
    17    3   16 1  
    18    4   17 1  
    19    7   18 1  
    20    9   19 1  
    21   10   20 1  
    22   11   21 1  
