#	Name:			indoline
#	Creating user name:	becker
#	Creation time:		Thu Dec 19 02:54:54 2002

#	Modifying user name:	zmliu
#	Modification time:	Thu Mar 11 20:54:43 2004

@<TRIPOS>MOLECULE
indoline
   18    19     1     1     0
SMALL
GAST_HUCK


@<TRIPOS>ATOM
      1 N1          1.2642    1.3438    0.2056 N.3       1 INDOLINE   -0.1459 
      2 C1          2.2962    0.3016   -0.0190 C.3       1 INDOLINE    0.0582 
      3 C2          1.5361   -1.0650    0.1033 C.3       1 INDOLINE   -0.0776 
      4 C3         -1.0902   -1.4175   -0.0589 C.ar      1 INDOLINE    0.0137 
      5 C4         -2.3199   -0.7474   -0.0692 C.ar      1 INDOLINE    0.0256 
      6 C5         -2.3786    0.6506    0.0290 C.ar      1 INDOLINE    0.0293 
      7 C6         -1.2084    1.4130    0.1320 C.ar      1 INDOLINE    0.0467 
      8 C7          0.0094    0.7312    0.1306 C.ar      1 INDOLINE    0.0852 
      9 C8          0.0687   -0.6484    0.0492 C.ar      1 INDOLINE   -0.0353 
     10 H1          1.3419    2.1416   -0.5229 H.spc     1 INDOLINE   -1.0000 
     11 H2          3.1028    0.3941    0.7254 H.spc     1 INDOLINE   -1.0000 
     12 H3          2.7345    0.3874   -1.0288 H.spc     1 INDOLINE   -1.0000 
     13 H4          1.7191   -1.5408    1.0797 H.spc     1 INDOLINE   -1.0000 
     14 H5          1.7844   -1.7711   -0.7050 H.spc     1 INDOLINE   -1.0000 
     15 H6         -1.0343   -2.4984   -0.1316 H.spc     1 INDOLINE   -1.0000 
     16 H7         -3.2392   -1.3186   -0.1538 H.spc     1 INDOLINE   -1.0000 
     17 H8         -3.3428    1.1492    0.0250 H.spc     1 INDOLINE   -1.0000 
     18 H9         -1.2439    2.4946    0.2094 H.spc     1 INDOLINE   -1.0000 
@<TRIPOS>BOND
     1    2    1 1    
     2    1    8 1    
     3    3    2 1    
     4    9    3 1    
     5    4    5 ar   
     6    4    9 ar   
     7    5    6 ar   
     8    6    7 ar   
     9    7    8 ar   
    10    8    9 ar   
    11    1   10 1    
    12    2   11 1    
    13    2   12 1    
    14    3   13 1    
    15    3   14 1    
    16    4   15 1    
    17    5   16 1    
    18    6   17 1    
    19    7   18 1    
@<TRIPOS>SUBSTRUCTURE
     1 INDOLINE     4 PERM              0 ****  ****    0 ROOT 
@<TRIPOS>NORMAL
@<TRIPOS>FF_PBC
FORCE_FIELD_SETUP_FEATURE Force Field Setup information
v1.0  0 0.000000 0.000000 0.000000 0.000000 0.000000 0.000000 NONE 2 0 0 0 0 0 0 0 0 0 0 0 0
