#	Name:			hexahydropyrimidine
#	Creating user name:	becker
#	Creation time:		Thu Dec 19 02:55:05 2002

#	Modifying user name:	zmliu
#	Modification time:	Thu Mar 11 20:49:06 2004

@<TRIPOS>MOLECULE
hexahydropyrimidine
   16    16     1     1     0
SMALL
GAST_HUCK


@<TRIPOS>ATOM
      1 N1          0.7508    1.2114    0.4373 N.3       1 HEXAHYDROPYRIMIDINE   -0.1997 
      2 C1          1.5110    0.0005    0.0604 C.3       1 HEXAHYDROPYRIMIDINE    0.1782 
      3 N2          0.7516   -1.2108    0.4374 N.3       1 HEXAHYDROPYRIMIDINE   -0.1997 
      4 C2         -0.6031   -1.2636   -0.1507 C.3       1 HEXAHYDROPYRIMIDINE    0.0918 
      5 C3         -1.3874   -0.0006    0.2789 C.3       1 HEXAHYDROPYRIMIDINE    0.0377 
      6 C4         -0.6041    1.2632   -0.1504 C.3       1 HEXAHYDROPYRIMIDINE    0.0918 
      7 H1          1.3092    2.1058    0.1840 H.spc     1 HEXAHYDROPYRIMIDINE   -1.0000 
      8 H2          2.4666    0.0010    0.6101 H.spc     1 HEXAHYDROPYRIMIDINE   -1.0000 
      9 H3          1.7285    0.0004   -1.0216 H.spc     1 HEXAHYDROPYRIMIDINE   -1.0000 
     10 H4          1.3107   -2.1049    0.1845 H.spc     1 HEXAHYDROPYRIMIDINE   -1.0000 
     11 H5         -1.1281   -2.1624    0.2131 H.spc     1 HEXAHYDROPYRIMIDINE   -1.0000 
     12 H6         -0.5436   -1.3165   -1.2508 H.spc     1 HEXAHYDROPYRIMIDINE   -1.0000 
     13 H7         -1.4934   -0.0008    1.3763 H.spc     1 HEXAHYDROPYRIMIDINE   -1.0000 
     14 H8         -2.3941   -0.0009   -0.1716 H.spc     1 HEXAHYDROPYRIMIDINE   -1.0000 
     15 H9         -0.5450    1.3165   -1.2506 H.spc     1 HEXAHYDROPYRIMIDINE   -1.0000 
     16 H10        -1.1297    2.1617    0.2137 H.spc     1 HEXAHYDROPYRIMIDINE   -1.0000 
@<TRIPOS>BOND
     1    1    2 1    
     2    1    6 1    
     3    2    3 1    
     4    3    4 1    
     5    4    5 1    
     6    5    6 1    
     7    1    7 1    
     8    2    8 1    
     9    2    9 1    
    10    3   10 1    
    11    4   11 1    
    12    4   12 1    
    13    5   13 1    
    14    5   14 1    
    15    6   15 1    
    16    6   16 1    
@<TRIPOS>SUBSTRUCTURE
     1 HEXAHYDROPYRIMIDINE     1 PERM              0 ****  ****    0 ROOT 
@<TRIPOS>NORMAL
@<TRIPOS>FF_PBC
FORCE_FIELD_SETUP_FEATURE Force Field Setup information
v1.0  0 0.000000 0.000000 0.000000 0.000000 0.000000 0.000000 NONE 2 0 0 0 0 0 0 0 0 0 0 0 0
