# Name:          seed_class_4_164_356/38664
# Creation time: Fri May 21 00:57:15 2010


@<TRIPOS>MOLECULE
seed_class_4_164_356/38664
   12    12     1     1     1
SMALL
USER_CHARGES


@<TRIPOS>ATOM
      1 N           2.0812   -1.3177   -1.0877 N.am       1 <1>        0.000
      2 C           0.7421   -1.0996   -0.9928 C.2        1 <1>        0.000
      3 C           0.2609   -0.1608   -0.1665 C.2        1 <1>        0.000
      4 C           1.2312    0.6222    0.6309 C.2        1 <1>        0.000
      5 N           2.5237    0.3472    0.4799 N.am       1 <1>        0.000
      6 C           2.9320   -0.5999   -0.3598 C.2        1 <1>        0.000
      7 O           4.1571   -0.8232   -0.4686 O.2        1 <1>        0.000
      8 O           0.8547    1.4984    1.4077 O.2        1 <1>        0.000
      9 H          -1.1647    0.0803   -0.0572 H.spc      1 <1>        0.000
     10 H           2.4348   -2.0354   -1.7203 H.spc      1 <1>        0.000
     11 H           0.0541   -1.6938   -1.5943 H.spc      1 <1>        0.000
     12 H           3.2138    0.8718    1.0175 H.spc      1 <1>        0.000
@<TRIPOS>BOND
     1    1    2 1  
     2    2    3 2  
     3    3    4 1  
     4    4    5 am 
     5    5    6 am 
     6    6    1 am 
     7    6    7 2  
     8    4    8 2  
     9    3    9 1  
    10    1   10 1  
    11    2   11 1  
    12    5   12 1  
