#	Name:			1,2,3,4-tetrahydroquinoline
#	Creating user name:	becker
#	Creation time:		Thu Dec 19 02:54:37 2002

#	Modifying user name:	zmliu
#	Modification time:	Thu Mar 11 16:45:01 2004

@<TRIPOS>MOLECULE
1,2,3,4-tetrahydroquinoline
   21    22     1     1     0
SMALL
GAST_HUCK


@<TRIPOS>ATOM
      1 N1          0.8239    1.4896    0.0950 N.pl3     1 TETRAHYDROQUINOLINE   -0.1670 
      2 C1          2.1324    0.8610    0.2453 C.3       1 TETRAHYDROQUINOLINE    0.1419 
      3 C2          2.1572   -0.5159   -0.4547 C.3       1 TETRAHYDROQUINOLINE   -0.0436 
      4 C3          1.0414   -1.3924    0.1551 C.3       1 TETRAHYDROQUINOLINE   -0.1095 
      5 C4         -1.4867   -1.3704    0.0700 C.ar      1 TETRAHYDROQUINOLINE    0.0105 
      6 C5         -2.7159   -0.7130   -0.0198 C.ar      1 TETRAHYDROQUINOLINE    0.0224 
      7 C6         -2.7507    0.6814   -0.0867 C.ar      1 TETRAHYDROQUINOLINE    0.0266 
      8 C7         -1.5591    1.4105   -0.0523 C.ar      1 TETRAHYDROQUINOLINE    0.0493 
      9 C8         -0.3216    0.7602    0.0443 C.ar      1 TETRAHYDROQUINOLINE    0.1065 
     10 C9         -0.2921   -0.6414    0.0888 C.ar      1 TETRAHYDROQUINOLINE   -0.0372 
     11 H1          0.7805    2.5153   -0.0210 H.spc     1 TETRAHYDROQUINOLINE   -1.0000 
     12 H2          2.3414    0.7464    1.3210 H.spc     1 TETRAHYDROQUINOLINE   -1.0000 
     13 H3          2.9158    1.5028   -0.1921 H.spc     1 TETRAHYDROQUINOLINE   -1.0000 
     14 H4          3.1398   -1.0000   -0.3263 H.spc     1 TETRAHYDROQUINOLINE   -1.0000 
     15 H5          1.9711   -0.3765   -1.5327 H.spc     1 TETRAHYDROQUINOLINE   -1.0000 
     16 H6          1.2594   -1.6126    1.2122 H.spc     1 TETRAHYDROQUINOLINE   -1.0000 
     17 H7          0.9834   -2.3441   -0.3978 H.spc     1 TETRAHYDROQUINOLINE   -1.0000 
     18 H8         -1.4654   -2.4542    0.1255 H.spc     1 TETRAHYDROQUINOLINE   -1.0000 
     19 H9         -3.6398   -1.2829   -0.0378 H.spc     1 TETRAHYDROQUINOLINE   -1.0000 
     20 H10        -3.7029    1.1974   -0.1644 H.spc     1 TETRAHYDROQUINOLINE   -1.0000 
     21 H11        -1.6069    2.4939   -0.1006 H.spc     1 TETRAHYDROQUINOLINE   -1.0000 
@<TRIPOS>BOND
     1    2    1 1    
     2    1    9 1    
     3    3    2 1    
     4    4    3 1    
     5   10    4 1    
     6    5    6 ar   
     7    5   10 ar   
     8    6    7 ar   
     9    7    8 ar   
    10    8    9 ar   
    11    9   10 ar   
    12    1   11 1    
    13    2   12 1    
    14    2   13 1    
    15    3   14 1    
    16    3   15 1    
    17    4   16 1    
    18    4   17 1    
    19    5   18 1    
    20    6   19 1    
    21    7   20 1    
    22    8   21 1    
@<TRIPOS>SUBSTRUCTURE
     1 TETRAHYDROQUINOLINE     5 PERM              0 ****  ****    0 ROOT 
@<TRIPOS>NORMAL
@<TRIPOS>FF_PBC
FORCE_FIELD_SETUP_FEATURE Force Field Setup information
v1.0  0 0.000000 0.000000 0.000000 0.000000 0.000000 0.000000 NONE 2 0 0 0 0 0 0 0 0 0 0 0 0
