# Name:          seed_class_4_159_501/38664
# Creation time: Fri May 21 00:57:15 2010


@<TRIPOS>MOLECULE
seed_class_4_159_501/38664
   17    18     1     1     1
SMALL
USER_CHARGES


@<TRIPOS>ATOM
      1 H           3.6963    0.3808   -0.0793 H.spc      1 <1>        0.000
      2 C           2.2598    0.0514   -0.2147 C.2        1 <1>        0.000
      3 C           1.8653   -0.8756   -1.0982 C.2        1 <1>        0.000
      4 O           0.5273   -1.2245   -1.2669 O.3        1 <1>        0.000
      5 C          -0.4770   -0.6185   -0.5155 C.ar       1 <1>        0.000
      6 C          -0.1557    0.3614    0.4314 C.ar       1 <1>        0.000
      7 C          -1.1693    0.9670    1.1836 C.ar       1 <1>        0.000
      8 C          -2.5043    0.5928    0.9889 C.ar       1 <1>        0.000
      9 C          -2.8256   -0.3870    0.0419 C.ar       1 <1>        0.000
     10 C          -1.8120   -0.9927   -0.7103 C.ar       1 <1>        0.000
     11 H          -3.5975    1.2460    1.8002 H.spc      1 <1>        0.000
     12 C           1.2590    0.7460    0.6257 C.2        1 <1>        0.000
     13 O           1.5871    1.6017    1.4461 O.2        1 <1>        0.000
     14 H           2.6189   -1.3749   -1.7072 H.spc      1 <1>        0.000
     15 H          -0.9191    1.7299    1.9209 H.spc      1 <1>        0.000
     16 H          -3.8650   -0.6783   -0.1098 H.spc      1 <1>        0.000
     17 H          -2.0622   -1.7556   -1.4476 H.spc      1 <1>        0.000
@<TRIPOS>BOND
     1    1    2 1  
     2    2    3 2  
     3    3    4 1  
     4    4    5 1  
     5    5    6 ar 
     6    6    7 ar 
     7    7    8 ar 
     8    8    9 ar 
     9    9   10 ar 
    10   10    5 ar 
    11    8   11 1  
    12    6   12 1  
    13   12    2 1  
    14   12   13 2  
    15    3   14 1  
    16    7   15 1  
    17    9   16 1  
    18   10   17 1  
