#	Name:			Alanine
#	Creating user name:	yxyuan
#	Creation time:		Thu Mar 30 21:54:51 2006

#	Modifying user name:	yxyuan
#	Modification time:	Thu Mar 30 21:58:35 2006

@<TRIPOS>MOLECULE
Alanine
   10     9     1     1     1
SMALL
GAST_HUCK


@<TRIPOS>ATOM
      1 N1         -0.3468    1.4279    0.2021 N.am      1 ALANINE    -0.9993 
      2 C1          0.1195    0.0797    0.4868 C.3       1 ALANINE    -0.3628 
      3 C2         -0.7749   -0.9627   -0.2276 C.3       1 ALANINE    -0.2330 
      4 C3          1.5529   -0.0871    0.0562 C.2       1 ALANINE    -0.0121 
      5 O1          2.1228    0.7846   -0.5796 O.2       1 ALANINE    -0.3928 
      6 H1         -0.3268    1.7499   -0.7457 H.spc     1 ALANINE    -1.0000 
      7 H2          0.0701   -0.0818    1.5754 H.spc     1 ALANINE    -1.0000 
      8 H3         -0.7219   -0.8233   -1.3184 H.spc     1 ALANINE    -1.0000 
      9 H4         -1.8210   -0.8424    0.0941 H.spc     1 ALANINE    -1.0000 
     10 H5         -0.4436   -1.9845    0.0162 H.spc     1 ALANINE    -1.0000 
@<TRIPOS>BOND
     1    1    2 1    
     2    2    3 1    
     3    2    4 1    
     4    4    5 2    
     5    1    6 1    
     6    2    7 1    
     7    3    8 1    
     8    3    9 1    
     9    3   10 1    
@<TRIPOS>SUBSTRUCTURE
     1 ALANINE     1 PERM              0 ****  ****    0 ROOT 
@<TRIPOS>SET
LAB$A_TYPE      STATIC     ATOMS    LABELGROUP SYSTEM 
12 1 2 3 4 5 0 0 6 7 8 9 10
@<TRIPOS>NORMAL
@<TRIPOS>FF_PBC
FORCE_FIELD_SETUP_FEATURE Force Field Setup information
v1.0  0 0.000000 0.000000 0.000000 0.000000 0.000000 0.000000 NONE 2 0 0 0 0 0 0 0 0 0 0 0 0
