# Name:          seed_class_4_308_29/38664
# Creation time: Fri May 21 00:57:17 2010


@<TRIPOS>MOLECULE
seed_class_4_308_29/38664
   31    33     1     1     1
SMALL
USER_CHARGES


@<TRIPOS>ATOM
      1 H          -3.6538    0.4294    0.5375 H.spc      1 <1>        0.000
      2 C          -2.4560   -0.4104    0.3929 C.3        1 <1>        0.000
      3 C          -2.1378   -1.0670    1.7491 C.3        1 <1>        0.000
      4 C          -1.1677   -2.2549    1.6087 C.3        1 <1>        0.000
      5 C           0.2788   -1.9025    1.3568 C.ar       1 <1>        0.000
      6 C           0.7809   -0.9523    0.4596 C.ar       1 <1>        0.000
      7 C           2.1624   -0.7521    0.3524 C.ar       1 <1>        0.000
      8 C           3.0417   -1.5022    1.1424 C.ar       1 <1>        0.000
      9 C           2.5396   -2.4524    2.0396 C.ar       1 <1>        0.000
     10 C           1.1582   -2.6526    2.1468 C.ar       1 <1>        0.000
     11 H           3.4002   -3.1864    2.8127 H.spc      1 <1>        0.000
     12 H           4.3936   -1.3063    1.0375 H.spc      1 <1>        0.000
     13 H           2.6537    0.1778   -0.5256 H.spc      1 <1>        0.000
     14 C           0.0304   -0.0647   -0.4566 C.2        1 <1>        0.000
     15 C           0.9394    0.4611   -1.2890 C.2        1 <1>        0.000
     16 C           0.8339    1.6252   -2.1968 C.2        1 <1>        0.000
     17 C          -0.1975    2.4514   -2.4188 C.2        1 <1>        0.000
     18 C          -1.5405    2.4170   -1.7977 C.2        1 <1>        0.000
     19 C          -2.0074    1.4390   -0.7898 C.2        1 <1>        0.000
     20 C          -1.3539    0.4095   -0.2342 C.2        1 <1>        0.000
     21 O          -2.3419    3.2803   -2.1517 O.2        1 <1>        0.000
     22 H           0.0158    3.4424   -3.3254 H.spc      1 <1>        0.000
     23 H          -2.6037   -1.2457   -0.2916 H.spc      1 <1>        0.000
     24 H          -3.0707   -1.4398    2.1720 H.spc      1 <1>        0.000
     25 H          -1.6663   -0.3182    2.3855 H.spc      1 <1>        0.000
     26 H          -1.5008   -2.8207    0.7386 H.spc      1 <1>        0.000
     27 H          -1.1922   -2.7842    2.5612 H.spc      1 <1>        0.000
     28 H           0.7673   -3.3925    2.8453 H.spc      1 <1>        0.000
     29 H           1.9041   -0.0462   -1.2990 H.spc      1 <1>        0.000
     30 H           1.7329    1.8440   -2.7731 H.spc      1 <1>        0.000
     31 H          -3.0337    1.5763   -0.4494 H.spc      1 <1>        0.000
@<TRIPOS>BOND
     1    1    2 1  
     2    2    3 1  
     3    3    4 1  
     4    4    5 1  
     5    5    6 ar 
     6    6    7 ar 
     7    7    8 ar 
     8    8    9 ar 
     9    9   10 ar 
    10   10    5 ar 
    11    9   11 1  
    12    8   12 1  
    13    7   13 1  
    14    6   14 1  
    15   14   15 2  
    16   15   16 1  
    17   16   17 2  
    18   17   18 1  
    19   18   19 1  
    20   19   20 2  
    21   20    2 1  
    22   20   14 1  
    23   18   21 2  
    24   17   22 1  
    25    2   23 1  
    26    3   24 1  
    27    3   25 1  
    28    4   26 1  
    29    4   27 1  
    30   10   28 1  
    31   15   29 1  
    32   16   30 1  
    33   19   31 1  
