# Name:          seed_class_2_15_10008/95646
# Creation time: Fri May 21 00:57:12 2010


@<TRIPOS>MOLECULE
seed_class_2_15_10008/95646
    6     5     1     1     1
SMALL
USER_CHARGES


@<TRIPOS>ATOM
      1 H           1.1041    1.2698   -0.5295 H.spc      1 <1>        0.000
      2 C          -0.1493    0.7593    0.1402 C.2        1 <1>        0.000
      3 C          -0.8197   -0.2724   -0.3904 C.2        1 <1>        0.000
      4 H          -2.0482   -0.7728    0.2660 H.spc      1 <1>        0.000
      5 H          -0.5087    1.2301    1.0552 H.spc      1 <1>        0.000
      6 H          -0.4603   -0.7431   -1.3055 H.spc      1 <1>        0.000
@<TRIPOS>BOND
     1    1    2 1  
     2    2    3 2  
     3    3    4 1  
     4    2    5 1  
     5    3    6 1  
