# Name:          seed_class_4_227_65/38664
# Creation time: Fri May 21 00:57:16 2010


@<TRIPOS>MOLECULE
seed_class_4_227_65/38664
   17    18     1     1     1
SMALL
USER_CHARGES


@<TRIPOS>ATOM
      1 H           3.4112   -2.4939   -2.3604 H.spc      1 <1>        0.000
      2 C           2.1860   -2.0807   -1.9723 C.ar       1 <1>        0.000
      3 C           2.0467   -1.0722   -1.0112 C.ar       1 <1>        0.000
      4 N           0.8295   -0.6638   -0.6275 N.ar       1 <1>        0.000
      5 C          -0.2902   -1.1938   -1.1384 C.ar       1 <1>        0.000
      6 C          -0.2239   -2.2060   -2.1033 C.ar       1 <1>        0.000
      7 C           1.0340   -2.6536   -2.5242 C.ar       1 <1>        0.000
      8 C          -1.4929   -2.7541   -2.6321 C.2        1 <1>        0.000
      9 C          -2.7494   -2.1851   -2.0956 C.2        1 <1>        0.000
     10 C          -2.7082   -1.2160   -1.1711 C.2        1 <1>        0.000
     11 N          -1.5416   -0.7129   -0.6858 N.pl3      1 <1>        0.000
     12 H          -1.5800    0.3108    0.2903 H.spc      1 <1>        0.000
     13 H          -4.0541   -2.6876   -2.5811 H.spc      1 <1>        0.000
     14 O          -1.5029   -3.6441   -3.4810 O.2        1 <1>        0.000
     15 H           3.1987   -0.4804   -0.4413 H.spc      1 <1>        0.000
     16 H           1.1157   -3.4403   -3.2742 H.spc      1 <1>        0.000
     17 H          -3.6482   -0.8145   -0.7925 H.spc      1 <1>        0.000
@<TRIPOS>BOND
     1    1    2 1  
     2    2    3 ar 
     3    3    4 ar 
     4    4    5 ar 
     5    5    6 ar 
     6    6    7 ar 
     7    7    2 ar 
     8    6    8 1  
     9    8    9 1  
    10    9   10 2  
    11   10   11 1  
    12   11    5 1  
    13   11   12 1  
    14    9   13 1  
    15    8   14 2  
    16    3   15 1  
    17    7   16 1  
    18   10   17 1  
