#	Name:			1,2-benzisothiazole
#	Creating user name:	zmliu
#	Creation time:		Thu Mar 11 16:59:05 2004

#	Modifying user name:	zmliu
#	Modification time:	Thu Mar 11 16:59:13 2004

@<TRIPOS>MOLECULE
1,2-benzisothiazole
   14    15     1     1     1
SMALL
GAST_HUCK


@<TRIPOS>ATOM
      1 S1          1.7962    2.0797    0.0003 S.3       1 BENZISOTHIAZOLE    0.0069 
      2 N1          2.8121    0.7351   -0.0004 N.2       1 BENZISOTHIAZOLE   -0.2376 
      3 C1          2.2688   -0.4198   -0.0007 C.2       1 BENZISOTHIAZOLE    0.1021 
      4 C2         -0.2025   -1.3745    0.0012 C.ar      1 BENZISOTHIAZOLE    0.0068 
      5 C3         -1.5455   -0.9776   -0.0005 C.ar      1 BENZISOTHIAZOLE   -0.0006 
      6 C4         -1.8930    0.3815   -0.0003 C.ar      1 BENZISOTHIAZOLE    0.0001 
      7 C5         -0.9082    1.3776    0.0003 C.ar      1 BENZISOTHIAZOLE    0.0127 
      8 C6          0.4272    0.9724    0.0004 C.ar      1 BENZISOTHIAZOLE    0.0627 
      9 C7          0.7640   -0.3691    0.0005 C.ar      1 BENZISOTHIAZOLE    0.0469 
     10 H1          2.8383   -1.3479   -0.0017 H.spc     1 BENZISOTHIAZOLE   -1.0000 
     11 H2          0.0808   -2.4216    0.0030 H.spc     1 BENZISOTHIAZOLE   -1.0000 
     12 H3         -2.3260   -1.7322   -0.0022 H.spc     1 BENZISOTHIAZOLE   -1.0000 
     13 H4         -2.9406    0.6665   -0.0003 H.spc     1 BENZISOTHIAZOLE   -1.0000 
     14 H5         -1.1717    2.4301    0.0005 H.spc     1 BENZISOTHIAZOLE   -1.0000 
@<TRIPOS>BOND
     1    2    1 1    
     2    1    8 1    
     3    3    2 2    
     4    9    3 1    
     5    4    5 ar   
     6    4    9 ar   
     7    5    6 ar   
     8    6    7 ar   
     9    7    8 ar   
    10    8    9 ar   
    11    3   10 1    
    12    4   11 1    
    13    5   12 1    
    14    6   13 1    
    15    7   14 1    
@<TRIPOS>SUBSTRUCTURE
     1 BENZISOTHIAZOLE     4 PERM              0 ****  ****    0 ROOT 
@<TRIPOS>SET
LAB$A_TYPE      STATIC     ATOMS    LABELGROUP SYSTEM 
14 1 2 3 4 5 6 7 8 9 10 11 12 13 14
@<TRIPOS>NORMAL
@<TRIPOS>FF_PBC
FORCE_FIELD_SETUP_FEATURE Force Field Setup information
v1.0  0 0.000000 0.000000 0.000000 0.000000 0.000000 0.000000 NONE 2 0 0 0 0 0 0 0 0 0 0 0 0
