# Name:          seed_class_2_16_1603/95646
# Creation time: Fri May 21 00:57:12 2010


@<TRIPOS>MOLECULE
seed_class_2_16_1603/95646
   11    11     1     1     1
SMALL
USER_CHARGES


@<TRIPOS>ATOM
      1 N           3.5890    1.9455    2.2094 N.ar       1 <1>        0.000
      2 C           2.5489    2.0853    1.3762 C.ar       1 <1>        0.000
      3 C           2.2766    1.1107    0.4087 C.ar       1 <1>        0.000
      4 C           3.1066   -0.0135    0.3232 C.ar       1 <1>        0.000
      5 C           4.1853   -0.1307    1.2079 C.ar       1 <1>        0.000
      6 C           4.4007    0.8808    2.1516 C.ar       1 <1>        0.000
      7 H           1.1041    1.2698   -0.5295 H.spc      1 <1>        0.000
      8 H           1.9097    2.9649    1.4523 H.spc      1 <1>        0.000
      9 H           2.9157   -0.7863   -0.4214 H.spc      1 <1>        0.000
     10 H           4.8469   -0.9957    1.1627 H.spc      1 <1>        0.000
     11 H           5.2370    0.8015    2.8462 H.spc      1 <1>        0.000
@<TRIPOS>BOND
     1    1    2 ar 
     2    2    3 ar 
     3    3    4 ar 
     4    4    5 ar 
     5    5    6 ar 
     6    6    1 ar 
     7    3    7 1  
     8    2    8 1  
     9    4    9 1  
    10    5   10 1  
    11    6   11 1  
