# Name:          seed_class_4_371_20/38664
# Creation time: Fri May 21 00:57:18 2010


@<TRIPOS>MOLECULE
seed_class_4_371_20/38664
   23    25     1     1     1
SMALL
USER_CHARGES


@<TRIPOS>ATOM
      1 H          -1.2429   -0.1369    1.0756 H.spc      1 <1>        0.000
      2 C          -0.7556    0.5549   -0.0019 C.ar       1 <1>        0.000
      3 C           0.5542    0.3315   -0.4429 C.ar       1 <1>        0.000
      4 C           1.0522    1.0383   -1.5440 C.ar       1 <1>        0.000
      5 C           2.3620    0.8150   -1.9851 C.ar       1 <1>        0.000
      6 C           3.1738   -0.1153   -1.3251 C.ar       1 <1>        0.000
      7 C           2.6758   -0.8222   -0.2240 C.ar       1 <1>        0.000
      8 C           1.3660   -0.5988    0.2170 C.ar       1 <1>        0.000
      9 H           0.8787   -1.2905    1.2945 H.spc      1 <1>        0.000
     10 C           3.5451   -1.8026    0.4642 C.2        1 <1>        0.000
     11 C           4.9133   -1.9697   -0.0747 C.2        1 <1>        0.000
     12 C           5.3101   -1.2518   -1.1343 C.2        1 <1>        0.000
     13 O           4.4763   -0.3335   -1.7683 O.3        1 <1>        0.000
     14 H           6.7122   -1.4453   -1.6603 H.spc      1 <1>        0.000
     15 O           3.1502   -2.4462    1.4352 O.2        1 <1>        0.000
     16 C           0.2404    1.9686   -2.2040 C.ar       1 <1>        0.000
     17 C          -1.0694    2.1920   -1.7629 C.ar       1 <1>        0.000
     18 C          -1.5674    1.4851   -0.6619 C.ar       1 <1>        0.000
     19 H           2.7497    1.3654   -2.8423 H.spc      1 <1>        0.000
     20 H           5.5990   -2.6776    0.3909 H.spc      1 <1>        0.000
     21 H           0.6281    2.5190   -3.0613 H.spc      1 <1>        0.000
     22 H          -1.7014    2.9163   -2.2767 H.spc      1 <1>        0.000
     23 H          -2.5872    1.6590   -0.3185 H.spc      1 <1>        0.000
@<TRIPOS>BOND
     1    1    2 1  
     2    2    3 ar 
     3    3    4 ar 
     4    4    5 ar 
     5    5    6 ar 
     6    6    7 ar 
     7    7    8 ar 
     8    8    3 ar 
     9    8    9 1  
    10    7   10 1  
    11   10   11 1  
    12   11   12 2  
    13   12   13 1  
    14   13    6 1  
    15   12   14 1  
    16   10   15 2  
    17    4   16 ar 
    18   16   17 ar 
    19   17   18 ar 
    20   18    2 ar 
    21    5   19 1  
    22   11   20 1  
    23   16   21 1  
    24   17   22 1  
    25   18   23 1  
