# Name:          seed_class_4_323_26/38664
# Creation time: Fri May 21 00:57:17 2010


@<TRIPOS>MOLECULE
seed_class_4_323_26/38664
   40    40     1     1     1
SMALL
USER_CHARGES


@<TRIPOS>ATOM
      1 H           3.8463    0.1732    1.5926 H.spc      1 <1>        0.000
      2 C           5.0410    1.1142    1.4446 C.3        1 <1>        0.000
      3 C           4.5376    2.5565    1.2499 C.3        1 <1>        0.000
      4 C           4.5168    3.0309   -0.2151 C.3        1 <1>        0.000
      5 C           5.0310    4.4664   -0.4309 C.3        1 <1>        0.000
      6 C           6.1800    4.5576   -1.4064 C.2        1 <1>        0.000
      7 C           7.3022    5.5913   -1.2520 C.2        1 <1>        0.000
      8 C           8.6389    5.5060   -1.2030 C.2        1 <1>        0.000
      9 C           9.6017    4.4984   -1.7003 C.2        1 <1>        0.000
     10 C          10.5498    3.7723   -1.0929 C.2        1 <1>        0.000
     11 C          11.0225    3.4824    0.3117 C.3        1 <1>        0.000
     12 C          11.0441    1.9632    0.5644 C.3        1 <1>        0.000
     13 O          10.5988    1.5373    1.8547 O.3        1 <1>        0.000
     14 C           9.7292    0.5281    2.0742 C.2        1 <1>        0.000
     15 C           8.5190    0.5884    2.9752 C.3        1 <1>        0.000
     16 C           7.2136    0.0413    2.3686 C.3        1 <1>        0.000
     17 C           5.9909    0.9364    2.6436 C.3        1 <1>        0.000
     18 H           5.2525    0.3810    3.7351 H.spc      1 <1>        0.000
     19 H           6.9647   -1.2643    2.8962 H.spc      1 <1>        0.000
     20 O           9.9394   -0.5243    1.4939 O.2        1 <1>        0.000
     21 H          12.4559    1.4364    0.3238 H.spc      1 <1>        0.000
     22 O           6.2171    3.7770   -2.3562 O.2        1 <1>        0.000
     23 H           3.8851    5.3571   -0.9023 H.spc      1 <1>        0.000
     24 H           3.1389    2.6938    1.8496 H.spc      1 <1>        0.000
     25 H           5.6243    0.8708    0.5565 H.spc      1 <1>        0.000
     26 H           5.2537    3.1973    1.7643 H.spc      1 <1>        0.000
     27 H           3.4767    3.0130   -0.5407 H.spc      1 <1>        0.000
     28 H           5.1782    2.3685   -0.7736 H.spc      1 <1>        0.000
     29 H           5.4135    4.8066    0.5314 H.spc      1 <1>        0.000
     30 H           6.9343    6.6135   -1.1631 H.spc      1 <1>        0.000
     31 H           9.1112    6.3470   -0.6953 H.spc      1 <1>        0.000
     32 H           9.5244    4.3099   -2.7711 H.spc      1 <1>        0.000
     33 H          11.1548    3.2358   -1.8238 H.spc      1 <1>        0.000
     34 H          10.3409    3.9519    1.0210 H.spc      1 <1>        0.000
     35 H          12.0300    3.8788    0.4374 H.spc      1 <1>        0.000
     36 H          10.3198    1.5487   -0.1368 H.spc      1 <1>        0.000
     37 H           8.3438    1.6426    3.1898 H.spc      1 <1>        0.000
     38 H           8.7446   -0.0350    3.8404 H.spc      1 <1>        0.000
     39 H           7.3517    0.0143    1.2877 H.spc      1 <1>        0.000
     40 H           6.3846    1.9276    2.8686 H.spc      1 <1>        0.000
@<TRIPOS>BOND
     1    1    2 1  
     2    2    3 1  
     3    3    4 1  
     4    4    5 1  
     5    5    6 1  
     6    6    7 1  
     7    7    8 2  
     8    8    9 1  
     9    9   10 2  
    10   10   11 1  
    11   11   12 1  
    12   12   13 1  
    13   13   14 1  
    14   14   15 1  
    15   15   16 1  
    16   16   17 1  
    17   17    2 1  
    18   17   18 1  
    19   16   19 1  
    20   14   20 2  
    21   12   21 1  
    22    6   22 2  
    23    5   23 1  
    24    3   24 1  
    25    2   25 1  
    26    3   26 1  
    27    4   27 1  
    28    4   28 1  
    29    5   29 1  
    30    7   30 1  
    31    8   31 1  
    32    9   32 1  
    33   10   33 1  
    34   11   34 1  
    35   11   35 1  
    36   12   36 1  
    37   15   37 1  
    38   15   38 1  
    39   16   39 1  
    40   17   40 1  
