# Name:          seed_class_4_173_266/38664
# Creation time: Fri May 21 00:57:15 2010


@<TRIPOS>MOLECULE
seed_class_4_173_266/38664
   18    19     1     1     1
SMALL
USER_CHARGES


@<TRIPOS>ATOM
      1 H           4.2109    2.1147    1.1507 H.spc      1 <1>        0.000
      2 C           3.0885    1.5884    0.6162 C.ar       1 <1>        0.000
      3 C           3.1802    0.6000   -0.3711 C.ar       1 <1>        0.000
      4 C           2.0162    0.0542   -0.9254 C.ar       1 <1>        0.000
      5 C           0.7605    0.4967   -0.4923 C.ar       1 <1>        0.000
      6 C           0.6688    1.4850    0.4950 C.ar       1 <1>        0.000
      7 C           1.8328    2.0309    1.0492 C.ar       1 <1>        0.000
      8 C          -0.6787    1.9228    0.9226 C.2        1 <1>        0.000
      9 C          -1.8383    1.2766    0.2681 C.2        1 <1>        0.000
     10 C          -1.6463    0.3380   -0.6688 C.2        1 <1>        0.000
     11 N          -0.4076   -0.0637   -1.0612 N.pl3      1 <1>        0.000
     12 H          -0.2799   -1.0999   -2.0960 H.spc      1 <1>        0.000
     13 H          -3.2137    1.6683    0.6494 H.spc      1 <1>        0.000
     14 O          -0.8286    2.7867    1.7851 O.2        1 <1>        0.000
     15 H           4.4493    0.1528   -0.8088 H.spc      1 <1>        0.000
     16 H           2.0876   -0.7152   -1.6941 H.spc      1 <1>        0.000
     17 H           1.7614    2.8005    1.8178 H.spc      1 <1>        0.000
     18 H          -2.5176   -0.1219   -1.1350 H.spc      1 <1>        0.000
@<TRIPOS>BOND
     1    1    2 1  
     2    2    3 ar 
     3    3    4 ar 
     4    4    5 ar 
     5    5    6 ar 
     6    6    7 ar 
     7    7    2 ar 
     8    6    8 1  
     9    8    9 1  
    10    9   10 2  
    11   10   11 1  
    12   11    5 1  
    13   11   12 1  
    14    9   13 1  
    15    8   14 2  
    16    3   15 1  
    17    4   16 1  
    18    7   17 1  
    19   10   18 1  
