# Name:          seed_class_4_177_216/38664
# Creation time: Fri May 21 00:57:15 2010


@<TRIPOS>MOLECULE
seed_class_4_177_216/38664
   16    17     1     1     1
SMALL
USER_CHARGES


@<TRIPOS>ATOM
      1 S           1.6371    1.9677    1.3433 S.3        1 <1>        0.000
      2 C           3.1902    2.8203    1.7598 C.3        1 <1>        0.000
      3 C           4.0126    3.0086    0.5075 C.2        1 <1>        0.000
      4 C           3.5738    2.9100   -0.7548 C.2        1 <1>        0.000
      5 N           2.3373    2.6292   -1.2466 N.am       1 <1>        0.000
      6 C           1.1832    2.3659   -0.3750 C.3        1 <1>        0.000
      7 C           0.9167    1.1275   -1.2508 C.3        1 <1>        0.000
      8 C           2.1367    1.5685   -2.0235 C.2        1 <1>        0.000
      9 O           2.7250    1.1160   -3.0044 O.2        1 <1>        0.000
     10 H          -0.3459    1.1497   -2.0032 H.spc      1 <1>        0.000
     11 H           4.6081    3.1462   -1.7867 H.spc      1 <1>        0.000
     12 H           5.4734    3.3407    0.6962 H.spc      1 <1>        0.000
     13 H           3.7521    2.2219    2.4769 H.spc      1 <1>        0.000
     14 H           2.9647    3.7934    2.1961 H.spc      1 <1>        0.000
     15 H           0.4170    3.1165   -0.1809 H.spc      1 <1>        0.000
     16 H           0.8065    0.1239   -0.8400 H.spc      1 <1>        0.000
@<TRIPOS>BOND
     1    1    2 1  
     2    2    3 1  
     3    3    4 2  
     4    4    5 1  
     5    5    6 1  
     6    6    1 1  
     7    6    7 1  
     8    7    8 1  
     9    8    5 am 
    10    8    9 2  
    11    7   10 1  
    12    4   11 1  
    13    3   12 1  
    14    2   13 1  
    15    2   14 1  
    16    6   15 1  
    17    7   16 1  
