# Name:          seed_class_4_196_125/38664
# Creation time: Fri May 21 00:57:15 2010


@<TRIPOS>MOLECULE
seed_class_4_196_125/38664
   23    25     1     1     1
SMALL
USER_CHARGES


@<TRIPOS>ATOM
      1 H           2.4633   -3.1067    4.3900 H.spc      1 <1>        0.000
      2 C           2.5224   -2.3212    2.8385 C.ar       1 <1>        0.000
      3 C           1.3641   -1.7489    2.2991 C.ar       1 <1>        0.000
      4 C           1.4117   -1.1169    1.0508 C.ar       1 <1>        0.000
      5 C           2.6175   -1.0572    0.3419 C.ar       1 <1>        0.000
      6 C           3.7757   -1.6294    0.8814 C.ar       1 <1>        0.000
      7 C           3.7281   -2.2614    2.1297 C.ar       1 <1>        0.000
      8 S           2.5213   -0.2276   -1.2187 S.3        1 <1>        0.000
      9 C           1.2170    0.9555   -1.0402 C.ar       1 <1>        0.000
     10 C           0.2192    0.5968   -0.1259 C.ar       1 <1>        0.000
     11 C          -0.8644    1.4540    0.0998 C.ar       1 <1>        0.000
     12 C          -0.9503    2.6700   -0.5888 C.ar       1 <1>        0.000
     13 C           0.0475    3.0287   -1.5030 C.ar       1 <1>        0.000
     14 C           1.1311    2.1715   -1.7287 C.ar       1 <1>        0.000
     15 N           0.1635   -0.5898    0.6429 N.pl3      1 <1>        0.000
     16 H          -0.5532   -1.6169   -0.1267 H.spc      1 <1>        0.000
     17 H           0.4253   -1.7954    2.8510 H.spc      1 <1>        0.000
     18 H           4.7145   -1.5828    0.3295 H.spc      1 <1>        0.000
     19 H           4.6299   -2.7069    2.5497 H.spc      1 <1>        0.000
     20 H          -1.6412    1.1747    0.8116 H.spc      1 <1>        0.000
     21 H          -1.7940    3.3374   -0.4131 H.spc      1 <1>        0.000
     22 H          -0.0193    3.9754   -2.0391 H.spc      1 <1>        0.000
     23 H           1.9079    2.4508   -2.4405 H.spc      1 <1>        0.000
@<TRIPOS>BOND
     1    1    2 1  
     2    2    3 ar 
     3    3    4 ar 
     4    4    5 ar 
     5    5    6 ar 
     6    6    7 ar 
     7    7    2 ar 
     8    5    8 1  
     9    8    9 1  
    10    9   10 ar 
    11   10   11 ar 
    12   11   12 ar 
    13   12   13 ar 
    14   13   14 ar 
    15   14    9 ar 
    16   10   15 1  
    17   15    4 1  
    18   15   16 1  
    19    3   17 1  
    20    6   18 1  
    21    7   19 1  
    22   11   20 1  
    23   12   21 1  
    24   13   22 1  
    25   14   23 1  
