#	Name:			Chlorine
#	Creating user name:	arthur
#	Creation time:		Fri Jan  1 17:21:07 1999

#	Modifying user name:	arthur
#	Modification time:	Fri Jan  1 17:22:18 1999

@<TRIPOS>MOLECULE
Chlorine
    2     1     1     1     0
SMALL
USER_CHARGES


@<TRIPOS>ATOM
      1 H1         -4.0645    0.0669   -1.2159 H.spc     1 <1>         0.0000 
      2 Cl2        -3.2676    0.6685   -1.3544 Cl        1 <1>         0.0000 
@<TRIPOS>BOND
     1    2    1 1    
@<TRIPOS>SUBSTRUCTURE
     1 ****        2 TEMP              0 ****  ****    0 ROOT 
@<TRIPOS>NORMAL
@<TRIPOS>FF_PBC
FORCE_FIELD_SETUP_FEATURE Force Field Setup information
v1.0  0 0.000000 0.000000 0.000000 0.000000 0.000000 0.000000 NONE 0 0 0 0 0 0 0 0 0 0 0 0 0
