# Name:          seed_class_5_409_89/34898
# Creation time: Fri May 21 00:57:18 2010


@<TRIPOS>MOLECULE
seed_class_5_409_89/34898
   17    17     1     1     1
SMALL
USER_CHARGES


@<TRIPOS>ATOM
      1 O           4.8134   -1.7566   -0.1081 O.3        1 <1>        0.000
      2 H           5.8248   -1.1644   -0.9274 H.spc      1 <1>        0.000
      3 C           3.7965   -0.9547    0.3388 C.ar       1 <1>        0.000
      4 C           2.6140   -0.8451   -0.4027 C.ar       1 <1>        0.000
      5 C           1.5748   -0.0256    0.0540 C.ar       1 <1>        0.000
      6 C           1.7181    0.6842    1.2521 C.ar       1 <1>        0.000
      7 C           2.9005    0.5746    1.9936 C.ar       1 <1>        0.000
      8 C           3.9397   -0.2449    1.5369 C.ar       1 <1>        0.000
      9 C           5.1897   -0.3608    2.3208 C.2        1 <1>        0.000
     10 O           6.1002   -1.0858    1.9229 O.2        1 <1>        0.000
     11 H           5.3474    0.4110    3.6091 H.spc      1 <1>        0.000
     12 O           3.0407    1.2693    3.1661 O.3        1 <1>        0.000
     13 H           0.5973    1.5681    1.7447 H.spc      1 <1>        0.000
     14 O           0.4177    0.0817   -0.6716 O.3        1 <1>        0.000
     15 H           2.4595   -1.6107   -1.6950 H.spc      1 <1>        0.000
     16 H           2.2437    1.7779    3.3326 H.spc      1 <1>        0.000
     17 H           0.4829   -0.4644   -1.4584 H.spc      1 <1>        0.000
@<TRIPOS>BOND
     1    1    2 1  
     2    1    3 1  
     3    3    4 ar 
     4    4    5 ar 
     5    5    6 ar 
     6    6    7 ar 
     7    7    8 ar 
     8    8    3 ar 
     9    8    9 1  
    10    9   10 2  
    11    9   11 1  
    12    7   12 1  
    13    6   13 1  
    14    5   14 1  
    15    4   15 1  
    16   12   16 1  
    17   14   17 1  
