# Name:          seed_class_2_63_50/95646
# Creation time: Fri May 21 00:57:14 2010


@<TRIPOS>MOLECULE
seed_class_2_63_50/95646
   18    19     1     1     1
SMALL
USER_CHARGES


@<TRIPOS>ATOM
      1 H          -1.2425   -0.4809    1.8508 H.spc      1 <1>        0.000
      2 C          -1.4925   -0.1309    0.4034 C.ar       1 <1>        0.000
      3 C          -0.6618    0.5423   -0.4043 C.ar       1 <1>        0.000
      4 N          -1.2073    0.6784   -1.6427 N.pl3      1 <1>        0.000
      5 C          -2.4789    0.0581   -1.6612 C.ar       1 <1>        0.000
      6 C          -2.6999   -0.4686   -0.3830 C.ar       1 <1>        0.000
      7 C          -3.8917   -1.1474   -0.1021 C.ar       1 <1>        0.000
      8 C          -4.8624   -1.2996   -1.0994 C.ar       1 <1>        0.000
      9 C          -4.6414   -0.7729   -2.3776 C.ar       1 <1>        0.000
     10 C          -3.4497   -0.0941   -2.6585 C.ar       1 <1>        0.000
     11 H          -6.0286   -1.9639   -0.8245 H.spc      1 <1>        0.000
     12 C          -0.6362    1.2964   -2.6727 C.2        1 <1>        0.000
     13 O          -1.1707    1.2682   -3.7801 O.2        1 <1>        0.000
     14 H           0.6425    2.0180   -2.4863 H.spc      1 <1>        0.000
     15 H           0.6908    1.0753    0.0035 H.spc      1 <1>        0.000
     16 H          -4.0638   -1.5574    0.8931 H.spc      1 <1>        0.000
     17 H          -5.3972   -0.8913   -3.1540 H.spc      1 <1>        0.000
     18 H          -3.2776    0.3159   -3.6537 H.spc      1 <1>        0.000
@<TRIPOS>BOND
     1    1    2 1  
     2    2    3 ar 
     3    3    4 ar 
     4    4    5 ar 
     5    5    6 ar 
     6    6    2 ar 
     7    6    7 ar 
     8    7    8 ar 
     9    8    9 ar 
    10    9   10 ar 
    11   10    5 ar 
    12    8   11 1  
    13    4   12 am 
    14   12   13 2  
    15   12   14 1  
    16    3   15 1  
    17    7   16 1  
    18    9   17 1  
    19   10   18 1  
