# Name:          seed_class_5_570_20/34898
# Creation time: Fri May 21 00:57:20 2010


@<TRIPOS>MOLECULE
seed_class_5_570_20/34898
   21    21     1     1     1
SMALL
USER_CHARGES


@<TRIPOS>ATOM
      1 N          -0.0035   -0.6963    0.3210 N.am       1 <1>        0.000
      2 H          -1.2234   -0.3003   -0.3972 H.spc      1 <1>        0.000
      3 C           1.1905   -0.3755   -0.1693 C.2        1 <1>        0.000
      4 O           1.2783    0.4192   -1.1039 O.2        1 <1>        0.000
      5 C           2.4136   -0.9748    0.4098 C.ar       1 <1>        0.000
      6 C           3.6378   -0.3031    0.3083 C.ar       1 <1>        0.000
      7 C           4.7948   -0.8700    0.8561 C.ar       1 <1>        0.000
      8 C           4.7275   -2.1085    1.5054 C.ar       1 <1>        0.000
      9 C           3.5034   -2.7801    1.6069 C.ar       1 <1>        0.000
     10 C           2.3464   -2.2132    1.0591 C.ar       1 <1>        0.000
     11 N           6.0321   -0.1912    0.7534 N.am       1 <1>        0.000
     12 C           7.1593   -0.8818    0.6071 C.2        1 <1>        0.000
     13 O           8.2458   -0.3221    0.7455 O.2        1 <1>        0.000
     14 O           3.7036    0.9088   -0.3271 O.3        1 <1>        0.000
     15 H          -0.0727   -1.2171    1.1953 H.spc      1 <1>        0.000
     16 H           5.6283   -2.5499    1.9319 H.spc      1 <1>        0.000
     17 H           3.4511   -3.7444    2.1124 H.spc      1 <1>        0.000
     18 H           1.3933   -2.7361    1.1382 H.spc      1 <1>        0.000
     19 H           6.0595    0.8277    0.7916 H.spc      1 <1>        0.000
     20 H           7.1203   -1.9438    0.3646 H.spc      1 <1>        0.000
     21 H           4.6081    1.2300   -0.3083 H.spc      1 <1>        0.000
@<TRIPOS>BOND
     1    1    2 1  
     2    1    3 am 
     3    3    4 2  
     4    3    5 1  
     5    5    6 ar 
     6    6    7 ar 
     7    7    8 ar 
     8    8    9 ar 
     9    9   10 ar 
    10   10    5 ar 
    11    7   11 1  
    12   11   12 am 
    13   12   13 2  
    14    6   14 1  
    15    1   15 1  
    16    8   16 1  
    17    9   17 1  
    18   10   18 1  
    19   11   19 1  
    20   12   20 1  
    21   14   21 1  
