# Name:          seed_class_2_21_1272/95646
# Creation time: Fri May 21 00:57:13 2010


@<TRIPOS>MOLECULE
seed_class_2_21_1272/95646
    4     3     1     1     1
SMALL
USER_CHARGES


@<TRIPOS>ATOM
      1 N           1.9266    0.1722   -0.1658 N.2        1 <1>        0.000
      2 O           2.3574    0.9989   -0.9481 O.2        1 <1>        0.000
      3 O           2.6969   -0.5122    0.4818 O.2        1 <1>        0.000
      4 H           0.4758    0.0001   -0.0031 H.spc      1 <1>        0.000
@<TRIPOS>BOND
     1    1    2 2  
     2    1    3 2  
     3    1    4 1  
