#	Name:			2,3-dihydrobenzofuran
#	Creating user name:	becker
#	Creation time:		Thu Dec 19 02:54:38 2002

#	Modifying user name:	zmliu
#	Modification time:	Thu Mar 11 17:17:41 2004

@<TRIPOS>MOLECULE
2,3-dihydrobenzofuran
   17    18     1     1     0
SMALL
GAST_HUCK


@<TRIPOS>ATOM
      1 O1          1.2461    1.5767    0.2376 O.3       1 <1>        -0.2920 
      2 C1          2.2381    0.6016   -0.1704 C.3       1 <1>         0.1164 
      3 C2          1.6942   -0.8201    0.1673 C.3       1 <1>        -0.0622 
      4 C3         -0.8880   -1.3772   -0.0219 C.ar      1 <1>         0.0148 
      5 C4         -2.1604   -0.7950   -0.0704 C.ar      1 <1>         0.0256 
      6 C5         -2.3136    0.5977   -0.0114 C.ar      1 <1>         0.0304 
      7 C6         -1.1993    1.4394    0.0944 C.ar      1 <1>         0.0594 
      8 C7          0.0658    0.8522    0.1378 C.ar      1 <1>         0.1302 
      9 C8          0.2100   -0.5239    0.0867 C.ar      1 <1>        -0.0226 
     10 H1          3.2183    0.8069    0.2869 H.spc     1 <1>        -1.0000 
     11 H2          2.3392    0.6887   -1.2656 H.spc     1 <1>        -1.0000 
     12 H3          1.9417   -1.1148    1.1991 H.spc     1 <1>        -1.0000 
     13 H4          2.0199   -1.5973   -0.5421 H.spc     1 <1>        -1.0000 
     14 H5         -0.7548   -2.4529   -0.0664 H.spc     1 <1>        -1.0000 
     15 H6         -3.0371   -1.4297   -0.1545 H.spc     1 <1>        -1.0000 
     16 H7         -3.3087    1.0301   -0.0481 H.spc     1 <1>        -1.0000 
     17 H8         -1.3114    2.5176    0.1409 H.spc     1 <1>        -1.0000 
@<TRIPOS>BOND
     1    2    1 1    
     2    1    8 1    
     3    3    2 1    
     4    9    3 1    
     5    4    5 ar   
     6    4    9 ar   
     7    5    6 ar   
     8    6    7 ar   
     9    7    8 ar   
    10    8    9 ar   
    11    2   10 1    
    12    2   11 1    
    13    3   12 1    
    14    3   13 1    
    15    4   14 1    
    16    5   15 1    
    17    6   16 1    
    18    7   17 1    
@<TRIPOS>SUBSTRUCTURE
     1 ****        4 PERM              0 ****  ****    0 ROOT 
@<TRIPOS>NORMAL
@<TRIPOS>FF_PBC
FORCE_FIELD_SETUP_FEATURE Force Field Setup information
v1.0  0 0.000000 0.000000 0.000000 0.000000 0.000000 0.000000 NONE 2 0 0 0 0 0 0 0 0 0 0 0 0
