# Name:          seed_class_3_96_97/26467
# Creation time: Fri May 21 00:57:14 2010


@<TRIPOS>MOLECULE
seed_class_3_96_97/26467
   14    13     1     1     1
SMALL
USER_CHARGES


@<TRIPOS>ATOM
      1 H          11.3845    0.2116    2.1350 H.spc      1 <1>        0.000
      2 C          11.4186   -0.7209    0.9478 C.2        1 <1>        0.000
      3 C          10.9165   -1.9587    1.0535 C.2        1 <1>        0.000
      4 C          10.9499   -2.8727   -0.1101 C.2        1 <1>        0.000
      5 C          10.4478   -4.1105   -0.0045 C.2        1 <1>        0.000
      6 C          10.4812   -5.0245   -1.1681 C.2        1 <1>        0.000
      7 C           9.9791   -6.2623   -1.0624 C.2        1 <1>        0.000
      8 H          10.0132   -7.1948   -2.2496 H.spc      1 <1>        0.000
      9 H          11.8517   -0.3871    0.0049 H.spc      1 <1>        0.000
     10 H          10.4835   -2.2925    1.9965 H.spc      1 <1>        0.000
     11 H          11.3830   -2.5389   -1.0530 H.spc      1 <1>        0.000
     12 H          10.0147   -4.4443    0.9384 H.spc      1 <1>        0.000
     13 H          10.9142   -4.6907   -2.1111 H.spc      1 <1>        0.000
     14 H           9.5460   -6.5961   -0.1195 H.spc      1 <1>        0.000
@<TRIPOS>BOND
     1    1    2 1  
     2    2    3 2  
     3    3    4 1  
     4    4    5 2  
     5    5    6 1  
     6    6    7 2  
     7    7    8 1  
     8    2    9 1  
     9    3   10 1  
    10    4   11 1  
    11    5   12 1  
    12    6   13 1  
    13    7   14 1  
