# Name:          seed_class_3_129_32/26467
# Creation time: Fri May 21 00:57:15 2010


@<TRIPOS>MOLECULE
seed_class_3_129_32/26467
    8     7     1     1     1
SMALL
USER_CHARGES


@<TRIPOS>ATOM
      1 H           2.9179    0.8200    2.1743 H.spc      1 <1>        0.000
      2 C           4.0521    0.0276    1.5697 C.2        1 <1>        0.000
      3 O           4.8563    0.5790    0.8199 O.2        1 <1>        0.000
      4 C           4.1962   -1.4125    1.8792 C.2        1 <1>        0.000
      5 O           3.3742   -1.9710    2.6039 O.2        1 <1>        0.000
      6 N           5.2145   -2.1027    1.3736 N.am       1 <1>        0.000
      7 H           5.3606   -3.5318    1.6855 H.spc      1 <1>        0.000
      8 H           5.8940   -1.6404    0.7695 H.spc      1 <1>        0.000
@<TRIPOS>BOND
     1    1    2 1  
     2    2    3 2  
     3    2    4 1  
     4    4    5 2  
     5    4    6 am 
     6    6    7 1  
     7    6    8 1  
