# Name:          seed_class_3_147_22/26467
# Creation time: Fri May 21 00:57:15 2010


@<TRIPOS>MOLECULE
seed_class_3_147_22/26467
   11    10     1     1     1
SMALL
USER_CHARGES


@<TRIPOS>ATOM
      1 H           0.7639    1.9075    1.4557 H.spc      1 <1>        0.000
      2 N           0.1477    1.2258    2.5318 N.pl3      1 <1>        0.000
      3 C          -1.0743    0.6531    2.3634 C.2        1 <1>        0.000
      4 N          -1.1662   -0.5917    1.9338 N.2        1 <1>        0.000
      5 H           0.0075   -1.4184    1.6179 H.spc      1 <1>        0.000
      6 C          -2.3010    1.4254    2.6618 C.2        1 <1>        0.000
      7 C          -2.2137    2.6039    3.2936 C.2        1 <1>        0.000
      8 H          -3.6510    0.8855    2.2542 H.spc      1 <1>        0.000
      9 H           0.6200    1.1639    3.4337 H.spc      1 <1>        0.000
     10 H          -1.2392    2.9937    3.5877 H.spc      1 <1>        0.000
     11 H          -3.1172    3.1727    3.5134 H.spc      1 <1>        0.000
@<TRIPOS>BOND
     1    1    2 1  
     2    2    3 1  
     3    3    4 2  
     4    4    5 1  
     5    3    6 1  
     6    6    7 2  
     7    6    8 1  
     8    2    9 1  
     9    7   10 1  
    10    7   11 1  
