# Name:          seed_class_4_209_95/38664
# Creation time: Fri May 21 00:57:16 2010


@<TRIPOS>MOLECULE
seed_class_4_209_95/38664
   26    28     1     1     1
SMALL
USER_CHARGES


@<TRIPOS>ATOM
      1 H          -1.4711   -2.1589   -0.1113 H.spc      1 <1>        0.000
      2 C          -0.5381   -1.1282    0.3661 C.3        1 <1>        0.000
      3 C           0.8781   -1.7306    0.4226 C.3        1 <1>        0.000
      4 C           1.8755   -0.6542    0.8895 C.3        1 <1>        0.000
      5 C           1.8586    0.5253   -0.1003 C.3        1 <1>        0.000
      6 C           0.4424    1.1278   -0.1569 C.3        1 <1>        0.000
      7 C          -0.5551    0.0514   -0.6238 C.3        1 <1>        0.000
      8 C           0.0407    1.6270    1.2435 C.3        1 <1>        0.000
      9 C           0.0577    0.4474    2.2334 C.3        1 <1>        0.000
     10 C          -0.9398   -0.6290    1.7665 C.3        1 <1>        0.000
     11 C           1.4738   -0.1550    2.2899 C.3        1 <1>        0.000
     12 H           0.4207    2.2932   -1.1417 H.spc      1 <1>        0.000
     13 H           3.2762   -1.2575    0.9433 H.spc      1 <1>        0.000
     14 H           1.1624   -2.0840   -0.5685 H.spc      1 <1>        0.000
     15 H           0.8901   -2.5655    1.1233 H.spc      1 <1>        0.000
     16 H           2.1430    0.1719   -1.0914 H.spc      1 <1>        0.000
     17 H           2.5646    1.2871    0.2303 H.spc      1 <1>        0.000
     18 H          -0.2708   -0.3019   -1.6150 H.spc      1 <1>        0.000
     19 H          -1.5574    0.4778   -0.6637 H.spc      1 <1>        0.000
     20 H          -0.9617    2.0534    1.2035 H.spc      1 <1>        0.000
     21 H           0.7467    2.3889    1.5740 H.spc      1 <1>        0.000
     22 H          -0.2266    0.8008    3.2246 H.spc      1 <1>        0.000
     23 H          -1.9422   -0.2026    1.7266 H.spc      1 <1>        0.000
     24 H          -0.9278   -1.4639    2.4671 H.spc      1 <1>        0.000
     25 H           1.4858   -0.9899    2.9905 H.spc      1 <1>        0.000
     26 H           2.1798    0.6068    2.6204 H.spc      1 <1>        0.000
@<TRIPOS>BOND
     1    1    2 1  
     2    2    3 1  
     3    3    4 1  
     4    4    5 1  
     5    5    6 1  
     6    6    7 1  
     7    7    2 1  
     8    6    8 1  
     9    8    9 1  
    10    9   10 1  
    11   10    2 1  
    12    9   11 1  
    13   11    4 1  
    14    6   12 1  
    15    4   13 1  
    16    3   14 1  
    17    3   15 1  
    18    5   16 1  
    19    5   17 1  
    20    7   18 1  
    21    7   19 1  
    22    8   20 1  
    23    8   21 1  
    24    9   22 1  
    25   10   23 1  
    26   10   24 1  
    27   11   25 1  
    28   11   26 1  
