# Name:          seed_class_4_219_72/38664
# Creation time: Fri May 21 00:57:16 2010


@<TRIPOS>MOLECULE
seed_class_4_219_72/38664
   11    11     1     1     1
SMALL
USER_CHARGES


@<TRIPOS>ATOM
      1 H           2.1207    1.4870    0.5247 H.spc      1 <1>        0.000
      2 C           3.0827    0.4857   -0.1129 C.3        1 <1>        0.000
      3 N           4.3223    0.3435    0.6644 N.am       1 <1>        0.000
      4 C           5.3589    0.6710   -0.1018 C.2        1 <1>        0.000
      5 O           4.9992    1.0349   -1.3511 O.3        1 <1>        0.000
      6 C           3.5780    0.9612   -1.4914 C.3        1 <1>        0.000
      7 O           6.5158    0.6452    0.2846 O.2        1 <1>        0.000
      8 H           2.5110   -0.4407   -0.1673 H.spc      1 <1>        0.000
      9 H           4.3785    0.0416    1.6371 H.spc      1 <1>        0.000
     10 H           3.2796    0.2828   -2.2907 H.spc      1 <1>        0.000
     11 H           3.1437    1.9200   -1.7748 H.spc      1 <1>        0.000
@<TRIPOS>BOND
     1    1    2 1  
     2    2    3 1  
     3    3    4 am 
     4    4    5 1  
     5    5    6 1  
     6    6    2 1  
     7    4    7 2  
     8    2    8 1  
     9    3    9 1  
    10    6   10 1  
    11    6   11 1  
