# Name:          seed_class_5_403_114/34898
# Creation time: Fri May 21 00:57:18 2010


@<TRIPOS>MOLECULE
seed_class_5_403_114/34898
   22    23     1     1     1
SMALL
USER_CHARGES


@<TRIPOS>ATOM
      1 H           0.0472   -1.9246   -0.0490 H.spc      1 <1>        0.000
      2 C          -0.0676   -3.3330   -0.5813 C.ar       1 <1>        0.000
      3 C          -1.3113   -3.9756   -0.5985 C.ar       1 <1>        0.000
      4 C          -1.4178   -5.2814   -1.0921 C.ar       1 <1>        0.000
      5 C          -0.2805   -5.9445   -1.5684 C.ar       1 <1>        0.000
      6 C           0.9632   -5.3019   -1.5512 C.ar       1 <1>        0.000
      7 C           1.0696   -3.9961   -1.0577 C.ar       1 <1>        0.000
      8 O           2.2866   -3.3673   -1.0408 O.3        1 <1>        0.000
      9 O          -0.3847   -7.2223   -2.0514 O.3        1 <1>        0.000
     10 C          -2.7674   -5.9585   -1.1028 C.3        1 <1>        0.000
     11 C          -3.8830   -5.1385   -0.4284 C.3        1 <1>        0.000
     12 C          -3.6356   -3.6344   -0.6471 C.3        1 <1>        0.000
     13 O          -2.3663   -3.2490   -0.1128 O.3        1 <1>        0.000
     14 H          -4.7293   -2.8301    0.0140 H.spc      1 <1>        0.000
     15 H          -5.1425   -5.4963   -1.0033 H.spc      1 <1>        0.000
     16 H           1.8486   -5.8182   -1.9220 H.spc      1 <1>        0.000
     17 H           2.1849   -2.4857   -0.6748 H.spc      1 <1>        0.000
     18 H           0.4801   -7.5274   -2.3352 H.spc      1 <1>        0.000
     19 H          -2.6672   -6.8895   -0.5448 H.spc      1 <1>        0.000
     20 H          -3.0523   -6.0967   -2.1458 H.spc      1 <1>        0.000
     21 H          -3.8877   -5.3498    0.6409 H.spc      1 <1>        0.000
     22 H          -3.6385   -3.4381   -1.7193 H.spc      1 <1>        0.000
@<TRIPOS>BOND
     1    1    2 1  
     2    2    3 ar 
     3    3    4 ar 
     4    4    5 ar 
     5    5    6 ar 
     6    6    7 ar 
     7    7    2 ar 
     8    7    8 1  
     9    5    9 1  
    10    4   10 1  
    11   10   11 1  
    12   11   12 1  
    13   12   13 1  
    14   13    3 1  
    15   12   14 1  
    16   11   15 1  
    17    6   16 1  
    18    8   17 1  
    19    9   18 1  
    20   10   19 1  
    21   10   20 1  
    22   11   21 1  
    23   12   22 1  
