# Name:          seed_class_4_354_21/38664
# Creation time: Fri May 21 00:57:18 2010


@<TRIPOS>MOLECULE
seed_class_4_354_21/38664
   41    42     1     1     1
SMALL
USER_CHARGES


@<TRIPOS>ATOM
      1 H          -1.2198    1.8426    2.9253 H.spc      1 <1>        0.000
      2 C           0.1327    1.9329    2.2200 C.3        1 <1>        0.000
      3 C           0.0945    3.0805    1.1937 C.3        1 <1>        0.000
      4 C           0.7752    4.3616    1.7103 C.3        1 <1>        0.000
      5 C           1.2082    5.3500    0.6540 C.2        1 <1>        0.000
      6 C           2.2816    5.1428   -0.3436 C.2        1 <1>        0.000
      7 C           3.6100    5.2203   -0.5018 C.2        1 <1>        0.000
      8 C           4.8250    5.0275    0.3738 C.3        1 <1>        0.000
      9 O           6.1152    4.8140    0.8253 O.3        1 <1>        0.000
     10 C           5.7158    3.9840   -0.2070 C.3        1 <1>        0.000
     11 C           6.3911    3.0050    0.7713 C.3        1 <1>        0.000
     12 C           6.3235    1.5333    0.3226 C.3        1 <1>        0.000
     13 O           5.9997    0.6054    1.3614 O.3        1 <1>        0.000
     14 C           5.1205   -0.4136    1.2548 C.2        1 <1>        0.000
     15 C           4.0475   -0.7489    2.2628 C.3        1 <1>        0.000
     16 C           2.6333   -0.9242    1.6791 C.3        1 <1>        0.000
     17 C           1.5377   -0.2155    2.4969 C.3        1 <1>        0.000
     18 C           0.5025    0.5501    1.6520 C.3        1 <1>        0.000
     19 H          -0.6850   -0.2399    1.5481 H.spc      1 <1>        0.000
     20 H           0.8214   -1.2353    3.3776 H.spc      1 <1>        0.000
     21 H           2.3297   -2.3195    1.6029 H.spc      1 <1>        0.000
     22 O           5.1993   -1.1207    0.2637 O.2        1 <1>        0.000
     23 H           7.6528    1.1370   -0.3182 H.spc      1 <1>        0.000
     24 H           7.8472    3.4111    0.9798 H.spc      1 <1>        0.000
     25 H           3.9156    4.4085    1.4314 H.spc      1 <1>        0.000
     26 O           0.6141    6.4265    0.6195 O.2        1 <1>        0.000
     27 H          -0.1560    5.0599    2.6971 H.spc      1 <1>        0.000
     28 H           0.9377    2.1875    2.9094 H.spc      1 <1>        0.000
     29 H          -0.9507    3.3147    0.9918 H.spc      1 <1>        0.000
     30 H           0.6309    2.7518    0.3036 H.spc      1 <1>        0.000
     31 H           1.6993    4.0233    2.1790 H.spc      1 <1>        0.000
     32 H           1.8336    4.8097   -1.2798 H.spc      1 <1>        0.000
     33 H           3.8828    5.4914   -1.5217 H.spc      1 <1>        0.000
     34 H           5.6415    3.6020   -1.2252 H.spc      1 <1>        0.000
     35 H           5.8332    3.0686    1.7055 H.spc      1 <1>        0.000
     36 H           5.5025    1.4767   -0.3921 H.spc      1 <1>        0.000
     37 H           3.9979    0.0889    2.9583 H.spc      1 <1>        0.000
     38 H           4.3235   -1.7047    2.7082 H.spc      1 <1>        0.000
     39 H           2.6395   -0.4615    0.6922 H.spc      1 <1>        0.000
     40 H           2.0504    0.5371    3.0960 H.spc      1 <1>        0.000
     41 H           0.9613    0.7248    0.6788 H.spc      1 <1>        0.000
@<TRIPOS>BOND
     1    1    2 1  
     2    2    3 1  
     3    3    4 1  
     4    4    5 1  
     5    5    6 1  
     6    6    7 2  
     7    7    8 1  
     8    8    9 1  
     9    9   10 1  
    10   10    8 1  
    11   10   11 1  
    12   11   12 1  
    13   12   13 1  
    14   13   14 1  
    15   14   15 1  
    16   15   16 1  
    17   16   17 1  
    18   17   18 1  
    19   18    2 1  
    20   18   19 1  
    21   17   20 1  
    22   16   21 1  
    23   14   22 2  
    24   12   23 1  
    25   11   24 1  
    26    8   25 1  
    27    5   26 2  
    28    4   27 1  
    29    2   28 1  
    30    3   29 1  
    31    3   30 1  
    32    4   31 1  
    33    6   32 1  
    34    7   33 1  
    35   10   34 1  
    36   11   35 1  
    37   12   36 1  
    38   15   37 1  
    39   15   38 1  
    40   16   39 1  
    41   17   40 1  
    42   18   41 1  
