#	Name:			cyclopentane
#	Creating user name:	tang
#	Creation time:		Tue Aug 27 07:58:48 1996

#	Modifying user name:	arthur
#	Modification time:	Thu Jan 15 17:34:17 1998

@<TRIPOS>MOLECULE
cyclopentane
   15    15     1     1     2
SMALL
GAST_HUCK


@<TRIPOS>ATOM
      1 C1          0.2702    1.2245   -0.2834 C.3       1 CYCLOPENTANE   -0.0531 
      2 C2          1.2445    0.1663    0.2776 C.3       1 CYCLOPENTANE   -0.0531 
      3 C3          0.5624   -1.1571   -0.1407 C.3       1 CYCLOPENTANE   -0.0531 
      4 C4         -0.9614   -0.8799   -0.0048 C.3       1 CYCLOPENTANE   -0.0531 
      5 C5         -1.1019    0.6601    0.1515 C.3       1 CYCLOPENTANE   -0.0531 
      6 H1          0.3366    1.2477   -1.3843 H.spc     1 CYCLOPENTANE    0.0265 
      7 H2          0.4637    2.2364    0.1088 H.spc     1 CYCLOPENTANE    0.0265 
      8 H3          1.2816    0.2398    1.3778 H.spc     1 CYCLOPENTANE    0.0265 
      9 H4          2.2667    0.2700   -0.1224 H.spc     1 CYCLOPENTANE    0.0265 
     10 H5          0.9025   -2.0127    0.4657 H.spc     1 CYCLOPENTANE    0.0265 
     11 H6          0.8121   -1.3582   -1.1968 H.spc     1 CYCLOPENTANE    0.0265 
     12 H7         -1.3838   -1.3959    0.8739 H.spc     1 CYCLOPENTANE    0.0265 
     13 H8         -1.4969   -1.2358   -0.9012 H.spc     1 CYCLOPENTANE    0.0265 
     14 H9         -1.9347    1.0811   -0.4356 H.spc     1 CYCLOPENTANE    0.0265 
     15 H10        -1.2616    0.9138    1.2138 H.spc     1 CYCLOPENTANE    0.0265 
@<TRIPOS>BOND
     1    1    2 1    
     2    1    5 1    
     3    2    3 1    
     4    3    4 1    
     5    4    5 1    
     6    1    6 1    
     7    1    7 1    
     8    2    8 1    
     9    2    9 1    
    10    3   10 1    
    11    3   11 1    
    12    4   12 1    
    13    4   13 1    
    14    5   14 1    
    15    5   15 1    
@<TRIPOS>SUBSTRUCTURE
     1 CYCLOPENTANE     1 PERM              0 ****  ****    0 ROOT 
@<TRIPOS>SET
ATOM$BY_TYPE    STATIC     ATOMS    COLORGROUP SYSTEM 
15 1 2 3 4 5 6 7 8 9 10 11 12 13 14 15
LINK_HS         STATIC     ATOMS    <user>   **** 
2 9 14
@<TRIPOS>NORMAL
@<TRIPOS>FF_PBC
FORCE_FIELD_SETUP_FEATURE Force Field Setup information
v1.0  0 0.000000 0.000000 0.000000 0.000000 0.000000 0.000000 NONE 2 0 0 0 0 0 0 0 0 0 0 0 0
