# Name:          seed_class_5_487_33/34898
# Creation time: Fri May 21 00:57:19 2010


@<TRIPOS>MOLECULE
seed_class_5_487_33/34898
   17    17     1     1     1
SMALL
USER_CHARGES


@<TRIPOS>ATOM
      1 H          -0.8776    1.5185   -2.0262 H.spc      1 <1>        0.000
      2 C           0.3668    1.7519   -1.2033 C.ar       1 <1>        0.000
      3 C           1.5989    1.2505   -1.6398 C.ar       1 <1>        0.000
      4 C           2.7526    1.4668   -0.8769 C.ar       1 <1>        0.000
      5 C           2.6743    2.1845    0.3226 C.ar       1 <1>        0.000
      6 C           1.4422    2.6859    0.7591 C.ar       1 <1>        0.000
      7 C           0.2885    2.4696   -0.0038 C.ar       1 <1>        0.000
      8 O           3.8033    2.3962    1.0692 O.3        1 <1>        0.000
      9 C           4.0551    0.9367   -1.3384 C.2        1 <1>        0.000
     10 O           4.1461    0.4057   -2.4441 O.2        1 <1>        0.000
     11 N           5.1273    1.0346   -0.5575 N.am       1 <1>        0.000
     12 H           1.6599    0.6917   -2.5737 H.spc      1 <1>        0.000
     13 H           1.3812    3.2447    1.6930 H.spc      1 <1>        0.000
     14 H          -0.6708    2.8600    0.3361 H.spc      1 <1>        0.000
     15 H           3.5767    2.9007    1.8539 H.spc      1 <1>        0.000
     16 H           6.0250    0.6693   -0.8756 H.spc      1 <1>        0.000
     17 H           5.0519    1.4749    0.3595 H.spc      1 <1>        0.000
@<TRIPOS>BOND
     1    1    2 1  
     2    2    3 ar 
     3    3    4 ar 
     4    4    5 ar 
     5    5    6 ar 
     6    6    7 ar 
     7    7    2 ar 
     8    5    8 1  
     9    4    9 1  
    10    9   10 2  
    11    9   11 am 
    12    3   12 1  
    13    6   13 1  
    14    7   14 1  
    15    8   15 1  
    16   11   16 1  
    17   11   17 1  
