# Name:          seed_class_4_228_65/38664
# Creation time: Fri May 21 00:57:16 2010


@<TRIPOS>MOLECULE
seed_class_4_228_65/38664
   26    27     1     1     1
SMALL
USER_CHARGES


@<TRIPOS>ATOM
      1 H           0.5730    2.2469   -0.1125 H.spc      1 <1>        0.000
      2 C           1.1653    3.6511   -0.2238 C.3        1 <1>        0.000
      3 C           1.9423    3.7863   -1.5465 C.3        1 <1>        0.000
      4 C           3.3287    3.1269   -1.4259 C.3        1 <1>        0.000
      5 C           4.1472    3.7832   -0.2985 C.3        1 <1>        0.000
      6 C           5.4924    3.0638   -0.0871 C.3        1 <1>        0.000
      7 C           6.2999    2.9835   -1.3959 C.3        1 <1>        0.000
      8 C           5.4814    2.3273   -2.5233 C.3        1 <1>        0.000
      9 C           4.1363    3.0466   -2.7347 C.3        1 <1>        0.000
     10 H           3.3225    2.3246   -3.8048 H.spc      1 <1>        0.000
     11 H           7.5890    2.2002   -1.1649 H.spc      1 <1>        0.000
     12 C           3.3448    4.0089    0.9606 C.2        1 <1>        0.000
     13 C           2.0065    3.9497    0.9941 C.2        1 <1>        0.000
     14 H           1.3075    4.1926    2.3103 H.spc      1 <1>        0.000
     15 H           2.0955    5.2596   -1.9133 H.spc      1 <1>        0.000
     16 H           1.1628    3.1472   -2.6708 H.spc      1 <1>        0.000
     17 H           0.3712    4.3973   -0.2479 H.spc      1 <1>        0.000
     18 H           3.1269    2.0864   -1.1715 H.spc      1 <1>        0.000
     19 H           4.4040    4.7917   -0.6226 H.spc      1 <1>        0.000
     20 H           5.2915    2.0496    0.2579 H.spc      1 <1>        0.000
     21 H           6.0738    3.6257    0.6439 H.spc      1 <1>        0.000
     22 H           6.5419    4.0005   -1.7045 H.spc      1 <1>        0.000
     23 H           5.2802    1.2923   -2.2470 H.spc      1 <1>        0.000
     24 H           6.0553    2.3887   -3.4479 H.spc      1 <1>        0.000
     25 H           4.3474    4.0645   -3.0624 H.spc      1 <1>        0.000
     26 H           3.8787    4.2302    1.8847 H.spc      1 <1>        0.000
@<TRIPOS>BOND
     1    2    1 1  
     2    2    3 1  
     3    3    4 1  
     4    4    5 1  
     5    5    6 1  
     6    6    7 1  
     7    7    8 1  
     8    8    9 1  
     9    9    4 1  
    10    9   10 1  
    11    7   11 1  
    12    5   12 1  
    13   12   13 2  
    14   13    2 1  
    15   13   14 1  
    16    3   15 1  
    17    3   16 1  
    18    2   17 1  
    19    4   18 1  
    20    5   19 1  
    21    6   20 1  
    22    6   21 1  
    23    7   22 1  
    24    8   23 1  
    25    8   24 1  
    26    9   25 1  
    27   12   26 1  
