# Name:          seed_class_5_518_25/34898
# Creation time: Fri May 21 00:57:20 2010


@<TRIPOS>MOLECULE
seed_class_5_518_25/34898
   18    18     1     1     1
SMALL
USER_CHARGES


@<TRIPOS>ATOM
      1 N           2.6363    1.3234   -1.8542 N.2        1 <1>        0.000
      2 O           3.4417    2.0267   -1.2730 O.2        1 <1>        0.000
      3 O           2.1169    1.7153   -2.8827 O.2        1 <1>        0.000
      4 C           2.2909    0.0006   -1.3141 C.2        1 <1>        0.000
      5 C           3.2235   -0.8439   -0.8529 C.2        1 <1>        0.000
      6 N           2.8919   -2.0654   -0.3554 N.pl3      1 <1>        0.000
      7 C           1.7319   -2.0812    0.3544 C.2        1 <1>        0.000
      8 C           0.6810   -1.3360   -0.0095 C.2        1 <1>        0.000
      9 C           0.8638   -0.4882   -1.2456 C.3        1 <1>        0.000
     10 H          -0.0839    0.6869   -1.2121 H.spc      1 <1>        0.000
     11 C          -0.5863   -1.3444    0.7549 C.2        1 <1>        0.000
     12 O          -0.6041   -0.9539    1.9106 O.2        1 <1>        0.000
     13 O          -1.7225   -1.7841    0.1734 O.3        1 <1>        0.000
     14 H          -2.8941   -1.8927    0.9861 H.spc      1 <1>        0.000
     15 H           1.6274   -2.9566    1.5804 H.spc      1 <1>        0.000
     16 H           4.6752   -0.4299   -0.8863 H.spc      1 <1>        0.000
     17 H           3.4635   -2.8974   -0.5019 H.spc      1 <1>        0.000
     18 H           0.6457   -1.0884   -2.1289 H.spc      1 <1>        0.000
@<TRIPOS>BOND
     1    1    2 2  
     2    1    3 2  
     3    1    4 1  
     4    4    5 2  
     5    5    6 1  
     6    6    7 1  
     7    7    8 2  
     8    8    9 1  
     9    9    4 1  
    10    9   10 1  
    11    8   11 1  
    12   11   12 2  
    13   11   13 1  
    14   13   14 1  
    15    7   15 1  
    16    5   16 1  
    17    6   17 1  
    18    9   18 1  
