# Name:          seed_class_4_187_141/38664
# Creation time: Fri May 21 00:57:15 2010


@<TRIPOS>MOLECULE
seed_class_4_187_141/38664
   21    22     1     1     1
SMALL
USER_CHARGES


@<TRIPOS>ATOM
      1 N           1.1631    0.5726    1.0968 N.3        1 <1>        0.000
      2 C           0.4534   -0.5958    0.5564 C.3        1 <1>        0.000
      3 C           0.4871   -0.1300   -0.9111 C.3        1 <1>        0.000
      4 C           1.8750    0.5281   -1.0211 C.3        1 <1>        0.000
      5 C           2.4378    0.3457    0.4007 C.3        1 <1>        0.000
      6 C           3.2299   -0.9560    0.6236 C.3        1 <1>        0.000
      7 C           2.3644   -2.1204    0.1070 C.3        1 <1>        0.000
      8 C           0.9923   -2.0179    0.7987 C.3        1 <1>        0.000
      9 H          -0.5554    0.8113   -1.1799 H.spc      1 <1>        0.000
     10 H           1.2131    0.6354    2.1136 H.spc      1 <1>        0.000
     11 H          -0.5055   -0.7908    1.0366 H.spc      1 <1>        0.000
     12 H           0.3320   -0.9377   -1.6264 H.spc      1 <1>        0.000
     13 H           1.8316    1.5711   -1.3348 H.spc      1 <1>        0.000
     14 H           2.5024    0.0800   -1.7916 H.spc      1 <1>        0.000
     15 H           3.2467    0.9905    0.7442 H.spc      1 <1>        0.000
     16 H           3.4541   -1.0887    1.6820 H.spc      1 <1>        0.000
     17 H           4.1789   -0.9205    0.0886 H.spc      1 <1>        0.000
     18 H           2.8359   -3.0765    0.3343 H.spc      1 <1>        0.000
     19 H           2.2515   -2.0610   -0.9755 H.spc      1 <1>        0.000
     20 H           1.0899   -2.2105    1.8671 H.spc      1 <1>        0.000
     21 H           0.3050   -2.7594    0.3914 H.spc      1 <1>        0.000
@<TRIPOS>BOND
     1    1    2 1  
     2    2    3 1  
     3    3    4 1  
     4    4    5 1  
     5    5    1 1  
     6    5    6 1  
     7    6    7 1  
     8    7    8 1  
     9    8    2 1  
    10    3    9 1  
    11    1   10 1  
    12    2   11 1  
    13    3   12 1  
    14    4   13 1  
    15    4   14 1  
    16    5   15 1  
    17    6   16 1  
    18    6   17 1  
    19    7   18 1  
    20    7   19 1  
    21    8   20 1  
    22    8   21 1  
