# Name:          seed_class_2_33_333/95646
# Creation time: Fri May 21 00:57:13 2010


@<TRIPOS>MOLECULE
seed_class_2_33_333/95646
    9     9     1     1     1
SMALL
USER_CHARGES


@<TRIPOS>ATOM
      1 H           3.8419    2.2419    2.0818 H.spc      1 <1>        0.000
      2 C           2.9548    1.6317    0.5406 C.ar       1 <1>        0.000
      3 S           1.2507    1.1757    0.3957 S.3        1 <1>        0.000
      4 C           1.2895    0.7485   -1.3216 C.ar       1 <1>        0.000
      5 C           2.5515    0.9575   -1.7207 C.ar       1 <1>        0.000
      6 C           3.4798    1.4508   -0.6789 C.ar       1 <1>        0.000
      7 H           0.1613    0.2613   -2.1462 H.spc      1 <1>        0.000
      8 H           2.8735    0.7760   -2.7461 H.spc      1 <1>        0.000
      9 H           4.5292    1.6550   -0.8912 H.spc      1 <1>        0.000
@<TRIPOS>BOND
     1    1    2 1  
     2    2    3 ar 
     3    3    4 ar 
     4    4    5 ar 
     5    5    6 ar 
     6    6    2 ar 
     7    4    7 1  
     8    5    8 1  
     9    6    9 1  
