# Name:          seed_class_5_377_527/34898
# Creation time: Fri May 21 00:57:18 2010


@<TRIPOS>MOLECULE
seed_class_5_377_527/34898
   12    12     1     1     1
SMALL
USER_CHARGES


@<TRIPOS>ATOM
      1 Cl          6.7424    3.3582    1.9179 Cl         1 <1>        0.000
      2 C           5.1782    2.6834    2.2725 C.ar       1 <1>        0.000
      3 C           4.0205    3.3152    1.8029 C.ar       1 <1>        0.000
      4 C           2.7620    2.7723    2.0882 C.ar       1 <1>        0.000
      5 C           2.6612    1.5975    2.8431 C.ar       1 <1>        0.000
      6 C           3.8189    0.9657    3.3126 C.ar       1 <1>        0.000
      7 C           5.0774    1.5086    3.0273 C.ar       1 <1>        0.000
      8 H           1.3038    1.0120    3.1508 H.spc      1 <1>        0.000
      9 H           4.0990    4.2298    1.2151 H.spc      1 <1>        0.000
     10 H           1.8606    3.2642    1.7226 H.spc      1 <1>        0.000
     11 H           3.7404    0.0511    3.9003 H.spc      1 <1>        0.000
     12 H           5.9788    1.0166    3.3928 H.spc      1 <1>        0.000
@<TRIPOS>BOND
     1    1    2 1  
     2    2    3 ar 
     3    3    4 ar 
     4    4    5 ar 
     5    5    6 ar 
     6    6    7 ar 
     7    7    2 ar 
     8    5    8 1  
     9    3    9 1  
    10    4   10 1  
    11    6   11 1  
    12    7   12 1  
