# Name:          seed_class_4_306_30/38664
# Creation time: Fri May 21 00:57:17 2010


@<TRIPOS>MOLECULE
seed_class_4_306_30/38664
   14    14     1     1     1
SMALL
USER_CHARGES


@<TRIPOS>ATOM
      1 N           0.6250    1.4765    0.3938 N.am       1 <1>        0.000
      2 C          -0.6558    1.6498   -0.3066 C.3        1 <1>        0.000
      3 C          -1.0674    2.6834    0.7583 C.3        1 <1>        0.000
      4 C           0.2686    2.3182    1.3599 C.2        1 <1>        0.000
      5 O           0.8342    2.6768    2.3916 O.2        1 <1>        0.000
      6 H          -2.2924    2.3191    1.5958 H.spc      1 <1>        0.000
      7 H          -1.2002    4.1220    0.2669 H.spc      1 <1>        0.000
      8 H          -1.4707    0.4748   -0.3098 H.spc      1 <1>        0.000
      9 C           0.8298    0.2344    0.8228 C.2        1 <1>        0.000
     10 O          -0.0464   -0.3453    1.5002 O.2        1 <1>        0.000
     11 N           1.9668   -0.3909    0.5312 N.am       1 <1>        0.000
     12 H           2.1826   -1.7728    0.9835 H.spc      1 <1>        0.000
     13 H          -0.6869    1.8943   -1.3684 H.spc      1 <1>        0.000
     14 H           2.6891    0.0884   -0.0063 H.spc      1 <1>        0.000
@<TRIPOS>BOND
     1    1    2 1  
     2    2    3 1  
     3    3    4 1  
     4    4    1 am 
     5    4    5 2  
     6    3    6 1  
     7    3    7 1  
     8    2    8 1  
     9    1    9 am 
    10    9   10 2  
    11    9   11 am 
    12   11   12 1  
    13    2   13 1  
    14   11   14 1  
