# Name:          seed_class_4_241_53/38664
# Creation time: Fri May 21 00:57:16 2010


@<TRIPOS>MOLECULE
seed_class_4_241_53/38664
   28    30     1     1     1
SMALL
USER_CHARGES


@<TRIPOS>ATOM
      1 N          -1.5495    0.4514    0.1877 N.3        1 <1>        0.000
      2 C          -0.8341    0.7688   -1.0567 C.3        1 <1>        0.000
      3 C          -0.2933   -0.5062   -1.7301 C.3        1 <1>        0.000
      4 C           0.5780   -1.3194   -0.7549 C.3        1 <1>        0.000
      5 C          -0.2795   -1.5652    0.5004 C.3        1 <1>        0.000
      6 C          -0.6796   -0.2308    1.1567 C.3        1 <1>        0.000
      7 C           0.5923    0.5651    1.5040 C.3        1 <1>        0.000
      8 C           1.7928    0.4401    0.5967 C.ar       1 <1>        0.000
      9 C           1.7861   -0.4567   -0.4784 C.ar       1 <1>        0.000
     10 C           2.9073   -0.5605   -1.3103 C.ar       1 <1>        0.000
     11 C           4.0352    0.2324   -1.0672 C.ar       1 <1>        0.000
     12 C           4.0419    1.1292    0.0079 C.ar       1 <1>        0.000
     13 C           2.9207    1.2330    0.8398 C.ar       1 <1>        0.000
     14 H           5.1324    0.1307   -1.8813 H.spc      1 <1>        0.000
     15 H          -1.5288   -2.3599    0.1310 H.spc      1 <1>        0.000
     16 H           1.0329   -2.6508   -1.3458 H.spc      1 <1>        0.000
     17 H          -2.0675    1.6918    0.7826 H.spc      1 <1>        0.000
     18 H           0.0073    1.4192   -0.8177 H.spc      1 <1>        0.000
     19 H          -1.5278    1.2562   -1.7418 H.spc      1 <1>        0.000
     20 H           0.3167   -0.2174   -2.5860 H.spc      1 <1>        0.000
     21 H          -1.1373   -1.1219   -2.0411 H.spc      1 <1>        0.000
     22 H           0.3115   -2.1377    1.2153 H.spc      1 <1>        0.000
     23 H          -1.2190   -0.3557    2.0956 H.spc      1 <1>        0.000
     24 H           0.9205    0.1710    2.4658 H.spc      1 <1>        0.000
     25 H           0.2977    1.6127    1.4430 H.spc      1 <1>        0.000
     26 H           2.9021   -1.2587   -2.1473 H.spc      1 <1>        0.000
     27 H           4.9200    1.7466    0.1972 H.spc      1 <1>        0.000
     28 H           2.9259    1.9312    1.6768 H.spc      1 <1>        0.000
@<TRIPOS>BOND
     1    1    2 1  
     2    2    3 1  
     3    3    4 1  
     4    4    5 1  
     5    5    6 1  
     6    6    1 1  
     7    6    7 1  
     8    7    8 1  
     9    8    9 ar 
    10    9    4 1  
    11    9   10 ar 
    12   10   11 ar 
    13   11   12 ar 
    14   12   13 ar 
    15   13    8 ar 
    16   11   14 1  
    17    5   15 1  
    18    4   16 1  
    19    1   17 1  
    20    2   18 1  
    21    2   19 1  
    22    3   20 1  
    23    3   21 1  
    24    5   22 1  
    25    6   23 1  
    26    7   24 1  
    27    7   25 1  
    28   10   26 1  
    29   12   27 1  
    30   13   28 1  
