# Name:          seed_class_4_266_40/38664
# Creation time: Fri May 21 00:57:16 2010


@<TRIPOS>MOLECULE
seed_class_4_266_40/38664
   20    20     1     1     1
SMALL
USER_CHARGES


@<TRIPOS>ATOM
      1 H          -0.1039    0.0165    2.9260 H.spc      1 <1>        0.000
      2 C          -1.5640   -0.1355    2.8477 C.3        1 <1>        0.000
      3 C          -1.9290   -1.6300    2.9172 C.3        1 <1>        0.000
      4 N          -3.2995   -1.8960    2.4569 N.3        1 <1>        0.000
      5 C          -4.3682   -1.8791    3.4662 C.3        1 <1>        0.000
      6 C          -4.2713   -0.7237    4.4796 C.3        1 <1>        0.000
      7 C          -3.7642    0.6291    3.9463 C.3        1 <1>        0.000
      8 C          -2.2299    0.7418    3.9240 C.3        1 <1>        0.000
      9 H          -3.3162   -3.2051    1.7885 H.spc      1 <1>        0.000
     10 H          -1.9516    0.2205    1.8932 H.spc      1 <1>        0.000
     11 H          -1.8561   -1.9462    3.9578 H.spc      1 <1>        0.000
     12 H          -1.2440   -2.1743    2.2671 H.spc      1 <1>        0.000
     13 H          -4.2873   -2.8073    4.0320 H.spc      1 <1>        0.000
     14 H          -5.3100   -1.7562    2.9315 H.spc      1 <1>        0.000
     15 H          -3.5441   -1.0418    5.2267 H.spc      1 <1>        0.000
     16 H          -5.2888   -0.5452    4.8273 H.spc      1 <1>        0.000
     17 H          -4.1408    1.4062    4.6115 H.spc      1 <1>        0.000
     18 H          -4.1157    0.7297    2.9194 H.spc      1 <1>        0.000
     19 H          -1.8629    0.4052    4.8936 H.spc      1 <1>        0.000
     20 H          -1.9812    1.7792    3.7004 H.spc      1 <1>        0.000
@<TRIPOS>BOND
     1    1    2 1  
     2    2    3 1  
     3    3    4 1  
     4    4    5 1  
     5    5    6 1  
     6    6    7 1  
     7    7    8 1  
     8    8    2 1  
     9    4    9 1  
    10    2   10 1  
    11    3   11 1  
    12    3   12 1  
    13    5   13 1  
    14    5   14 1  
    15    6   15 1  
    16    6   16 1  
    17    7   17 1  
    18    7   18 1  
    19    8   19 1  
    20    8   20 1  
