# Name:          seed_class_4_170_290/38664
# Creation time: Fri May 21 00:57:15 2010


@<TRIPOS>MOLECULE
seed_class_4_170_290/38664
   15    16     1     1     1
SMALL
USER_CHARGES


@<TRIPOS>ATOM
      1 H           1.7751   -1.9004    3.7221 H.spc      1 <1>        0.000
      2 C           3.1903   -1.9221    3.1960 C.ar       1 <1>        0.000
      3 C           4.0596   -2.9546    3.5681 C.ar       1 <1>        0.000
      4 C           5.3717   -2.9748    3.0803 C.ar       1 <1>        0.000
      5 C           5.8146   -1.9625    2.2205 C.ar       1 <1>        0.000
      6 C           4.9453   -0.9301    1.8484 C.ar       1 <1>        0.000
      7 C           3.6332   -0.9099    2.3362 C.ar       1 <1>        0.000
      8 O           7.1207   -2.2183    1.8957 O.3        1 <1>        0.000
      9 C           7.5881   -3.1563    2.8686 C.3        1 <1>        0.000
     10 O           6.4071   -3.8491    3.2811 O.3        1 <1>        0.000
     11 H           3.7148   -3.7427    4.2376 H.spc      1 <1>        0.000
     12 H           5.2901   -0.1420    1.1789 H.spc      1 <1>        0.000
     13 H           2.9564   -0.1061    2.0466 H.spc      1 <1>        0.000
     14 H           8.0919   -2.6680    3.7028 H.spc      1 <1>        0.000
     15 H           8.3408   -3.8315    2.4615 H.spc      1 <1>        0.000
@<TRIPOS>BOND
     1    1    2 1  
     2    2    3 ar 
     3    3    4 ar 
     4    4    5 ar 
     5    5    6 ar 
     6    6    7 ar 
     7    7    2 ar 
     8    5    8 1  
     9    8    9 1  
    10    9   10 1  
    11   10    4 1  
    12    3   11 1  
    13    6   12 1  
    14    7   13 1  
    15    9   14 1  
    16    9   15 1  
