# Name:          seed_class_4_230_64/38664
# Creation time: Fri May 21 00:57:16 2010


@<TRIPOS>MOLECULE
seed_class_4_230_64/38664
   10    10     1     1     1
SMALL
USER_CHARGES


@<TRIPOS>ATOM
      1 H          -0.6739    0.1295    0.3938 H.spc      1 <1>        0.000
      2 C          -1.8397    0.8196    0.2742 C.2        1 <1>        0.000
      3 N          -2.6289    0.7458   -0.7813 N.2        1 <1>        0.000
      4 C          -3.7913    1.6194   -0.5660 C.3        1 <1>        0.000
      5 C          -3.6937    1.9428    0.9366 C.3        1 <1>        0.000
      6 O          -2.3229    1.6669    1.2363 O.3        1 <1>        0.000
      7 H          -4.7353    1.1485   -0.8404 H.spc      1 <1>        0.000
      8 H          -3.7784    2.5092   -1.1954 H.spc      1 <1>        0.000
      9 H          -4.3849    1.3554    1.5410 H.spc      1 <1>        0.000
     10 H          -3.9783    2.9694    1.1672 H.spc      1 <1>        0.000
@<TRIPOS>BOND
     1    1    2 1  
     2    2    3 2  
     3    3    4 1  
     4    4    5 1  
     5    5    6 1  
     6    6    2 1  
     7    4    7 1  
     8    4    8 1  
     9    5    9 1  
    10    5   10 1  
