# Name:          seed_class_4_355_21/38664
# Creation time: Fri May 21 00:57:18 2010


@<TRIPOS>MOLECULE
seed_class_4_355_21/38664
   11    11     1     1     1
SMALL
USER_CHARGES


@<TRIPOS>ATOM
      1 N           6.2060    4.5196   -3.4398 N.am       1 <1>        0.000
      2 C           6.4163    3.0899   -3.1702 C.3        1 <1>        0.000
      3 C           5.0650    2.5657   -2.7504 C.2        1 <1>        0.000
      4 C           4.2084    3.5955   -2.7861 C.2        1 <1>        0.000
      5 C           4.9282    4.8144   -3.2180 C.2        1 <1>        0.000
      6 O           4.4229    5.9279   -3.3512 O.2        1 <1>        0.000
      7 H           2.7695    3.5252   -2.4472 H.spc      1 <1>        0.000
      8 H           4.7688    1.2754   -2.3979 H.spc      1 <1>        0.000
      9 H           7.4158    2.9200   -2.0271 H.spc      1 <1>        0.000
     10 H           7.2386    5.4678   -3.8820 H.spc      1 <1>        0.000
     11 H           6.8118    2.5611   -4.0374 H.spc      1 <1>        0.000
@<TRIPOS>BOND
     1    1    2 1  
     2    2    3 1  
     3    3    4 2  
     4    4    5 1  
     5    5    1 am 
     6    5    6 2  
     7    4    7 1  
     8    3    8 1  
     9    2    9 1  
    10    1   10 1  
    11    2   11 1  
