#	Name:			4H-pyran
#	Creating user name:	becker
#	Creation time:		Thu Dec 19 02:54:38 2002

#	Modifying user name:	zmliu
#	Modification time:	Thu Mar 11 20:19:51 2004

@<TRIPOS>MOLECULE
4H-pyran
   12    12     1     1     0
SMALL
GAST_HUCK


@<TRIPOS>ATOM
      1 O1         -0.0002    1.6805    0.0009 O.3       1 PYRAN      -0.1214 
      2 C1          1.1707    1.0290    0.0003 C.2       1 PYRAN       0.2753 
      3 C2          1.2345   -0.3079   -0.0006 C.2       1 PYRAN      -0.0892 
      4 C3          0.0001   -1.1643    0.0004 C.3       1 PYRAN      -0.2508 
      5 C4         -1.2344   -0.3081    0.0000 C.2       1 PYRAN      -0.0892 
      6 C5         -1.1710    1.0288   -0.0002 C.2       1 PYRAN       0.2753 
      7 H1          2.0838    1.6245    0.0005 H.spc     1 PYRAN      -1.0000 
      8 H2          2.2088   -0.7995   -0.0020 H.spc     1 PYRAN      -1.0000 
      9 H3          0.0007   -1.8026    0.8974 H.spc     1 PYRAN      -1.0000 
     10 H4         -0.0002   -1.8046   -0.8953 H.spc     1 PYRAN      -1.0000 
     11 H5         -2.2086   -0.7999    0.0000 H.spc     1 PYRAN      -1.0000 
     12 H6         -2.0842    1.6241   -0.0012 H.spc     1 PYRAN      -1.0000 
@<TRIPOS>BOND
     1    1    2 1    
     2    1    6 1    
     3    2    3 2    
     4    3    4 1    
     5    4    5 1    
     6    5    6 2    
     7    2    7 1    
     8    3    8 1    
     9    4    9 1    
    10    4   10 1    
    11    5   11 1    
    12    6   12 1    
@<TRIPOS>SUBSTRUCTURE
     1 PYRAN       1 PERM              0 ****  ****    0 ROOT 
@<TRIPOS>NORMAL
@<TRIPOS>FF_PBC
FORCE_FIELD_SETUP_FEATURE Force Field Setup information
v1.0  0 0.000000 0.000000 0.000000 0.000000 0.000000 0.000000 NONE 2 0 0 0 0 0 0 0 0 0 0 0 0
