# Name:          seed_class_2_36_258/95646
# Creation time: Fri May 21 00:57:13 2010


@<TRIPOS>MOLECULE
seed_class_2_36_258/95646
    7     7     1     1     1
SMALL
USER_CHARGES


@<TRIPOS>ATOM
      1 N          -4.4987    1.6956   -3.0604 N.pl3      1 <1>        0.000
      2 N          -4.0237    3.0066   -3.4580 N.ar       1 <1>        0.000
      3 N          -4.0663    3.7662   -2.4662 N.ar       1 <1>        0.000
      4 N          -4.5733    3.0174   -1.3327 N.ar       1 <1>        0.000
      5 C          -4.8162    1.7859   -1.7411 C.ar       1 <1>        0.000
      6 H          -5.3456    0.6869   -0.9030 H.spc      1 <1>        0.000
      7 H          -4.5788    0.8692   -3.6529 H.spc      1 <1>        0.000
@<TRIPOS>BOND
     1    1    2 ar 
     2    2    3 ar 
     3    3    4 ar 
     4    4    5 ar 
     5    5    1 ar 
     6    5    6 1  
     7    1    7 1  
