# Name:          seed_class_2_12_24538/95646
# Creation time: Fri May 21 00:57:11 2010


@<TRIPOS>MOLECULE
seed_class_2_12_24538/95646
   12    12     1     1     1
SMALL
USER_CHARGES


@<TRIPOS>ATOM
      1 H          -0.8197   -0.2724   -0.3904 H.spc      1 <1>        0.000
      2 C          -2.0482   -0.7728    0.2660 C.ar       1 <1>        0.000
      3 C          -3.0319    0.1284    0.6903 C.ar       1 <1>        0.000
      4 C          -4.1940   -0.3449    1.3112 C.ar       1 <1>        0.000
      5 C          -4.3723   -1.7195    1.5078 C.ar       1 <1>        0.000
      6 C          -3.3886   -2.6208    1.0836 C.ar       1 <1>        0.000
      7 C          -2.2265   -2.1474    0.4626 C.ar       1 <1>        0.000
      8 H          -2.8930    1.1986    0.5372 H.spc      1 <1>        0.000
      9 H          -4.9599    0.3568    1.6415 H.spc      1 <1>        0.000
     10 H          -5.2771   -2.0880    1.9912 H.spc      1 <1>        0.000
     11 H          -3.5274   -3.6910    1.2368 H.spc      1 <1>        0.000
     12 H          -1.4606   -2.8491    0.1322 H.spc      1 <1>        0.000
@<TRIPOS>BOND
     1    1    2 1  
     2    2    3 ar 
     3    3    4 ar 
     4    4    5 ar 
     5    5    6 ar 
     6    6    7 ar 
     7    7    2 ar 
     8    3    8 1  
     9    4    9 1  
    10    5   10 1  
    11    6   11 1  
    12    7   12 1  
