# Name:          seed_class_3_123_36/26467
# Creation time: Fri May 21 00:57:15 2010


@<TRIPOS>MOLECULE
seed_class_3_123_36/26467
    8     7     1     1     1
SMALL
USER_CHARGES


@<TRIPOS>ATOM
      1 H           3.5282   -1.1541    1.5349 H.spc      1 <1>        0.000
      2 C           2.3108   -1.1181    0.6940 C.2        1 <1>        0.000
      3 C           1.3165   -1.9883    0.9171 C.2        1 <1>        0.000
      4 H           1.4381   -3.0056    2.0264 H.spc      1 <1>        0.000
      5 C           0.0991   -1.9524    0.0763 C.2        1 <1>        0.000
      6 H          -0.9253   -1.1573    0.4140 H.spc      1 <1>        0.000
      7 H           2.2230   -0.3838   -0.1067 H.spc      1 <1>        0.000
      8 H           0.0358   -2.5728   -0.8177 H.spc      1 <1>        0.000
@<TRIPOS>BOND
     1    1    2 1  
     2    2    3 2  
     3    3    4 1  
     4    3    5 1  
     5    5    6 2  
     6    2    7 1  
     7    5    8 1  
