# Name:          seed_class_5_486_33/34898
# Creation time: Fri May 21 00:57:19 2010


@<TRIPOS>MOLECULE
seed_class_5_486_33/34898
   10    10     1     1     1
SMALL
USER_CHARGES


@<TRIPOS>ATOM
      1 S           2.6277    1.6768   -1.7022 S.3        1 <1>        0.000
      2 C           2.9628    0.0367   -1.1271 C.ar       1 <1>        0.000
      3 N           1.8368   -0.3687   -0.5702 N.ar       1 <1>        0.000
      4 C           0.7534    0.5180   -0.5715 C.ar       1 <1>        0.000
      5 C           0.9491    1.7145   -1.1421 C.ar       1 <1>        0.000
      6 H          -0.5746    0.1432    0.0418 H.spc      1 <1>        0.000
      7 N           4.1282   -0.6559   -1.2356 N.pl3      1 <1>        0.000
      8 H           0.2330    2.5305   -1.2397 H.spc      1 <1>        0.000
      9 H           4.1959   -1.6021   -0.8608 H.spc      1 <1>        0.000
     10 H           4.9345   -0.2291   -1.6918 H.spc      1 <1>        0.000
@<TRIPOS>BOND
     1    1    2 ar 
     2    2    3 ar 
     3    3    4 ar 
     4    4    5 ar 
     5    5    1 ar 
     6    4    6 1  
     7    2    7 1  
     8    5    8 1  
     9    7    9 1  
    10    7   10 1  
