# Name:          seed_class_4_372_20/38664
# Creation time: Fri May 21 00:57:18 2010


@<TRIPOS>MOLECULE
seed_class_4_372_20/38664
    8     8     1     1     1
SMALL
USER_CHARGES


@<TRIPOS>ATOM
      1 H           3.2768    1.1440    0.1371 H.spc      1 <1>        0.000
      2 N           1.5924    1.0848    0.0137 N.am       1 <1>        0.000
      3 N           0.8275    0.2666   -0.9071 N.2        1 <1>        0.000
      4 C          -0.4518    0.5075   -0.6885 C.2        1 <1>        0.000
      5 O          -0.5644    1.4469    0.3340 O.3        1 <1>        0.000
      6 C           0.7247    1.7803    0.7433 C.2        1 <1>        0.000
      7 O           1.0097    2.5762    1.6229 O.2        1 <1>        0.000
      8 H          -1.5817   -0.1180   -1.4114 H.spc      1 <1>        0.000
@<TRIPOS>BOND
     1    1    2 1  
     2    2    3 1  
     3    3    4 2  
     4    4    5 1  
     5    5    6 1  
     6    6    2 am 
     7    6    7 2  
     8    4    8 1  
