# Name:          seed_class_4_297_32/38664
# Creation time: Fri May 21 00:57:17 2010


@<TRIPOS>MOLECULE
seed_class_4_297_32/38664
   35    39     1     1     1
SMALL
USER_CHARGES


@<TRIPOS>ATOM
      1 N           3.1621   -1.2524   -2.6105 N.3        1 <1>        0.000
      2 C           1.8267   -0.7060   -2.3285 C.3        1 <1>        0.000
      3 C           0.8664   -1.8644   -2.0004 C.3        1 <1>        0.000
      4 C          -0.4970   -1.3381   -1.6204 C.ar       1 <1>        0.000
      5 C          -0.5811   -0.1176   -0.9396 C.ar       1 <1>        0.000
      6 C          -1.8328    0.4100   -0.6006 C.ar       1 <1>        0.000
      7 C          -3.0003   -0.2828   -0.9424 C.ar       1 <1>        0.000
      8 C          -2.9162   -1.5032   -1.6232 C.ar       1 <1>        0.000
      9 C          -1.6646   -2.0309   -1.9622 C.ar       1 <1>        0.000
     10 H          -4.0588   -2.1812   -1.9577 H.spc      1 <1>        0.000
     11 H          -4.2252    0.2335   -0.6107 H.spc      1 <1>        0.000
     12 C           0.6538    0.5993   -0.5504 C.ar       1 <1>        0.000
     13 C           0.6347    1.5467    0.4801 C.ar       1 <1>        0.000
     14 C           1.8110    2.2165    0.8371 C.ar       1 <1>        0.000
     15 C           3.0065    1.9390    0.1635 C.ar       1 <1>        0.000
     16 C           3.0254    0.9927   -0.8658 C.ar       1 <1>        0.000
     17 C           1.8493    0.3217   -1.2240 C.ar       1 <1>        0.000
     18 C           4.3273    0.6575   -1.5534 C.3        1 <1>        0.000
     19 C           4.1348   -0.1735   -2.8356 C.3        1 <1>        0.000
     20 O           1.5184    3.0787    1.8608 O.3        1 <1>        0.000
     21 C           0.0958    3.2231    1.8546 C.3        1 <1>        0.000
     22 O          -0.3769    1.9993    1.2856 O.3        1 <1>        0.000
     23 H           3.1100   -1.8272   -3.4515 H.spc      1 <1>        0.000
     24 H           1.4730   -0.1836   -3.2173 H.spc      1 <1>        0.000
     25 H           1.2714   -2.4303   -1.1615 H.spc      1 <1>        0.000
     26 H           0.7658   -2.4983   -2.8814 H.spc      1 <1>        0.000
     27 H          -1.8983    1.3602   -0.0705 H.spc      1 <1>        0.000
     28 H          -1.5992   -2.9811   -2.4922 H.spc      1 <1>        0.000
     29 H           3.9224    2.4605    0.4414 H.spc      1 <1>        0.000
     30 H           4.9255    0.0653   -0.8609 H.spc      1 <1>        0.000
     31 H           4.8052    1.5959   -1.8348 H.spc      1 <1>        0.000
     32 H           5.0911   -0.6131   -3.1189 H.spc      1 <1>        0.000
     33 H           3.7635    0.4779   -3.6267 H.spc      1 <1>        0.000
     34 H          -0.2273    4.0942    1.2847 H.spc      1 <1>        0.000
     35 H          -0.3052    3.3949    2.8535 H.spc      1 <1>        0.000
@<TRIPOS>BOND
     1    1    2 1  
     2    2    3 1  
     3    3    4 1  
     4    4    5 ar 
     5    5    6 ar 
     6    6    7 ar 
     7    7    8 ar 
     8    8    9 ar 
     9    9    4 ar 
    10    8   10 1  
    11    7   11 1  
    12    5   12 1  
    13   12   13 ar 
    14   13   14 ar 
    15   14   15 ar 
    16   15   16 ar 
    17   16   17 ar 
    18   17    2 1  
    19   17   12 ar 
    20   16   18 1  
    21   18   19 1  
    22   19    1 1  
    23   14   20 1  
    24   20   21 1  
    25   21   22 1  
    26   22   13 1  
    27    1   23 1  
    28    2   24 1  
    29    3   25 1  
    30    3   26 1  
    31    6   27 1  
    32    9   28 1  
    33   15   29 1  
    34   18   30 1  
    35   18   31 1  
    36   19   32 1  
    37   19   33 1  
    38   21   34 1  
    39   21   35 1  
