# Name:          seed_class_5_497_31/34898
# Creation time: Fri May 21 00:57:19 2010


@<TRIPOS>MOLECULE
seed_class_5_497_31/34898
   15    15     1     1     1
SMALL
USER_CHARGES


@<TRIPOS>ATOM
      1 O           3.0070    1.3712   -0.3061 O.3        1 <1>        0.000
      2 H           4.0890    0.8563    0.4744 H.spc      1 <1>        0.000
      3 C           1.7922    0.7446   -0.2138 C.ar       1 <1>        0.000
      4 C           0.7068    1.2073   -0.9674 C.ar       1 <1>        0.000
      5 C          -0.5346    0.5670   -0.8731 C.ar       1 <1>        0.000
      6 C          -0.6906   -0.5361   -0.0252 C.ar       1 <1>        0.000
      7 C           0.3947   -0.9988    0.7283 C.ar       1 <1>        0.000
      8 C           1.6361   -0.3585    0.6340 C.ar       1 <1>        0.000
      9 O           0.2420   -2.0783    1.5580 O.3        1 <1>        0.000
     10 H           1.3759   -2.5082    2.3159 H.spc      1 <1>        0.000
     11 H          -2.0296   -1.2267    0.0765 H.spc      1 <1>        0.000
     12 O           0.8595    2.2868   -1.7970 O.3        1 <1>        0.000
     13 H          -0.2800    2.7299   -2.5388 H.spc      1 <1>        0.000
     14 H          -1.3796    0.9273   -1.4598 H.spc      1 <1>        0.000
     15 H           2.4811   -0.7188    1.2207 H.spc      1 <1>        0.000
@<TRIPOS>BOND
     1    1    2 1  
     2    1    3 1  
     3    3    4 ar 
     4    4    5 ar 
     5    5    6 ar 
     6    6    7 ar 
     7    7    8 ar 
     8    8    3 ar 
     9    7    9 1  
    10    9   10 1  
    11    6   11 1  
    12    4   12 1  
    13   12   13 1  
    14    5   14 1  
    15    8   15 1  
