# Name:          seed_class_4_351_22/38664
# Creation time: Fri May 21 00:57:18 2010


@<TRIPOS>MOLECULE
seed_class_4_351_22/38664
   22    23     1     1     1
SMALL
USER_CHARGES


@<TRIPOS>ATOM
      1 O           0.8421    1.5592   -0.6519 O.3        1 <1>        0.000
      2 C          -0.4334    2.1984   -0.7492 C.3        1 <1>        0.000
      3 C          -1.5711    1.1660   -0.8567 C.3        1 <1>        0.000
      4 O          -2.8888    1.7211   -0.8335 O.3        1 <1>        0.000
      5 C          -3.8739    0.7374   -1.1602 C.3        1 <1>        0.000
      6 C          -3.8918   -0.4137   -0.1374 C.3        1 <1>        0.000
      7 C          -2.4890   -1.0305    0.0150 C.3        1 <1>        0.000
      8 C          -1.4048    0.0490    0.1903 C.3        1 <1>        0.000
      9 O          -0.0589   -0.4336    0.2174 O.3        1 <1>        0.000
     10 C           0.8869    0.6188    0.4245 C.3        1 <1>        0.000
     11 H           2.2779    0.0449    0.5506 H.spc      1 <1>        0.000
     12 H          -2.4781   -1.8957    1.1535 H.spc      1 <1>        0.000
     13 H          -4.8031   -1.4225   -0.5810 H.spc      1 <1>        0.000
     14 H          -5.1625    1.3565   -1.1925 H.spc      1 <1>        0.000
     15 H          -0.4427    2.8190   -1.6453 H.spc      1 <1>        0.000
     16 H          -0.5911    2.7958    0.1488 H.spc      1 <1>        0.000
     17 H          -1.4740    0.7329   -1.8522 H.spc      1 <1>        0.000
     18 H          -3.6231    0.3191   -2.1350 H.spc      1 <1>        0.000
     19 H          -4.2065   -0.0182    0.8283 H.spc      1 <1>        0.000
     20 H          -2.2654   -1.5875   -0.8949 H.spc      1 <1>        0.000
     21 H          -1.5713    0.4526    1.1890 H.spc      1 <1>        0.000
     22 H           0.6280    1.1383    1.3471 H.spc      1 <1>        0.000
@<TRIPOS>BOND
     1    1    2 1  
     2    2    3 1  
     3    3    4 1  
     4    4    5 1  
     5    5    6 1  
     6    6    7 1  
     7    7    8 1  
     8    8    3 1  
     9    8    9 1  
    10    9   10 1  
    11   10    1 1  
    12   10   11 1  
    13    7   12 1  
    14    6   13 1  
    15    5   14 1  
    16    2   15 1  
    17    2   16 1  
    18    3   17 1  
    19    5   18 1  
    20    6   19 1  
    21    7   20 1  
    22    8   21 1  
    23   10   22 1  
