# Name:          seed_class_4_190_131/38664
# Creation time: Fri May 21 00:57:15 2010


@<TRIPOS>MOLECULE
seed_class_4_190_131/38664
   19    20     1     1     1
SMALL
USER_CHARGES


@<TRIPOS>ATOM
      1 H           0.0938   -0.0293    0.5657 H.spc      1 <1>        0.000
      2 C           1.4151   -0.0731   -0.0769 C.3        1 <1>        0.000
      3 C           2.3109   -1.1729    0.5228 C.3        1 <1>        0.000
      4 C           3.1184   -1.7146   -0.6325 C.ar       1 <1>        0.000
      5 C           2.5440   -1.3039   -1.8414 C.ar       1 <1>        0.000
      6 C           3.1228   -1.6873   -3.0572 C.ar       1 <1>        0.000
      7 C           4.2758   -2.4812   -3.0641 C.ar       1 <1>        0.000
      8 C           4.8502   -2.8918   -1.8551 C.ar       1 <1>        0.000
      9 C           4.2715   -2.5085   -0.6393 C.ar       1 <1>        0.000
     10 C           1.3200   -0.4646   -1.5633 C.3        1 <1>        0.000
     11 H           1.8194    0.9283    0.0710 H.spc      1 <1>        0.000
     12 H           1.7179   -1.9556    0.9958 H.spc      1 <1>        0.000
     13 H           2.9551   -0.7776    1.3082 H.spc      1 <1>        0.000
     14 H           2.6756   -1.3676   -3.9984 H.spc      1 <1>        0.000
     15 H           4.7264   -2.7797   -4.0107 H.spc      1 <1>        0.000
     16 H           5.7480   -3.5099   -1.8604 H.spc      1 <1>        0.000
     17 H           4.7187   -2.8282    0.3019 H.spc      1 <1>        0.000
     18 H           0.4031   -1.0158   -1.7722 H.spc      1 <1>        0.000
     19 H           1.2860    0.4154   -2.2057 H.spc      1 <1>        0.000
@<TRIPOS>BOND
     1    1    2 1  
     2    2    3 1  
     3    3    4 1  
     4    4    5 ar 
     5    5    6 ar 
     6    6    7 ar 
     7    7    8 ar 
     8    8    9 ar 
     9    9    4 ar 
    10    5   10 1  
    11   10    2 1  
    12    2   11 1  
    13    3   12 1  
    14    3   13 1  
    15    6   14 1  
    16    7   15 1  
    17    8   16 1  
    18    9   17 1  
    19   10   18 1  
    20   10   19 1  
