# Name:          seed_class_4_263_41/38664
# Creation time: Fri May 21 00:57:16 2010


@<TRIPOS>MOLECULE
seed_class_4_263_41/38664
   28    30     1     1     1
SMALL
USER_CHARGES


@<TRIPOS>ATOM
      1 N           0.4120    0.9054   -1.1167 N.pl3      1 <1>        0.000
      2 C           1.4730    0.2607   -0.4378 C.ar       1 <1>        0.000
      3 C           1.4708   -0.7034    0.5774 C.ar       1 <1>        0.000
      4 C           2.6821   -1.1867    1.0863 C.ar       1 <1>        0.000
      5 C           3.8957   -0.7060    0.5801 C.ar       1 <1>        0.000
      6 C           3.8978    0.2581   -0.4350 C.ar       1 <1>        0.000
      7 C           2.6865    0.7414   -0.9440 C.ar       1 <1>        0.000
      8 C           0.2835   -1.3458    1.2539 C.3        1 <1>        0.000
      9 C          -1.1911   -1.0401    0.9319 C.3        1 <1>        0.000
     10 C          -1.7226   -0.0668   -0.0930 C.ar       1 <1>        0.000
     11 C          -0.9855    0.7529   -0.9560 C.ar       1 <1>        0.000
     12 C          -1.6478    1.6023   -1.8504 C.ar       1 <1>        0.000
     13 C          -3.0471    1.6320   -1.8817 C.ar       1 <1>        0.000
     14 C          -3.7842    0.8123   -1.0187 C.ar       1 <1>        0.000
     15 C          -3.1219   -0.0370   -0.1243 C.ar       1 <1>        0.000
     16 H          -1.8248   -2.3336    0.6381 H.spc      1 <1>        0.000
     17 H           0.8224    1.8775   -2.1402 H.spc      1 <1>        0.000
     18 H           2.6804   -1.9373    1.8767 H.spc      1 <1>        0.000
     19 H           4.8388   -1.0824    0.9763 H.spc      1 <1>        0.000
     20 H           4.8426    0.6325   -0.8291 H.spc      1 <1>        0.000
     21 H           2.6882    1.4920   -1.7344 H.spc      1 <1>        0.000
     22 H           0.3768   -0.9845    2.2780 H.spc      1 <1>        0.000
     23 H           0.3768   -2.3872    0.9460 H.spc      1 <1>        0.000
     24 H          -1.4240   -0.4610    1.8255 H.spc      1 <1>        0.000
     25 H          -1.0740    2.2405   -2.5224 H.spc      1 <1>        0.000
     26 H          -3.5627    2.2934   -2.5780 H.spc      1 <1>        0.000
     27 H          -4.8737    0.8354   -1.0432 H.spc      1 <1>        0.000
     28 H          -3.6958   -0.6751    0.5477 H.spc      1 <1>        0.000
@<TRIPOS>BOND
     1    1    2 1  
     2    2    3 ar 
     3    3    4 ar 
     4    4    5 ar 
     5    5    6 ar 
     6    6    7 ar 
     7    7    2 ar 
     8    3    8 1  
     9    8    9 1  
    10    9   10 1  
    11   10   11 ar 
    12   11    1 1  
    13   11   12 ar 
    14   12   13 ar 
    15   13   14 ar 
    16   14   15 ar 
    17   15   10 ar 
    18    9   16 1  
    19    1   17 1  
    20    4   18 1  
    21    5   19 1  
    22    6   20 1  
    23    7   21 1  
    24    8   22 1  
    25    8   23 1  
    26    9   24 1  
    27   12   25 1  
    28   13   26 1  
    29   14   27 1  
    30   15   28 1  
