# Name:          seed_class_4_317_26/38664
# Creation time: Fri May 21 00:57:17 2010


@<TRIPOS>MOLECULE
seed_class_4_317_26/38664
   27    28     1     1     1
SMALL
USER_CHARGES


@<TRIPOS>ATOM
      1 H           3.3303   -0.5757    1.2197 H.spc      1 <1>        0.000
      2 C           3.2346    0.6467    2.1316 C.3        1 <1>        0.000
      3 O           2.0821    1.4208    1.7887 O.3        1 <1>        0.000
      4 C           1.8954    2.5107    2.6954 C.3        1 <1>        0.000
      5 O           0.7116    3.2107    2.3035 O.3        1 <1>        0.000
      6 C          -0.4202    2.3376    2.2631 C.3        1 <1>        0.000
      7 C          -0.7327    1.7417    3.6483 C.3        1 <1>        0.000
      8 C           0.5147    1.0522    4.2318 C.3        1 <1>        0.000
      9 C           1.7753    1.9292    4.1163 C.3        1 <1>        0.000
     10 H          -1.8790    0.7405    3.5389 H.spc      1 <1>        0.000
     11 H          -1.6397    3.0902    1.7330 H.spc      1 <1>        0.000
     12 C           3.0897    3.4819    2.6508 C.3        1 <1>        0.000
     13 C           4.4201    2.7463    2.8969 C.3        1 <1>        0.000
     14 C           4.5325    1.4706    2.0418 C.3        1 <1>        0.000
     15 H           5.7171    0.6308    2.5110 H.spc      1 <1>        0.000
     16 H           2.9039    4.5836    3.6902 H.spc      1 <1>        0.000
     17 H           3.1194    0.3269    3.1672 H.spc      1 <1>        0.000
     18 H          -0.1786    1.5121    1.5936 H.spc      1 <1>        0.000
     19 H          -1.0279    2.5506    4.3166 H.spc      1 <1>        0.000
     20 H           0.6883    0.1349    3.6692 H.spc      1 <1>        0.000
     21 H           0.3317    0.8608    5.2891 H.spc      1 <1>        0.000
     22 H           2.6535    1.3184    4.3256 H.spc      1 <1>        0.000
     23 H           1.7044    2.7492    4.8309 H.spc      1 <1>        0.000
     24 H           3.1279    3.9241    1.6552 H.spc      1 <1>        0.000
     25 H           4.4650    2.4603    3.9478 H.spc      1 <1>        0.000
     26 H           5.2373    3.4146    2.6255 H.spc      1 <1>        0.000
     27 H           4.6899    1.7604    1.0029 H.spc      1 <1>        0.000
@<TRIPOS>BOND
     1    1    2 1  
     2    2    3 1  
     3    3    4 1  
     4    4    5 1  
     5    5    6 1  
     6    6    7 1  
     7    7    8 1  
     8    8    9 1  
     9    9    4 1  
    10    7   10 1  
    11    6   11 1  
    12    4   12 1  
    13   12   13 1  
    14   13   14 1  
    15   14    2 1  
    16   14   15 1  
    17   12   16 1  
    18    2   17 1  
    19    6   18 1  
    20    7   19 1  
    21    8   20 1  
    22    8   21 1  
    23    9   22 1  
    24    9   23 1  
    25   12   24 1  
    26   13   25 1  
    27   13   26 1  
    28   14   27 1  
