# Name:          seed_class_5_503_28/34898
# Creation time: Fri May 21 00:57:19 2010


@<TRIPOS>MOLECULE
seed_class_5_503_28/34898
   15    15     1     1     1
SMALL
USER_CHARGES


@<TRIPOS>ATOM
      1 H           1.3664   -0.0389    0.8635 H.spc      1 <1>        0.000
      2 C          -0.0870   -0.0818    1.2709 C.2        1 <1>        0.000
      3 O          -0.4652    0.5344    2.2659 O.2        1 <1>        0.000
      4 C          -1.0563   -0.8654    0.4728 C.ar       1 <1>        0.000
      5 C          -2.4208   -0.8144    0.7819 C.ar       1 <1>        0.000
      6 C          -3.3377   -1.5555    0.0270 C.ar       1 <1>        0.000
      7 C          -2.8902   -2.3477   -1.0370 C.ar       1 <1>        0.000
      8 C          -1.5257   -2.3987   -1.3461 C.ar       1 <1>        0.000
      9 C          -0.6088   -1.6575   -0.5912 C.ar       1 <1>        0.000
     10 H          -1.0430   -3.2531   -2.4938 H.spc      1 <1>        0.000
     11 H          -4.8094   -1.5005    0.3605 H.spc      1 <1>        0.000
     12 O          -2.8587   -0.0392    1.8232 O.3        1 <1>        0.000
     13 H          -3.6041   -2.9248   -1.6247 H.spc      1 <1>        0.000
     14 H           0.4535   -1.6972   -0.8319 H.spc      1 <1>        0.000
     15 H          -3.8126   -0.1164    1.8991 H.spc      1 <1>        0.000
@<TRIPOS>BOND
     1    1    2 1  
     2    2    3 2  
     3    2    4 1  
     4    4    5 ar 
     5    5    6 ar 
     6    6    7 ar 
     7    7    8 ar 
     8    8    9 ar 
     9    9    4 ar 
    10    8   10 1  
    11    6   11 1  
    12    5   12 1  
    13    7   13 1  
    14    9   14 1  
    15   12   15 1  
