#	Name:			1,3-dioxane
#	Creating user name:	zmliu
#	Creation time:		Thu Mar 11 17:08:38 2004

#	Modifying user name:	zmliu
#	Modification time:	Thu Mar 11 17:08:42 2004

@<TRIPOS>MOLECULE
1,3-dioxane
   14    14     1     1     1
SMALL
GAST_HUCK


@<TRIPOS>ATOM
      1 O1          0.9015    1.1875   -0.5116 O.3       1 DIOXANE    -0.3267 
      2 C1          1.6267    0.0000   -0.1425 C.3       1 DIOXANE     0.2940 
      3 O2          0.9015   -1.1875   -0.5116 O.3       1 DIOXANE    -0.3267 
      4 C2         -0.3849   -1.2561    0.1278 C.3       1 DIOXANE     0.1476 
      5 C3         -1.2058    0.0000   -0.2490 C.3       1 DIOXANE     0.0643 
      6 C4         -0.3848    1.2560    0.1278 C.3       1 DIOXANE     0.1476 
      7 H1          1.8661    0.0000    0.9333 H.spc     1 DIOXANE    -1.0000 
      8 H2          2.5735    0.0000   -0.7019 H.spc     1 DIOXANE    -1.0000 
      9 H3         -0.2660   -1.3287    1.2214 H.spc     1 DIOXANE    -1.0000 
     10 H4         -0.8991   -2.1644   -0.2235 H.spc     1 DIOXANE    -1.0000 
     11 H5         -2.1791    0.0000    0.2690 H.spc     1 DIOXANE    -1.0000 
     12 H6         -1.3845    0.0000   -1.3371 H.spc     1 DIOXANE    -1.0000 
     13 H7         -0.8991    2.1644   -0.2235 H.spc     1 DIOXANE    -1.0000 
     14 H8         -0.2660    1.3287    1.2214 H.spc     1 DIOXANE    -1.0000 
@<TRIPOS>BOND
     1    1    2 1    
     2    1    6 1    
     3    2    3 1    
     4    3    4 1    
     5    4    5 1    
     6    5    6 1    
     7    2    7 1    
     8    2    8 1    
     9    4    9 1    
    10    4   10 1    
    11    5   11 1    
    12    5   12 1    
    13    6   13 1    
    14    6   14 1    
@<TRIPOS>SUBSTRUCTURE
     1 DIOXANE     1 PERM              0 ****  ****    0 ROOT 
@<TRIPOS>SET
LAB$A_TYPE      STATIC     ATOMS    LABELGROUP SYSTEM 
14 1 2 3 4 5 6 7 8 9 10 11 12 13 14
@<TRIPOS>NORMAL
@<TRIPOS>FF_PBC
FORCE_FIELD_SETUP_FEATURE Force Field Setup information
v1.0  0 0.000000 0.000000 0.000000 0.000000 0.000000 0.000000 NONE 2 0 0 0 0 0 0 0 0 0 0 0 0
