# Name:          seed_class_5_402_120/34898
# Creation time: Fri May 21 00:57:18 2010


@<TRIPOS>MOLECULE
seed_class_5_402_120/34898
   14    14     1     1     1
SMALL
USER_CHARGES


@<TRIPOS>ATOM
      1 F           8.5423   -3.5439   -1.8421 F          1 <1>        0.000
      2 C           7.2109   -3.3528   -1.7265 C.ar       1 <1>        0.000
      3 C           6.3280   -4.0589   -2.5523 C.ar       1 <1>        0.000
      4 C           4.9473   -3.8607   -2.4324 C.ar       1 <1>        0.000
      5 C           4.4495   -2.9564   -1.4867 C.ar       1 <1>        0.000
      6 C           5.3324   -2.2503   -0.6609 C.ar       1 <1>        0.000
      7 C           6.7131   -2.4485   -0.7808 C.ar       1 <1>        0.000
      8 C           2.9899   -2.7469   -1.3599 C.2        1 <1>        0.000
      9 O           2.2131   -3.3855   -2.0682 O.2        1 <1>        0.000
     10 H           2.4543   -1.7491   -0.3611 H.spc      1 <1>        0.000
     11 H           6.7156   -4.7630   -3.2886 H.spc      1 <1>        0.000
     12 H           4.2599   -4.4105   -3.0753 H.spc      1 <1>        0.000
     13 H           4.9448   -1.5462    0.0754 H.spc      1 <1>        0.000
     14 H           7.4005   -1.8987   -0.1379 H.spc      1 <1>        0.000
@<TRIPOS>BOND
     1    1    2 1  
     2    2    3 ar 
     3    3    4 ar 
     4    4    5 ar 
     5    5    6 ar 
     6    6    7 ar 
     7    7    2 ar 
     8    5    8 1  
     9    8    9 2  
    10    8   10 1  
    11    3   11 1  
    12    4   12 1  
    13    6   13 1  
    14    7   14 1  
