# Name:          seed_class_2_59_54/95646
# Creation time: Fri May 21 00:57:14 2010


@<TRIPOS>MOLECULE
seed_class_2_59_54/95646
   14    15     1     1     1
SMALL
USER_CHARGES


@<TRIPOS>ATOM
      1 H           2.8797    3.5380    2.3079 H.spc      1 <1>        0.000
      2 C           1.7210    2.0438    1.4411 C.ar       1 <1>        0.000
      3 C           0.4005    1.8761    1.5957 C.ar       1 <1>        0.000
      4 N          -0.0293    0.7991    0.8851 N.pl3      1 <1>        0.000
      5 C           1.0733    0.2153    0.2174 C.ar       1 <1>        0.000
      6 N           1.1987   -0.8421   -0.5962 N.ar       1 <1>        0.000
      7 C           2.3886   -1.1886   -1.1059 C.ar       1 <1>        0.000
      8 N           3.4893   -0.4826   -0.8134 N.ar       1 <1>        0.000
      9 C           3.4338    0.5857   -0.0065 C.ar       1 <1>        0.000
     10 C           2.2051    0.9729    0.5416 C.ar       1 <1>        0.000
     11 H           4.8781    1.4853    0.3573 H.spc      1 <1>        0.000
     12 H          -1.4170    0.3184    0.8210 H.spc      1 <1>        0.000
     13 H          -0.2395    2.5136    2.2056 H.spc      1 <1>        0.000
     14 H           2.4619   -2.0535   -1.7651 H.spc      1 <1>        0.000
@<TRIPOS>BOND
     1    1    2 1  
     2    2    3 ar 
     3    3    4 ar 
     4    4    5 ar 
     5    5    6 ar 
     6    6    7 ar 
     7    7    8 ar 
     8    8    9 ar 
     9    9   10 ar 
    10   10    2 ar 
    11   10    5 ar 
    12    9   11 1  
    13    4   12 1  
    14    3   13 1  
    15    7   14 1  
