# Name:          seed_class_4_322_26/38664
# Creation time: Fri May 21 00:57:17 2010


@<TRIPOS>MOLECULE
seed_class_4_322_26/38664
   11    11     1     1     1
SMALL
USER_CHARGES


@<TRIPOS>ATOM
      1 H          -1.7229    0.8099    0.0639 H.spc      1 <1>        0.000
      2 N          -2.9248    0.3061   -0.4873 N.pl3      1 <1>        0.000
      3 C          -4.3457    0.6239   -0.2847 C.3        1 <1>        0.000
      4 C          -4.6864   -0.2409   -1.5126 C.3        1 <1>        0.000
      5 C          -3.2278   -0.7342   -1.4807 C.3        1 <1>        0.000
      6 H          -5.6983   -1.2809   -1.2775 H.spc      1 <1>        0.000
      7 H          -4.6793    1.6599   -0.2263 H.spc      1 <1>        0.000
      8 H          -4.8245    0.4356    0.6762 H.spc      1 <1>        0.000
      9 H          -5.1279    0.1880   -2.4122 H.spc      1 <1>        0.000
     10 H          -2.6474   -0.8087   -2.4003 H.spc      1 <1>        0.000
     11 H          -3.0006   -1.7802   -1.2751 H.spc      1 <1>        0.000
@<TRIPOS>BOND
     1    1    2 1  
     2    2    3 1  
     3    3    4 1  
     4    4    5 1  
     5    5    2 1  
     6    4    6 1  
     7    3    7 1  
     8    3    8 1  
     9    4    9 1  
    10    5   10 1  
    11    5   11 1  
