# Name:          seed_class_4_345_23/38664
# Creation time: Fri May 21 00:57:17 2010


@<TRIPOS>MOLECULE
seed_class_4_345_23/38664
   23    24     1     1     1
SMALL
USER_CHARGES


@<TRIPOS>ATOM
      1 N           3.2355    3.0197    2.6015 N.am       1 <1>        0.000
      2 C           3.9472    2.3800    3.6439 C.ar       1 <1>        0.000
      3 C           3.9714    1.0129    3.9448 C.ar       1 <1>        0.000
      4 C           4.7359    0.5465    5.0209 C.ar       1 <1>        0.000
      5 C           5.4761    1.4471    5.7961 C.ar       1 <1>        0.000
      6 C           5.4519    2.8142    5.4952 C.ar       1 <1>        0.000
      7 C           4.6874    3.2806    4.4191 C.ar       1 <1>        0.000
      8 C           3.2262   -0.0545    3.1797 C.3        1 <1>        0.000
      9 C           1.9245    0.1901    2.3939 C.3        1 <1>        0.000
     10 C           1.1857    1.5390    2.4719 C.3        1 <1>        0.000
     11 C           2.0596    2.7022    2.0674 C.2        1 <1>        0.000
     12 O           1.6457    3.4224    1.1603 O.2        1 <1>        0.000
     13 H          -0.0164    1.4998    1.6266 H.spc      1 <1>        0.000
     14 H           3.8892    4.2044    2.0270 H.spc      1 <1>        0.000
     15 H           4.7548   -0.5179    5.2552 H.spc      1 <1>        0.000
     16 H           6.0713    1.0839    6.6339 H.spc      1 <1>        0.000
     17 H           6.0282    3.5154    6.0987 H.spc      1 <1>        0.000
     18 H           4.6685    4.3450    4.1848 H.spc      1 <1>        0.000
     19 H           2.9033   -0.7322    3.9700 H.spc      1 <1>        0.000
     20 H           3.9325   -0.3205    2.3932 H.spc      1 <1>        0.000
     21 H           1.2198   -0.5203    2.8262 H.spc      1 <1>        0.000
     22 H           2.2308    0.1188    1.3503 H.spc      1 <1>        0.000
     23 H           0.9050    1.6933    3.5138 H.spc      1 <1>        0.000
@<TRIPOS>BOND
     1    1    2 1  
     2    2    3 ar 
     3    3    4 ar 
     4    4    5 ar 
     5    5    6 ar 
     6    6    7 ar 
     7    7    2 ar 
     8    3    8 1  
     9    8    9 1  
    10    9   10 1  
    11   10   11 1  
    12   11    1 am 
    13   11   12 2  
    14   10   13 1  
    15    1   14 1  
    16    4   15 1  
    17    5   16 1  
    18    6   17 1  
    19    7   18 1  
    20    8   19 1  
    21    8   20 1  
    22    9   21 1  
    23    9   22 1  
    24   10   23 1  
