# Name:          seed_class_4_348_22/38664
# Creation time: Fri May 21 00:57:17 2010


@<TRIPOS>MOLECULE
seed_class_4_348_22/38664
   43    46     1     1     1
SMALL
USER_CHARGES


@<TRIPOS>ATOM
      1 H           6.2220   -2.6375   -2.2587 H.spc      1 <1>        0.000
      2 C           5.0962   -1.7557   -2.2523 C.3        1 <1>        0.000
      3 C           3.8857   -2.4767   -2.8740 C.3        1 <1>        0.000
      4 C           2.6129   -1.6137   -2.7915 C.3        1 <1>        0.000
      5 C           2.3239   -1.1733   -1.3444 C.3        1 <1>        0.000
      6 C           3.5344   -0.4523   -0.7227 C.3        1 <1>        0.000
      7 C           3.3009    0.2258    0.6401 C.3        1 <1>        0.000
      8 C           1.8679    0.0780    1.1846 C.3        1 <1>        0.000
      9 C           0.8528    0.2056    0.0858 C.2        1 <1>        0.000
     10 C           1.0649   -0.3754   -1.1030 C.2        1 <1>        0.000
     11 C           0.0890   -0.2763   -2.2510 C.3        1 <1>        0.000
     12 C          -0.9639    0.8315   -2.0623 C.3        1 <1>        0.000
     13 C          -1.5183    0.8076   -0.6257 C.3        1 <1>        0.000
     14 C          -0.3832    1.0165    0.3938 C.3        1 <1>        0.000
     15 C          -1.1040    1.1203    1.7507 C.3        1 <1>        0.000
     16 C          -2.5663    1.5027    1.4558 C.3        1 <1>        0.000
     17 C          -2.7022    1.6230   -0.0735 C.3        1 <1>        0.000
     18 H          -4.0427    1.0808   -0.5675 H.spc      1 <1>        0.000
     19 H           0.2080    2.3967    0.2336 H.spc      1 <1>        0.000
     20 H          -2.0305   -0.6279   -0.5505 H.spc      1 <1>        0.000
     21 C           4.8072   -1.3153   -0.8052 C.3        1 <1>        0.000
     22 H           5.9984   -0.5403   -0.2493 H.spc      1 <1>        0.000
     23 H           4.6643   -2.5407    0.0930 H.spc      1 <1>        0.000
     24 H           2.0712   -2.4913   -0.6180 H.spc      1 <1>        0.000
     25 H           5.3041   -0.8649   -2.8450 H.spc      1 <1>        0.000
     26 H           3.7131   -3.4009   -2.3225 H.spc      1 <1>        0.000
     27 H           4.1024   -2.6736   -3.9239 H.spc      1 <1>        0.000
     28 H           1.7700   -2.2060   -3.1475 H.spc      1 <1>        0.000
     29 H           2.7595   -0.7223   -3.4014 H.spc      1 <1>        0.000
     30 H           3.6991    0.4192   -1.3563 H.spc      1 <1>        0.000
     31 H           3.4836    1.2916    0.5034 H.spc      1 <1>        0.000
     32 H           3.9672   -0.2555    1.3560 H.spc      1 <1>        0.000
     33 H           1.6905    0.8673    1.9151 H.spc      1 <1>        0.000
     34 H           1.7681   -0.9085    1.6372 H.spc      1 <1>        0.000
     35 H          -0.4409   -1.2266   -2.3156 H.spc      1 <1>        0.000
     36 H           0.6597   -0.0386   -3.1487 H.spc      1 <1>        0.000
     37 H          -1.7833    0.6648   -2.7615 H.spc      1 <1>        0.000
     38 H          -0.4974    1.7993   -2.2463 H.spc      1 <1>        0.000
     39 H          -0.6293    1.8705    2.3831 H.spc      1 <1>        0.000
     40 H          -1.0539    0.1729    2.2874 H.spc      1 <1>        0.000
     41 H          -2.8233    2.4445    1.9406 H.spc      1 <1>        0.000
     42 H          -3.2481    0.7464    1.8447 H.spc      1 <1>        0.000
     43 H          -2.6804    2.6599   -0.4087 H.spc      1 <1>        0.000
@<TRIPOS>BOND
     1    1    2 1  
     2    2    3 1  
     3    3    4 1  
     4    4    5 1  
     5    5    6 1  
     6    6    7 1  
     7    7    8 1  
     8    8    9 1  
     9    9   10 2  
    10   10    5 1  
    11   10   11 1  
    12   11   12 1  
    13   12   13 1  
    14   13   14 1  
    15   14    9 1  
    16   14   15 1  
    17   15   16 1  
    18   16   17 1  
    19   17   13 1  
    20   17   18 1  
    21   14   19 1  
    22   13   20 1  
    23    6   21 1  
    24   21    2 1  
    25   21   22 1  
    26   21   23 1  
    27    5   24 1  
    28    2   25 1  
    29    3   26 1  
    30    3   27 1  
    31    4   28 1  
    32    4   29 1  
    33    6   30 1  
    34    7   31 1  
    35    7   32 1  
    36    8   33 1  
    37    8   34 1  
    38   11   35 1  
    39   11   36 1  
    40   12   37 1  
    41   12   38 1  
    42   15   39 1  
    43   15   40 1  
    44   16   41 1  
    45   16   42 1  
    46   17   43 1  
