#	Name:			imidazole
#	Creating user name:	becker
#	Creation time:		Thu Dec 19 02:54:43 2002

#	Modifying user name:	zmliu
#	Modification time:	Thu Mar 11 20:50:20 2004

@<TRIPOS>MOLECULE
imidazole
    9     9     1     1     0
SMALL
GAST_HUCK


@<TRIPOS>ATOM
      1 N1          0.6504    0.6559   -0.0001 N.pl3     1 IMIDAZOLE   -0.0907 
      2 C1          1.0869   -0.5639    0.0000 C.2       1 IMIDAZOLE    0.2286 
      3 N2          0.1097   -1.3503    0.0001 N.2       1 IMIDAZOLE   -0.3101 
      4 C2         -1.1214   -0.6065    0.0000 C.2       1 IMIDAZOLE    0.0255 
      5 C3         -0.6637    0.6615    0.0000 C.2       1 IMIDAZOLE    0.1466 
      6 H1          1.2460    1.4981   -0.0003 H.spc     1 IMIDAZOLE   -1.0000 
      7 H2          2.1325   -0.8714    0.0001 H.spc     1 IMIDAZOLE   -1.0000 
      8 H3         -2.1466   -0.9744   -0.0003 H.spc     1 IMIDAZOLE   -1.0000 
      9 H4         -1.2938    1.5510    0.0003 H.spc     1 IMIDAZOLE   -1.0000 
@<TRIPOS>BOND
     1    1    2 1    
     2    1    5 1    
     3    2    3 2    
     4    3    4 1    
     5    4    5 2    
     6    1    6 1    
     7    2    7 1    
     8    4    8 1    
     9    5    9 1    
@<TRIPOS>SUBSTRUCTURE
     1 IMIDAZOLE     1 PERM              0 ****  ****    0 ROOT 
@<TRIPOS>NORMAL
@<TRIPOS>FF_PBC
FORCE_FIELD_SETUP_FEATURE Force Field Setup information
v1.0  0 0.000000 0.000000 0.000000 0.000000 0.000000 0.000000 NONE 2 0 0 0 0 0 0 0 0 0 0 0 0
