# Name:          seed_class_3_130_31/26467
# Creation time: Fri May 21 00:57:15 2010


@<TRIPOS>MOLECULE
seed_class_3_130_31/26467
    6     5     1     1     1
SMALL
USER_CHARGES


@<TRIPOS>ATOM
      1 H          -1.5420   -0.9529   -2.9919 H.spc      1 <1>        0.000
      2 N          -2.9313   -1.0835   -3.2261 N.pl3      1 <1>        0.000
      3 N          -3.2320   -0.6860   -4.5920 N.3        1 <1>        0.000
      4 H          -4.6807   -0.7814   -4.8225 H.spc      1 <1>        0.000
      5 H          -3.6159   -1.4065   -2.5425 H.spc      1 <1>        0.000
      6 H          -2.7431   -1.3026   -5.2410 H.spc      1 <1>        0.000
@<TRIPOS>BOND
     1    1    2 1  
     2    2    3 1  
     3    3    4 1  
     4    2    5 1  
     5    3    6 1  
