#	Name:			tetrahydrothiopyran
#	Creating user name:	becker
#	Creation time:		Thu Dec 19 02:55:05 2002

#	Modifying user name:	zmliu
#	Modification time:	Thu Mar 11 21:37:37 2004

@<TRIPOS>MOLECULE
tetrahydrothiopyran
   16    16     1     1     0
SMALL
GAST_HUCK


@<TRIPOS>ATOM
      1 S1          0.0000    1.8533   -0.7426 S.3       1 TETRAHYDROTHIOPYRAN   -0.1403 
      2 C1          1.3845    0.9836    0.0534 C.3       1 TETRAHYDROTHIOPYRAN    0.0576 
      3 C2          1.2882   -0.5316   -0.2548 C.3       1 TETRAHYDROTHIOPYRAN    0.0117 
      4 C3          0.0000   -1.1597    0.3410 C.3       1 TETRAHYDROTHIOPYRAN    0.0018 
      5 C4         -1.2882   -0.5316   -0.2548 C.3       1 TETRAHYDROTHIOPYRAN    0.0117 
      6 C5         -1.3846    0.9836    0.0534 C.3       1 TETRAHYDROTHIOPYRAN    0.0576 
      7 H1          1.3558    1.1667    1.1388 H.spc     1 TETRAHYDROTHIOPYRAN   -1.0000 
      8 H2          2.3232    1.3961   -0.3492 H.spc     1 TETRAHYDROTHIOPYRAN   -1.0000 
      9 H3          2.1676   -1.0380    0.1779 H.spc     1 TETRAHYDROTHIOPYRAN   -1.0000 
     10 H4          1.3083   -0.6864   -1.3462 H.spc     1 TETRAHYDROTHIOPYRAN   -1.0000 
     11 H5          0.0000   -1.0328    1.4361 H.spc     1 TETRAHYDROTHIOPYRAN   -1.0000 
     12 H6          0.0000   -2.2420    0.1259 H.spc     1 TETRAHYDROTHIOPYRAN   -1.0000 
     13 H7         -2.1675   -1.0379    0.1777 H.spc     1 TETRAHYDROTHIOPYRAN   -1.0000 
     14 H8         -1.3083   -0.6863   -1.3462 H.spc     1 TETRAHYDROTHIOPYRAN   -1.0000 
     15 H9         -2.3231    1.3962   -0.3491 H.spc     1 TETRAHYDROTHIOPYRAN   -1.0000 
     16 H10        -1.3557    1.1667    1.1388 H.spc     1 TETRAHYDROTHIOPYRAN   -1.0000 
@<TRIPOS>BOND
     1    1    2 1    
     2    1    6 1    
     3    2    3 1    
     4    3    4 1    
     5    4    5 1    
     6    5    6 1    
     7    2    7 1    
     8    2    8 1    
     9    3    9 1    
    10    3   10 1    
    11    4   11 1    
    12    4   12 1    
    13    5   13 1    
    14    5   14 1    
    15    6   15 1    
    16    6   16 1    
@<TRIPOS>SUBSTRUCTURE
     1 TETRAHYDROTHIOPYRAN     1 PERM              0 ****  ****    0 ROOT 
@<TRIPOS>NORMAL
@<TRIPOS>FF_PBC
FORCE_FIELD_SETUP_FEATURE Force Field Setup information
v1.0  0 0.000000 0.000000 0.000000 0.000000 0.000000 0.000000 NONE 2 0 0 0 0 0 0 0 0 0 0 0 0
