# Name:          seed_class_4_210_92/38664
# Creation time: Fri May 21 00:57:16 2010


@<TRIPOS>MOLECULE
seed_class_4_210_92/38664
   17    17     1     1     1
SMALL
USER_CHARGES


@<TRIPOS>ATOM
      1 H           0.1493   -0.6902   -0.5055 H.spc      1 <1>        0.000
      2 N          -1.1620   -1.1171   -0.8227 N.pl3      1 <1>        0.000
      3 C          -2.0976   -1.6265    0.1902 C.3        1 <1>        0.000
      4 C          -3.4583   -0.9055    0.1733 C.3        1 <1>        0.000
      5 C          -4.0520   -0.9045   -1.2472 C.3        1 <1>        0.000
      6 C          -3.0476   -0.3512   -2.2750 C.3        1 <1>        0.000
      7 C          -1.6972   -1.0866   -2.1915 C.3        1 <1>        0.000
      8 H          -5.2322   -0.0971   -1.2623 H.spc      1 <1>        0.000
      9 H          -1.6477   -1.4615    1.1692 H.spc      1 <1>        0.000
     10 H          -2.2782   -2.6795   -0.0258 H.spc      1 <1>        0.000
     11 H          -3.3164    0.1253    0.4980 H.spc      1 <1>        0.000
     12 H          -4.1430   -1.4267    0.8424 H.spc      1 <1>        0.000
     13 H          -4.2888   -1.9330   -1.5197 H.spc      1 <1>        0.000
     14 H          -2.8808    0.7048   -2.0627 H.spc      1 <1>        0.000
     15 H          -3.4593   -0.4950   -3.2739 H.spc      1 <1>        0.000
     16 H          -0.9836   -0.5558   -2.8218 H.spc      1 <1>        0.000
     17 H          -1.8517   -2.1153   -2.5171 H.spc      1 <1>        0.000
@<TRIPOS>BOND
     1    1    2 1  
     2    2    3 1  
     3    3    4 1  
     4    4    5 1  
     5    5    6 1  
     6    6    7 1  
     7    7    2 1  
     8    5    8 1  
     9    3    9 1  
    10    3   10 1  
    11    4   11 1  
    12    4   12 1  
    13    5   13 1  
    14    6   14 1  
    15    6   15 1  
    16    7   16 1  
    17    7   17 1  
