# Name:          seed_class_2_77_22/95646
# Creation time: Fri May 21 00:57:14 2010


@<TRIPOS>MOLECULE
seed_class_2_77_22/95646
   15    16     1     1     1
SMALL
USER_CHARGES


@<TRIPOS>ATOM
      1 H           5.9972    1.4275   -2.2178 H.spc      1 <1>        0.000
      2 C           4.6955    2.1085   -1.3233 C.ar       1 <1>        0.000
      3 C           3.4243    1.8506   -1.6594 C.ar       1 <1>        0.000
      4 N           2.3762    2.3756   -0.9698 N.pl3      1 <1>        0.000
      5 C           2.5559    3.1934    0.1019 C.ar       1 <1>        0.000
      6 N           1.3737    3.5487    0.5694 N.ar       1 <1>        0.000
      7 C           0.3986    2.9387   -0.2288 C.ar       1 <1>        0.000
      8 C           1.0388    2.2251   -1.1650 C.ar       1 <1>        0.000
      9 H           0.3885    1.3980   -2.2481 H.spc      1 <1>        0.000
     10 H          -1.0677    3.0595   -0.0682 H.spc      1 <1>        0.000
     11 C           3.9353    3.5198    0.5276 C.ar       1 <1>        0.000
     12 C           4.9542    2.9926   -0.1649 C.ar       1 <1>        0.000
     13 H           3.2242    1.2005   -2.5111 H.spc      1 <1>        0.000
     14 H           4.1176    4.1718    1.3819 H.spc      1 <1>        0.000
     15 H           5.9803    3.2164    0.1269 H.spc      1 <1>        0.000
@<TRIPOS>BOND
     1    1    2 1  
     2    2    3 ar 
     3    3    4 ar 
     4    4    5 ar 
     5    5    6 ar 
     6    6    7 ar 
     7    7    8 ar 
     8    8    4 ar 
     9    8    9 1  
    10    7   10 1  
    11    5   11 ar 
    12   11   12 ar 
    13   12    2 ar 
    14    3   13 1  
    15   11   14 1  
    16   12   15 1  
