# Name:          seed_class_5_442_46/34898
# Creation time: Fri May 21 00:57:19 2010


@<TRIPOS>MOLECULE
seed_class_5_442_46/34898
   20    20     1     1     1
SMALL
USER_CHARGES


@<TRIPOS>ATOM
      1 H          -0.2733    1.4996   -2.3960 H.spc      1 <1>        0.000
      2 O          -1.5203    0.8389   -2.6269 O.3        1 <1>        0.000
      3 C          -2.6342    1.3826   -2.0920 C.2        1 <1>        0.000
      4 O          -2.7074    2.5899   -1.9320 O.2        1 <1>        0.000
      5 C          -3.7666    0.5141   -1.6997 C.2        1 <1>        0.000
      6 C          -4.8825    1.0562   -1.1931 C.2        1 <1>        0.000
      7 C          -6.0149    0.1877   -0.8009 C.ar       1 <1>        0.000
      8 C          -5.7741   -1.0114   -0.1194 C.ar       1 <1>        0.000
      9 C          -6.8453   -1.8329    0.2517 C.ar       1 <1>        0.000
     10 C          -8.1573   -1.4554   -0.0587 C.ar       1 <1>        0.000
     11 C          -8.3980   -0.2564   -0.7402 C.ar       1 <1>        0.000
     12 C          -7.3269    0.5651   -1.1113 C.ar       1 <1>        0.000
     13 O          -9.2055   -2.2594    0.3044 O.3        1 <1>        0.000
     14 H          -8.9178   -3.4338    1.0679 H.spc      1 <1>        0.000
     15 H          -3.6929   -0.5664   -1.8228 H.spc      1 <1>        0.000
     16 H          -4.9562    2.1367   -1.0699 H.spc      1 <1>        0.000
     17 H          -4.7527   -1.3053    0.1222 H.spc      1 <1>        0.000
     18 H          -6.6579   -2.7664    0.7823 H.spc      1 <1>        0.000
     19 H          -9.4194    0.0375   -0.9819 H.spc      1 <1>        0.000
     20 H          -7.5144    1.4986   -1.6419 H.spc      1 <1>        0.000
@<TRIPOS>BOND
     1    1    2 1  
     2    2    3 1  
     3    3    4 2  
     4    3    5 1  
     5    5    6 2  
     6    6    7 1  
     7    7    8 ar 
     8    8    9 ar 
     9    9   10 ar 
    10   10   11 ar 
    11   11   12 ar 
    12   12    7 ar 
    13   10   13 1  
    14   13   14 1  
    15    5   15 1  
    16    6   16 1  
    17    8   17 1  
    18    9   18 1  
    19   11   19 1  
    20   12   20 1  
