# Name:          seed_class_3_124_34/26467
# Creation time: Fri May 21 00:57:15 2010


@<TRIPOS>MOLECULE
seed_class_3_124_34/26467
   11    10     1     1     1
SMALL
USER_CHARGES


@<TRIPOS>ATOM
      1 N          -3.2193    2.4397   -3.4051 N.am       1 <1>        0.000
      2 C          -2.4052    1.3904   -3.4759 C.2        1 <1>        0.000
      3 O          -2.5131    0.5897   -4.4033 O.2        1 <1>        0.000
      4 C          -1.3694    1.1861   -2.4386 C.2        1 <1>        0.000
      5 C          -0.5239    0.1506   -2.5309 C.2        1 <1>        0.000
      6 H           0.5119   -0.0536   -1.4937 H.spc      1 <1>        0.000
      7 C          -1.2695    2.1065   -1.3227 C.1        1 <1>        0.000
      8 N          -1.1895    2.8428   -0.4299 N.1        1 <1>        0.000
      9 H          -3.9332    2.5805   -4.1199 H.spc      1 <1>        0.000
     10 H          -3.1298    3.1037   -2.6360 H.spc      1 <1>        0.000
     11 H          -0.5990   -0.5413   -3.3698 H.spc      1 <1>        0.000
@<TRIPOS>BOND
     1    1    2 am 
     2    2    3 2  
     3    2    4 1  
     4    4    5 2  
     5    5    6 1  
     6    4    7 1  
     7    7    8 3  
     8    1    9 1  
     9    1   10 1  
    10    5   11 1  
