# Name:          seed_class_2_74_25/95646
# Creation time: Fri May 21 00:57:14 2010


@<TRIPOS>MOLECULE
seed_class_2_74_25/95646
   14    15     1     1     1
SMALL
USER_CHARGES


@<TRIPOS>ATOM
      1 H          -0.0135   -0.4103    0.4214 H.spc      1 <1>        0.000
      2 C           1.3471   -0.3006    0.3048 C.ar       1 <1>        0.000
      3 N           2.1422   -1.0840    1.0462 N.ar       1 <1>        0.000
      4 C           3.4786   -1.0182    0.9719 C.ar       1 <1>        0.000
      5 C           4.0871   -0.1090    0.0983 C.ar       1 <1>        0.000
      6 C           3.2868    0.7257   -0.6921 C.ar       1 <1>        0.000
      7 N           3.5400    1.7313   -1.6548 N.pl3      1 <1>        0.000
      8 C           2.3392    2.1982   -2.0904 C.ar       1 <1>        0.000
      9 N           1.3556    1.5658   -1.4780 N.ar       1 <1>        0.000
     10 C           1.8940    0.6290   -0.5878 C.ar       1 <1>        0.000
     11 H           4.8629    2.1891   -2.1034 H.spc      1 <1>        0.000
     12 H           4.0918   -1.6725    1.5916 H.spc      1 <1>        0.000
     13 H           5.1737   -0.0512    0.0338 H.spc      1 <1>        0.000
     14 H           2.2080    2.9813   -2.8372 H.spc      1 <1>        0.000
@<TRIPOS>BOND
     1    1    2 1  
     2    2    3 ar 
     3    3    4 ar 
     4    4    5 ar 
     5    5    6 ar 
     6    6    7 ar 
     7    7    8 ar 
     8    8    9 ar 
     9    9   10 ar 
    10   10    2 ar 
    11   10    6 ar 
    12    7   11 1  
    13    4   12 1  
    14    5   13 1  
    15    8   14 1  
