# Name:          seed_class_5_444_45/34898
# Creation time: Fri May 21 00:57:19 2010


@<TRIPOS>MOLECULE
seed_class_5_444_45/34898
   40    43     1     1     1
SMALL
USER_CHARGES


@<TRIPOS>ATOM
      1 H          -0.2092   -0.4584    1.7201 H.spc      1 <1>        0.000
      2 C          -0.1549    0.6953    2.5634 C.3        1 <1>        0.000
      3 C           1.0306    0.5480    3.5353 C.3        1 <1>        0.000
      4 C           1.3377    1.8933    4.2191 C.3        1 <1>        0.000
      5 C           2.8258    2.1499    4.5213 C.3        1 <1>        0.000
      6 C           3.8008    1.6840    3.4241 C.3        1 <1>        0.000
      7 C           5.0167    1.4648    4.3435 C.3        1 <1>        0.000
      8 C           6.2817    1.1262    3.5332 C.3        1 <1>        0.000
      9 O           7.0765    1.6026    4.6224 O.3        1 <1>        0.000
     10 C           5.9758    2.2975    5.2143 C.3        1 <1>        0.000
     11 C           6.5695    2.1972    2.4646 C.3        1 <1>        0.000
     12 C           5.3536    2.4163    1.5452 C.3        1 <1>        0.000
     13 C           4.0886    2.7549    2.3555 C.3        1 <1>        0.000
     14 C           3.1466    2.7673    1.1755 C.2        1 <1>        0.000
     15 C           1.8471    3.5331    1.1050 C.3        1 <1>        0.000
     16 C           0.7366    2.9616    1.9537 C.2        1 <1>        0.000
     17 C          -0.0806    1.9308    1.6985 C.2        1 <1>        0.000
     18 H          -0.9735    2.0088    0.4833 H.spc      1 <1>        0.000
     19 C           0.6493    3.0422    3.4590 C.3        1 <1>        0.000
     20 H          -0.8168    3.1154    3.8759 H.spc      1 <1>        0.000
     21 H           1.2282    4.3744    3.9270 H.spc      1 <1>        0.000
     22 H           2.0869    4.8833    1.5105 H.spc      1 <1>        0.000
     23 O           3.4582    2.1106    0.2082 O.2        1 <1>        0.000
     24 H           4.1516    4.1353    3.0030 H.spc      1 <1>        0.000
     25 H           5.6346    3.4897    0.6431 H.spc      1 <1>        0.000
     26 H           4.6289    0.2728    5.0317 H.spc      1 <1>        0.000
     27 H           3.1644    1.4903    5.7440 H.spc      1 <1>        0.000
     28 H           0.7273    1.8206    5.5102 H.spc      1 <1>        0.000
     29 H          -1.0525    0.7920    3.1741 H.spc      1 <1>        0.000
     30 H           1.9092    0.2263    2.9761 H.spc      1 <1>        0.000
     31 H           0.7738   -0.1867    4.2984 H.spc      1 <1>        0.000
     32 H           2.9379    3.2323    4.5837 H.spc      1 <1>        0.000
     33 H           3.4633    0.8427    2.8188 H.spc      1 <1>        0.000
     34 H           6.3437    0.1435    3.0657 H.spc      1 <1>        0.000
     35 H           5.9347    3.3866    5.1988 H.spc      1 <1>        0.000
     36 H           5.8568    2.3275    6.2974 H.spc      1 <1>        0.000
     37 H           7.4079    1.8606    1.8548 H.spc      1 <1>        0.000
     38 H           6.7954    3.1368    2.9689 H.spc      1 <1>        0.000
     39 H           5.1701    1.4927    0.9962 H.spc      1 <1>        0.000
     40 H           1.5079    3.4653    0.0714 H.spc      1 <1>        0.000
@<TRIPOS>BOND
     1    1    2 1  
     2    2    3 1  
     3    3    4 1  
     4    4    5 1  
     5    5    6 1  
     6    6    7 1  
     7    7    8 1  
     8    8    9 1  
     9    9   10 1  
    10   10    7 1  
    11    8   11 1  
    12   11   12 1  
    13   12   13 1  
    14   13    6 1  
    15   13   14 1  
    16   14   15 1  
    17   15   16 1  
    18   16   17 2  
    19   17    2 1  
    20   17   18 1  
    21   16   19 1  
    22   19    4 1  
    23   19   20 1  
    24   19   21 1  
    25   15   22 1  
    26   14   23 2  
    27   13   24 1  
    28   12   25 1  
    29    7   26 1  
    30    5   27 1  
    31    4   28 1  
    32    2   29 1  
    33    3   30 1  
    34    3   31 1  
    35    5   32 1  
    36    6   33 1  
    37    8   34 1  
    38   10   35 1  
    39   10   36 1  
    40   11   37 1  
    41   11   38 1  
    42   12   39 1  
    43   15   40 1  
