# Name:          seed_class_5_558_21/34898
# Creation time: Fri May 21 00:57:20 2010


@<TRIPOS>MOLECULE
seed_class_5_558_21/34898
   15    15     1     1     1
SMALL
USER_CHARGES


@<TRIPOS>ATOM
      1 N          -2.8155   -0.8473   -0.8828 N.pl3      1 <1>        0.000
      2 H          -3.8574   -0.2850   -0.0116 H.spc      1 <1>        0.000
      3 H          -3.1914   -1.5632   -2.1105 H.spc      1 <1>        0.000
      4 C          -1.4507   -0.6994   -0.5398 C.ar       1 <1>        0.000
      5 N          -1.0813    0.2272    0.3550 N.ar       1 <1>        0.000
      6 C           0.2112    0.3672    0.6798 C.ar       1 <1>        0.000
      7 N           1.1343   -0.4193    0.1098 N.ar       1 <1>        0.000
      8 C           0.7649   -1.3458   -0.7850 C.ar       1 <1>        0.000
      9 N          -0.5275   -1.4859   -1.1098 N.ar       1 <1>        0.000
     10 N           1.7397   -2.1764   -1.3868 N.pl3      1 <1>        0.000
     11 H           1.3337   -3.4220   -2.0535 H.spc      1 <1>        0.000
     12 H           3.1584   -1.7935   -1.3454 H.spc      1 <1>        0.000
     13 N           0.6012    1.3456    1.6247 N.pl3      1 <1>        0.000
     14 H          -0.3111    2.4484    1.9600 H.spc      1 <1>        0.000
     15 H           1.9187    1.2593    2.2710 H.spc      1 <1>        0.000
@<TRIPOS>BOND
     1    1    2 1  
     2    1    3 1  
     3    1    4 1  
     4    4    5 ar 
     5    5    6 ar 
     6    6    7 ar 
     7    7    8 ar 
     8    8    9 ar 
     9    9    4 ar 
    10    8   10 1  
    11   10   11 1  
    12   10   12 1  
    13    6   13 1  
    14   13   14 1  
    15   13   15 1  
