# Name:          seed_class_4_292_33/38664
# Creation time: Fri May 21 00:57:17 2010


@<TRIPOS>MOLECULE
seed_class_4_292_33/38664
   13    13     1     1     1
SMALL
USER_CHARGES


@<TRIPOS>ATOM
      1 N          -2.0165   -1.5079   -1.6072 N.pl3      1 <1>        0.000
      2 C          -3.2531   -2.2757   -1.4019 C.3        1 <1>        0.000
      3 C          -4.2902   -1.3279   -2.0325 C.3        1 <1>        0.000
      4 N          -3.6046   -0.0342   -1.9013 N.pl3      1 <1>        0.000
      5 C          -2.2842   -0.1745   -1.6077 C.cat      1 <1>        0.000
      6 N          -1.4252    0.7988   -1.3686 N.pl3      1 <1>        0.000
      7 H          -0.0762    0.5697   -1.0725 H.spc      1 <1>        0.000
      8 H          -1.0903   -1.9167   -1.7315 H.spc      1 <1>        0.000
      9 H          -3.4540   -2.5207   -0.3590 H.spc      1 <1>        0.000
     10 H          -3.2351   -3.2708   -1.8463 H.spc      1 <1>        0.000
     11 H          -5.2673   -1.3600   -1.5505 H.spc      1 <1>        0.000
     12 H          -4.5555   -1.5843   -3.0582 H.spc      1 <1>        0.000
     13 H          -4.0673    0.8674   -2.0174 H.spc      1 <1>        0.000
@<TRIPOS>BOND
     1    1    2 1  
     2    2    3 1  
     3    3    4 1  
     4    4    5 ar 
     5    5    1 ar 
     6    5    6 ar 
     7    6    7 1  
     8    1    8 1  
     9    2    9 1  
    10    2   10 1  
    11    3   11 1  
    12    3   12 1  
    13    4   13 1  
