#	Name:			xanthene
#	Creating user name:	becker
#	Creation time:		Thu Dec 19 02:54:37 2002

#	Modifying user name:	zmliu
#	Modification time:	Thu Mar 11 21:43:31 2004

@<TRIPOS>MOLECULE
xanthene
   24    26     1     1     0
SMALL
GAST_HUCK


@<TRIPOS>ATOM
      1 C1          2.5119    1.2100    0.0307 C.ar      1 XANTHENE   -0.0023 
      2 C2          3.6938    0.4668    0.0920 C.ar      1 XANTHENE    0.0157 
      3 C3          3.6386   -0.9288    0.0648 C.ar      1 XANTHENE    0.0214 
      4 C4          2.4012   -1.5724   -0.0204 C.ar      1 XANTHENE    0.0584 
      5 C5          1.2166   -0.8320   -0.0776 C.ar      1 XANTHENE    0.1568 
      6 C6          1.2723    0.5659   -0.0542 C.ar      1 XANTHENE   -0.0624 
      7 O1          0.0000   -1.5117   -0.1589 O.3       1 XANTHENE   -0.2095 
      8 C7         -1.2164   -0.8321   -0.0761 C.ar      1 XANTHENE    0.1568 
      9 C8         -1.2726    0.5659   -0.0558 C.ar      1 XANTHENE   -0.0624 
     10 C9          0.0000    1.4080   -0.1211 C.3       1 XANTHENE   -0.1653 
     11 C10        -2.4005   -1.5727   -0.0148 C.ar      1 XANTHENE    0.0584 
     12 C11        -3.6382   -0.9292    0.0685 C.ar      1 XANTHENE    0.0214 
     13 C12        -3.6940    0.4666    0.0886 C.ar      1 XANTHENE    0.0157 
     14 C13        -2.5124    1.2099    0.0247 C.ar      1 XANTHENE   -0.0023 
     15 H1          2.5595    2.2942    0.0485 H.spc     1 XANTHENE   -1.0000 
     16 H2          4.6521    0.9725    0.1607 H.spc     1 XANTHENE   -1.0000 
     17 H3          4.5539   -1.5109    0.1096 H.spc     1 XANTHENE   -1.0000 
     18 H4          2.3567   -2.6564   -0.0423 H.spc     1 XANTHENE   -1.0000 
     19 H5          0.0005    1.9729   -1.0659 H.spc     1 XANTHENE   -1.0000 
     20 H6         -0.0008    2.1159    0.7223 H.spc     1 XANTHENE   -1.0000 
     21 H7         -2.3556   -2.6568   -0.0317 H.spc     1 XANTHENE   -1.0000 
     22 H8         -4.5531   -1.5118    0.1173 H.spc     1 XANTHENE   -1.0000 
     23 H9         -4.6527    0.9720    0.1538 H.spc     1 XANTHENE   -1.0000 
     24 H10        -2.5605    2.2943    0.0374 H.spc     1 XANTHENE   -1.0000 
@<TRIPOS>BOND
     1    1    2 ar   
     2    1    6 ar   
     3    2    3 ar   
     4    3    4 ar   
     5    4    5 ar   
     6    5    6 ar   
     7    5    7 1    
     8    6   10 1    
     9    7    8 1    
    10    8    9 ar   
    11    8   11 ar   
    12    9   10 1    
    13    9   14 ar   
    14   11   12 ar   
    15   12   13 ar   
    16   13   14 ar   
    17    1   15 1    
    18    2   16 1    
    19    3   17 1    
    20    4   18 1    
    21   10   19 1    
    22   10   20 1    
    23   11   21 1    
    24   12   22 1    
    25   13   23 1    
    26   14   24 1    
@<TRIPOS>SUBSTRUCTURE
     1 XANTHENE     1 PERM              0 ****  ****    0 ROOT 
@<TRIPOS>NORMAL
@<TRIPOS>FF_PBC
FORCE_FIELD_SETUP_FEATURE Force Field Setup information
v1.0  0 0.000000 0.000000 0.000000 0.000000 0.000000 0.000000 NONE 2 0 0 0 0 0 0 0 0 0 0 0 0
