# Name:          seed_class_4_194_128/38664
# Creation time: Fri May 21 00:57:15 2010


@<TRIPOS>MOLECULE
seed_class_4_194_128/38664
   18    19     1     1     1
SMALL
USER_CHARGES


@<TRIPOS>ATOM
      1 H          -1.3094   -1.6447   -2.1759 H.spc      1 <1>        0.000
      2 C          -2.5207   -0.8407   -1.7678 C.2        1 <1>        0.000
      3 C          -3.3270   -1.3106   -0.8062 C.2        1 <1>        0.000
      4 C          -4.5275   -0.5649   -0.3667 C.2        1 <1>        0.000
      5 C          -4.8360    0.7308   -1.0119 C.ar       1 <1>        0.000
      6 C          -3.9885    1.2146   -2.0157 C.ar       1 <1>        0.000
      7 C          -4.2658    2.4386   -2.6362 C.ar       1 <1>        0.000
      8 C          -5.3906    3.1787   -2.2529 C.ar       1 <1>        0.000
      9 C          -6.2381    2.6949   -1.2491 C.ar       1 <1>        0.000
     10 C          -5.9608    1.4710   -0.6286 C.ar       1 <1>        0.000
     11 C          -2.7935    0.4504   -2.4380 C.2        1 <1>        0.000
     12 O          -2.0491    0.8756   -3.3200 O.2        1 <1>        0.000
     13 O          -5.2550   -1.0135    0.5178 O.2        1 <1>        0.000
     14 H          -3.0328   -2.5110   -0.2152 H.spc      1 <1>        0.000
     15 H          -3.6059    2.8153   -3.4177 H.spc      1 <1>        0.000
     16 H          -5.6065    4.1316   -2.7360 H.spc      1 <1>        0.000
     17 H          -7.1139    3.2712   -0.9507 H.spc      1 <1>        0.000
     18 H          -6.6206    1.0944    0.1530 H.spc      1 <1>        0.000
@<TRIPOS>BOND
     1    1    2 1  
     2    2    3 2  
     3    3    4 1  
     4    4    5 1  
     5    5    6 ar 
     6    6    7 ar 
     7    7    8 ar 
     8    8    9 ar 
     9    9   10 ar 
    10   10    5 ar 
    11    6   11 1  
    12   11    2 1  
    13   11   12 2  
    14    4   13 2  
    15    3   14 1  
    16    7   15 1  
    17    8   16 1  
    18    9   17 1  
    19   10   18 1  
