#	Name:			pyrazine
#	Creating user name:	becker
#	Creation time:		Thu Dec 19 02:55:01 2002

#	Modifying user name:	zmliu
#	Modification time:	Thu Mar 11 21:22:50 2004

@<TRIPOS>MOLECULE
pyrazine
   10    10     1     1     0
SMALL
GAST_HUCK


@<TRIPOS>ATOM
      1 N1          0.0000    1.3653    0.0000 N.ar      1 PYRAZINE   -0.2461 
      2 C1          1.1726    0.6989    0.0000 C.ar      1 PYRAZINE    0.1230 
      3 C2          1.1726   -0.6989    0.0000 C.ar      1 PYRAZINE    0.1230 
      4 N2          0.0000   -1.3653    0.0000 N.ar      1 PYRAZINE   -0.2461 
      5 C3         -1.1726   -0.6989    0.0000 C.ar      1 PYRAZINE    0.1230 
      6 C4         -1.1726    0.6989    0.0000 C.ar      1 PYRAZINE    0.1230 
      7 H1          2.1063    1.2510    0.0000 H.spc     1 PYRAZINE   -1.0000 
      8 H2          2.1063   -1.2510    0.0000 H.spc     1 PYRAZINE   -1.0000 
      9 H3         -2.1063   -1.2510    0.0000 H.spc     1 PYRAZINE   -1.0000 
     10 H4         -2.1063    1.2510    0.0000 H.spc     1 PYRAZINE   -1.0000 
@<TRIPOS>BOND
     1    1    2 ar   
     2    1    6 ar   
     3    2    3 ar   
     4    3    4 ar   
     5    4    5 ar   
     6    5    6 ar   
     7    2    7 1    
     8    3    8 1    
     9    5    9 1    
    10    6   10 1    
@<TRIPOS>SUBSTRUCTURE
     1 PYRAZINE     1 PERM              0 ****  ****    0 ROOT 
@<TRIPOS>NORMAL
@<TRIPOS>FF_PBC
FORCE_FIELD_SETUP_FEATURE Force Field Setup information
v1.0  0 0.000000 0.000000 0.000000 0.000000 0.000000 0.000000 NONE 2 0 0 0 0 0 0 0 0 0 0 0 0
