#	Name:			1,2,5-oxadiazole
#	Creating user name:	zmliu
#	Creation time:		Thu Mar 11 16:58:44 2004

#	Modifying user name:	zmliu
#	Modification time:	Thu Mar 11 16:58:50 2004

@<TRIPOS>MOLECULE
1,2,5-oxadiazole
    7     7     1     1     1
SMALL
GAST_HUCK


@<TRIPOS>ATOM
      1 O1          0.0022    1.6064    0.0004 O.3       1 OXADIAZOLE   -0.0537 
      2 N1          1.1742    0.8194    0.0000 N.2       1 OXADIAZOLE   -0.0882 
      3 C1          0.7276   -0.3666    0.0000 C.2       1 OXADIAZOLE    0.1150 
      4 C2         -0.7286   -0.3646    0.0000 C.2       1 OXADIAZOLE    0.1150 
      5 N2         -1.1720    0.8226   -0.0005 N.2       1 OXADIAZOLE   -0.0882 
      6 H1          1.3498   -1.2604   -0.0001 H.spc     1 OXADIAZOLE   -1.0000 
      7 H2         -1.3533   -1.2568    0.0003 H.spc     1 OXADIAZOLE   -1.0000 
@<TRIPOS>BOND
     1    1    2 1    
     2    1    5 1    
     3    2    3 2    
     4    3    4 1    
     5    4    5 2    
     6    3    6 1    
     7    4    7 1    
@<TRIPOS>SUBSTRUCTURE
     1 OXADIAZOLE     1 PERM              0 ****  ****    0 ROOT 
@<TRIPOS>SET
LAB$A_TYPE      STATIC     ATOMS    LABELGROUP SYSTEM 
7 1 2 3 4 5 6 7
@<TRIPOS>NORMAL
@<TRIPOS>FF_PBC
FORCE_FIELD_SETUP_FEATURE Force Field Setup information
v1.0  0 0.000000 0.000000 0.000000 0.000000 0.000000 0.000000 NONE 2 0 0 0 0 0 0 0 0 0 0 0 0
