# Name:          seed_class_3_105_62/26467
# Creation time: Fri May 21 00:57:14 2010


@<TRIPOS>MOLECULE
seed_class_3_105_62/26467
    9     8     1     1     1
SMALL
USER_CHARGES


@<TRIPOS>ATOM
      1 S          -2.0136    1.3020   -1.5151 S.o2       1 <1>        0.000
      2 O          -2.2254    2.7147   -1.4478 O.2        1 <1>        0.000
      3 O          -1.7797    0.9193   -2.8729 O.2        1 <1>        0.000
      4 N          -3.4297    0.4705   -0.9103 N.am       1 <1>        0.000
      5 C          -3.6677   -0.7870   -1.2723 C.2        1 <1>        0.000
      6 O          -2.9231   -1.3473   -2.0752 O.2        1 <1>        0.000
      7 H          -4.8519   -1.5269   -0.6975 H.spc      1 <1>        0.000
      8 H          -0.5533    0.8513   -0.4905 H.spc      1 <1>        0.000
      9 H          -4.0725    0.9502   -0.2802 H.spc      1 <1>        0.000
@<TRIPOS>BOND
     1    1    2 2  
     2    1    3 2  
     3    1    4 1  
     4    4    5 am 
     5    5    6 2  
     6    5    7 1  
     7    1    8 1  
     8    4    9 1  
