# Name:          seed_class_5_456_42/34898
# Creation time: Fri May 21 00:57:19 2010


@<TRIPOS>MOLECULE
seed_class_5_456_42/34898
   12    12     1     1     1
SMALL
USER_CHARGES


@<TRIPOS>ATOM
      1 I          -0.2788    4.0389   -1.4969 I          1 <1>        0.000
      2 C           0.0853    1.9711   -1.5389 C.ar       1 <1>        0.000
      3 C           0.8448    1.4150   -2.5752 C.ar       1 <1>        0.000
      4 C           1.0875    0.0365   -2.6031 C.ar       1 <1>        0.000
      5 C           0.5707   -0.7859   -1.5949 C.ar       1 <1>        0.000
      6 C          -0.1888   -0.2298   -0.5586 C.ar       1 <1>        0.000
      7 C          -0.4315    1.1487   -0.5306 C.ar       1 <1>        0.000
      8 H           0.8325   -2.2727   -1.6251 H.spc      1 <1>        0.000
      9 H           1.2471    2.0553   -3.3602 H.spc      1 <1>        0.000
     10 H           1.6789   -0.3965   -3.4099 H.spc      1 <1>        0.000
     11 H          -0.5912   -0.8701    0.2264 H.spc      1 <1>        0.000
     12 H          -1.0228    1.5817    0.2762 H.spc      1 <1>        0.000
@<TRIPOS>BOND
     1    1    2 1  
     2    2    3 ar 
     3    3    4 ar 
     4    4    5 ar 
     5    5    6 ar 
     6    6    7 ar 
     7    7    2 ar 
     8    5    8 1  
     9    3    9 1  
    10    4   10 1  
    11    6   11 1  
    12    7   12 1  
