# Name:          seed_class_5_567_20/34898
# Creation time: Fri May 21 00:57:20 2010


@<TRIPOS>MOLECULE
seed_class_5_567_20/34898
   25    26     1     1     1
SMALL
USER_CHARGES


@<TRIPOS>ATOM
      1 Cl          2.5439   -3.4347    2.6912 Cl         1 <1>        0.000
      2 C           2.5221   -2.1469    1.5212 C.ar       1 <1>        0.000
      3 C           3.7167   -1.7167    0.9314 C.ar       1 <1>        0.000
      4 C           3.6991   -0.6805   -0.0099 C.ar       1 <1>        0.000
      5 C           2.4870   -0.0746   -0.3614 C.ar       1 <1>        0.000
      6 C           1.2924   -0.5048    0.2284 C.ar       1 <1>        0.000
      7 C           1.3099   -1.5410    1.1697 C.ar       1 <1>        0.000
      8 N          -0.0123   -0.0101   -0.0065 N.pl3      1 <1>        0.000
      9 C          -0.3054    1.0785   -0.9500 C.3        1 <1>        0.000
     10 N           0.7736    2.0532   -1.1656 N.am       1 <1>        0.000
     11 S           2.2957    1.2937   -1.5767 S.o2       1 <1>        0.000
     12 O           3.3831    2.2194   -1.5031 O.2        1 <1>        0.000
     13 O           2.2955    0.8076   -2.9215 O.2        1 <1>        0.000
     14 H          -1.5610    1.8164   -0.4878 H.spc      1 <1>        0.000
     15 S           5.3098   -2.5130    1.3935 S.o2       1 <1>        0.000
     16 O           6.2448   -2.3657    0.3216 O.2        1 <1>        0.000
     17 O           5.0916   -3.9032    1.6480 O.2        1 <1>        0.000
     18 N           5.9476   -1.7495    2.8331 N.am       1 <1>        0.000
     19 H           4.6292   -0.3455   -0.4691 H.spc      1 <1>        0.000
     20 H           0.3798   -1.8760    1.6289 H.spc      1 <1>        0.000
     21 H          -0.7887   -0.4300    0.5046 H.spc      1 <1>        0.000
     22 H          -0.4404    0.5883   -1.9142 H.spc      1 <1>        0.000
     23 H           0.6488    3.0623   -1.0844 H.spc      1 <1>        0.000
     24 H           6.8600   -1.2942    2.8073 H.spc      1 <1>        0.000
     25 H           5.4070   -1.7598    3.6980 H.spc      1 <1>        0.000
@<TRIPOS>BOND
     1    1    2 1  
     2    2    3 ar 
     3    3    4 ar 
     4    4    5 ar 
     5    5    6 ar 
     6    6    7 ar 
     7    7    2 ar 
     8    6    8 1  
     9    8    9 1  
    10    9   10 1  
    11   10   11 1  
    12   11    5 1  
    13   11   12 2  
    14   11   13 2  
    15    9   14 1  
    16    3   15 1  
    17   15   16 2  
    18   15   17 2  
    19   15   18 1  
    20    4   19 1  
    21    7   20 1  
    22    8   21 1  
    23    9   22 1  
    24   10   23 1  
    25   18   24 1  
    26   18   25 1  
