#	Name:			isothiazole
#	Creating user name:	becker
#	Creation time:		Thu Dec 19 02:54:55 2002

#	Modifying user name:	zmliu
#	Modification time:	Thu Mar 11 20:57:32 2004

@<TRIPOS>MOLECULE
isothiazole
    8     8     1     1     0
SMALL
GAST_HUCK


@<TRIPOS>ATOM
      1 S1         -0.6315    1.7942    0.0000 S.3       1 ISOTHIAZOLE    0.0295 
      2 N1          0.9550    1.2898    0.0000 N.2       1 ISOTHIAZOLE   -0.2498 
      3 C1          1.1456    0.0332    0.0000 C.2       1 ISOTHIAZOLE    0.0768 
      4 C2         -0.1036   -0.7376    0.0000 C.2       1 ISOTHIAZOLE    0.0404 
      5 C3         -1.1476    0.0917    0.0000 C.2       1 ISOTHIAZOLE    0.1031 
      6 H1          2.1355   -0.4208    0.0000 H.spc     1 ISOTHIAZOLE   -1.0000 
      7 H2         -0.1634   -1.8257    0.0000 H.spc     1 ISOTHIAZOLE   -1.0000 
      8 H3         -2.1900   -0.2248    0.0000 H.spc     1 ISOTHIAZOLE   -1.0000 
@<TRIPOS>BOND
     1    1    2 1    
     2    1    5 1    
     3    2    3 2    
     4    3    4 1    
     5    4    5 2    
     6    3    6 1    
     7    4    7 1    
     8    5    8 1    
@<TRIPOS>SUBSTRUCTURE
     1 ISOTHIAZOLE     1 PERM              0 ****  ****    0 ROOT 
@<TRIPOS>NORMAL
@<TRIPOS>FF_PBC
FORCE_FIELD_SETUP_FEATURE Force Field Setup information
v1.0  0 0.000000 0.000000 0.000000 0.000000 0.000000 0.000000 NONE 2 0 0 0 0 0 0 0 0 0 0 0 0
