# Name:          seed_class_5_469_36/34898
# Creation time: Fri May 21 00:57:19 2010


@<TRIPOS>MOLECULE
seed_class_5_469_36/34898
   13    13     1     1     1
SMALL
USER_CHARGES


@<TRIPOS>ATOM
      1 H           0.4961   -0.0001   -2.2535 H.spc      1 <1>        0.000
      2 N          -0.2363   -0.1258   -0.9852 N.pl3      1 <1>        0.000
      3 H          -1.2380   -1.1885   -0.8171 H.spc      1 <1>        0.000
      4 C           0.0229    0.7761    0.0739 C.ar       1 <1>        0.000
      5 N           1.0107    1.6737   -0.0446 N.ar       1 <1>        0.000
      6 C           1.2906    2.5463    0.9331 C.ar       1 <1>        0.000
      7 C           0.5514    2.5471    2.1220 C.ar       1 <1>        0.000
      8 C          -0.4874    1.6214    2.2767 C.ar       1 <1>        0.000
      9 C          -0.7549    0.7231    1.2368 C.ar       1 <1>        0.000
     10 H           2.1017    3.2624    0.8014 H.spc      1 <1>        0.000
     11 H           0.7813    3.2580    2.9156 H.spc      1 <1>        0.000
     12 H          -1.0785    1.6004    3.1923 H.spc      1 <1>        0.000
     13 H          -1.5580   -0.0078    1.3313 H.spc      1 <1>        0.000
@<TRIPOS>BOND
     1    1    2 1  
     2    2    3 1  
     3    2    4 1  
     4    4    5 ar 
     5    5    6 ar 
     6    6    7 ar 
     7    7    8 ar 
     8    8    9 ar 
     9    9    4 ar 
    10    6   10 1  
    11    7   11 1  
    12    8   12 1  
    13    9   13 1  
