# Name:          seed_class_4_204_99/38664
# Creation time: Fri May 21 00:57:15 2010


@<TRIPOS>MOLECULE
seed_class_4_204_99/38664
   11    11     1     1     1
SMALL
USER_CHARGES


@<TRIPOS>ATOM
      1 H           0.5969    1.9863   -0.5825 H.spc      1 <1>        0.000
      2 C           1.7328    1.1578   -0.1204 C.2        1 <1>        0.000
      3 C           2.0971    0.0874   -0.8396 C.2        1 <1>        0.000
      4 C           3.2306   -0.7531   -0.3934 C.2        1 <1>        0.000
      5 C           3.8883   -0.4380    0.7308 C.2        1 <1>        0.000
      6 C           3.4705    0.7482    1.5111 C.2        1 <1>        0.000
      7 O           2.3982    1.5090    1.0519 O.3        1 <1>        0.000
      8 O           4.0547    1.0539    2.5375 O.2        1 <1>        0.000
      9 H           3.6057   -1.8482   -1.1262 H.spc      1 <1>        0.000
     10 H           1.5586   -0.1643   -1.7533 H.spc      1 <1>        0.000
     11 H           4.7245   -1.0505    1.0680 H.spc      1 <1>        0.000
@<TRIPOS>BOND
     1    1    2 1  
     2    2    3 2  
     3    3    4 1  
     4    4    5 2  
     5    5    6 1  
     6    6    7 1  
     7    7    2 1  
     8    6    8 2  
     9    4    9 1  
    10    3   10 1  
    11    5   11 1  
