# Name:          seed_class_5_500_29/34898
# Creation time: Fri May 21 00:57:19 2010


@<TRIPOS>MOLECULE
seed_class_5_500_29/34898
   38    42     1     1     1
SMALL
USER_CHARGES


@<TRIPOS>ATOM
      1 N           4.1798    0.8663    0.2409 N.3        1 <1>        0.000
      2 C           3.5660   -0.2908    0.9081 C.3        1 <1>        0.000
      3 C           2.4005    0.1374    1.8189 C.3        1 <1>        0.000
      4 C           1.3583    0.9622    1.0409 C.3        1 <1>        0.000
      5 C           0.0849    1.0645    1.9009 C.3        1 <1>        0.000
      6 O          -0.7354   -0.0424    1.5175 O.3        1 <1>        0.000
      7 C          -0.3387   -0.4572    0.2736 C.ar       1 <1>        0.000
      8 C           0.8960    0.0870   -0.0995 C.ar       1 <1>        0.000
      9 C           1.4541   -0.2312   -1.3434 C.ar       1 <1>        0.000
     10 C           0.7774   -1.0935   -2.2143 C.ar       1 <1>        0.000
     11 C          -0.4574   -1.6377   -1.8412 C.ar       1 <1>        0.000
     12 C          -1.0154   -1.3196   -0.5973 C.ar       1 <1>        0.000
     13 O          -2.2238   -1.8521   -0.2322 O.3        1 <1>        0.000
     14 H          -2.8753   -2.7317   -1.1524 H.spc      1 <1>        0.000
     15 C           2.6196    0.6692   -1.6769 C.3        1 <1>        0.000
     16 C           3.2146    1.5922   -0.5972 C.3        1 <1>        0.000
     17 C           2.1086    2.1104    0.3407 C.3        1 <1>        0.000
     18 C           1.0773    3.1500   -0.1360 C.3        1 <1>        0.000
     19 C          -0.0307    3.4329    0.8955 C.3        1 <1>        0.000
     20 C          -0.8105    2.1744    1.3193 C.3        1 <1>        0.000
     21 H          -1.7926    2.5395    2.2925 H.spc      1 <1>        0.000
     22 H           5.3042    0.4105   -0.5892 H.spc      1 <1>        0.000
     23 H           4.3236   -0.7779    1.5220 H.spc      1 <1>        0.000
     24 H           3.1783   -0.9648    0.1442 H.spc      1 <1>        0.000
     25 H           2.7982    0.7524    2.6262 H.spc      1 <1>        0.000
     26 H           1.9155   -0.7583    2.2070 H.spc      1 <1>        0.000
     27 H           0.3701    1.1686    2.9477 H.spc      1 <1>        0.000
     28 H           1.2119   -1.3412   -3.1828 H.spc      1 <1>        0.000
     29 H          -0.9843   -2.3091   -2.5192 H.spc      1 <1>        0.000
     30 H           2.2293    1.3508   -2.4326 H.spc      1 <1>        0.000
     31 H           3.4300   -0.0158   -1.9261 H.spc      1 <1>        0.000
     32 H           3.7025    2.4162   -1.1179 H.spc      1 <1>        0.000
     33 H           2.7401    2.6963    1.0085 H.spc      1 <1>        0.000
     34 H           0.5986    2.7507   -1.0302 H.spc      1 <1>        0.000
     35 H           1.6103    4.0849   -0.3093 H.spc      1 <1>        0.000
     36 H          -0.7411    4.1187    0.4338 H.spc      1 <1>        0.000
     37 H           0.4474    3.8381    1.7873 H.spc      1 <1>        0.000
     38 H          -1.2718    1.7696    0.4185 H.spc      1 <1>        0.000
@<TRIPOS>BOND
     1    1    2 1  
     2    2    3 1  
     3    3    4 1  
     4    4    5 1  
     5    5    6 1  
     6    6    7 1  
     7    7    8 ar 
     8    8    4 1  
     9    8    9 ar 
    10    9   10 ar 
    11   10   11 ar 
    12   11   12 ar 
    13   12    7 ar 
    14   12   13 1  
    15   13   14 1  
    16    9   15 1  
    17   15   16 1  
    18   16    1 1  
    19   16   17 1  
    20   17    4 1  
    21   17   18 1  
    22   18   19 1  
    23   19   20 1  
    24   20    5 1  
    25   20   21 1  
    26    1   22 1  
    27    2   23 1  
    28    2   24 1  
    29    3   25 1  
    30    3   26 1  
    31    5   27 1  
    32   10   28 1  
    33   11   29 1  
    34   15   30 1  
    35   15   31 1  
    36   16   32 1  
    37   17   33 1  
    38   18   34 1  
    39   18   35 1  
    40   19   36 1  
    41   19   37 1  
    42   20   38 1  
