# Name:          seed_class_5_548_22/34898
# Creation time: Fri May 21 00:57:20 2010


@<TRIPOS>MOLECULE
seed_class_5_548_22/34898
   17    17     1     1     1
SMALL
USER_CHARGES


@<TRIPOS>ATOM
      1 O           3.1630   -0.2361    0.5698 O.3        1 <1>        0.000
      2 H           3.5452   -1.1105    1.6348 H.spc      1 <1>        0.000
      3 C           1.8298   -0.1283    0.2731 C.ar       1 <1>        0.000
      4 C           1.4010    0.7791   -0.7030 C.ar       1 <1>        0.000
      5 C           0.0387    0.8892   -1.0062 C.ar       1 <1>        0.000
      6 C          -0.8948    0.0920   -0.3333 C.ar       1 <1>        0.000
      7 C          -0.4661   -0.8154    0.6428 C.ar       1 <1>        0.000
      8 C           0.8963   -0.9256    0.9460 C.ar       1 <1>        0.000
      9 C          -2.3350    0.2084   -0.6538 C.2        1 <1>        0.000
     10 C          -3.2473   -0.3639    0.1437 C.2        1 <1>        0.000
     11 H          -4.7167   -0.2451   -0.1833 H.spc      1 <1>        0.000
     12 H           2.1278    1.3999   -1.2269 H.spc      1 <1>        0.000
     13 H          -0.2951    1.5956   -1.7662 H.spc      1 <1>        0.000
     14 H          -1.1930   -1.4361    1.1667 H.spc      1 <1>        0.000
     15 H           1.2301   -1.6321    1.7059 H.spc      1 <1>        0.000
     16 H          -2.6536    0.7596   -1.5385 H.spc      1 <1>        0.000
     17 H          -2.9287   -0.9151    1.0284 H.spc      1 <1>        0.000
@<TRIPOS>BOND
     1    1    2 1  
     2    1    3 1  
     3    3    4 ar 
     4    4    5 ar 
     5    5    6 ar 
     6    6    7 ar 
     7    7    8 ar 
     8    8    3 ar 
     9    6    9 1  
    10    9   10 2  
    11   10   11 1  
    12    4   12 1  
    13    5   13 1  
    14    7   14 1  
    15    8   15 1  
    16    9   16 1  
    17   10   17 1  
