# Name:          seed_class_5_547_22/34898
# Creation time: Fri May 21 00:57:20 2010


@<TRIPOS>MOLECULE
seed_class_5_547_22/34898
   17    18     1     1     1
SMALL
USER_CHARGES


@<TRIPOS>ATOM
      1 N          11.6968   -2.6857   -4.7571 N.pl3      1 <1>        0.000
      2 C          11.8925   -1.6459   -3.8175 C.ar       1 <1>        0.000
      3 C          10.8063   -1.6765   -2.9348 C.ar       1 <1>        0.000
      4 C          10.7294   -0.7512   -1.8870 C.ar       1 <1>        0.000
      5 C          11.7388    0.2047   -1.7219 C.ar       1 <1>        0.000
      6 C          12.8251    0.2353   -2.6046 C.ar       1 <1>        0.000
      7 C          12.9020   -0.6900   -3.6523 C.ar       1 <1>        0.000
      8 O           9.6664   -0.7811   -1.0233 O.3        1 <1>        0.000
      9 C           9.9477   -2.7907   -3.3952 C.ar       1 <1>        0.000
     10 C          10.5367   -3.3344   -4.4690 C.ar       1 <1>        0.000
     11 H           8.6467   -3.2335   -2.7696 H.spc      1 <1>        0.000
     12 H          12.3255   -2.9125   -5.5276 H.spc      1 <1>        0.000
     13 H          11.6790    0.9251   -0.9061 H.spc      1 <1>        0.000
     14 H          13.6110    0.9796   -2.4761 H.spc      1 <1>        0.000
     15 H          13.7478   -0.6662   -4.3394 H.spc      1 <1>        0.000
     16 H           9.0707   -1.4906   -1.2752 H.spc      1 <1>        0.000
     17 H          10.1411   -4.1790   -5.0331 H.spc      1 <1>        0.000
@<TRIPOS>BOND
     1    1    2 ar 
     2    2    3 ar 
     3    3    4 ar 
     4    4    5 ar 
     5    5    6 ar 
     6    6    7 ar 
     7    7    2 ar 
     8    4    8 1  
     9    3    9 ar 
    10    9   10 ar 
    11   10    1 ar 
    12    9   11 1  
    13    1   12 1  
    14    5   13 1  
    15    6   14 1  
    16    7   15 1  
    17    8   16 1  
    18   10   17 1  
