# Name:          seed_class_5_516_26/34898
# Creation time: Fri May 21 00:57:20 2010


@<TRIPOS>MOLECULE
seed_class_5_516_26/34898
   20    20     1     1     1
SMALL
USER_CHARGES


@<TRIPOS>ATOM
      1 H           0.8330   -0.5998    0.2559 H.spc      1 <1>        0.000
      2 N           2.0527   -0.0461    0.8614 N.am       1 <1>        0.000
      3 C           2.9115    0.6432    0.1156 C.2        1 <1>        0.000
      4 O           2.7122    0.7723   -1.0912 O.2        1 <1>        0.000
      5 C           4.1069    1.2549    0.7379 C.2        1 <1>        0.000
      6 C           4.9652    1.9605   -0.0111 C.2        1 <1>        0.000
      7 C           6.1606    2.5722    0.6111 C.2        1 <1>        0.000
      8 C           7.3827    2.3881    0.0932 C.2        1 <1>        0.000
      9 N           8.4733    2.9558    0.6746 N.am       1 <1>        0.000
     10 C           8.3462    3.7035    1.7671 C.2        1 <1>        0.000
     11 N           7.1633    3.9268    2.3326 N.am       1 <1>        0.000
     12 C           6.0477    3.4086    1.8270 C.2        1 <1>        0.000
     13 O           4.9559    3.6178    2.3534 O.2        1 <1>        0.000
     14 O           9.3682    4.2112    2.2773 O.2        1 <1>        0.000
     15 H           7.5504    1.5429   -1.1468 H.spc      1 <1>        0.000
     16 H           2.2404   -0.1905    1.8535 H.spc      1 <1>        0.000
     17 H           4.2891    1.1314    1.8054 H.spc      1 <1>        0.000
     18 H           4.7830    2.0839   -1.0786 H.spc      1 <1>        0.000
     19 H           9.3972    2.8067    0.2690 H.spc      1 <1>        0.000
     20 H           7.1107    4.5066    3.1701 H.spc      1 <1>        0.000
@<TRIPOS>BOND
     1    1    2 1  
     2    2    3 am 
     3    3    4 2  
     4    3    5 1  
     5    5    6 2  
     6    6    7 1  
     7    7    8 2  
     8    8    9 1  
     9    9   10 am 
    10   10   11 am 
    11   11   12 am 
    12   12    7 1  
    13   12   13 2  
    14   10   14 2  
    15    8   15 1  
    16    2   16 1  
    17    5   17 1  
    18    6   18 1  
    19    9   19 1  
    20   11   20 1  
