# Name:          seed_class_4_203_102/38664
# Creation time: Fri May 21 00:57:15 2010


@<TRIPOS>MOLECULE
seed_class_4_203_102/38664
   17    18     1     1     1
SMALL
USER_CHARGES


@<TRIPOS>ATOM
      1 H          -2.0731    2.7522    2.4331 H.spc      1 <1>        0.000
      2 C          -0.8466    1.8659    1.5741 C.ar       1 <1>        0.000
      3 C          -1.2131    0.8819    0.6482 C.ar       1 <1>        0.000
      4 C          -0.2263    0.1687   -0.0429 C.ar       1 <1>        0.000
      5 C           1.1270    0.4396    0.1919 C.ar       1 <1>        0.000
      6 C           1.4935    1.4236    1.1179 C.ar       1 <1>        0.000
      7 C           0.5067    2.1368    1.8090 C.ar       1 <1>        0.000
      8 H           0.9622    3.3597    2.9598 H.spc      1 <1>        0.000
      9 H           2.9241    1.7100    1.3662 H.spc      1 <1>        0.000
     10 C          -0.9465   -0.8006   -0.9494 C.3        1 <1>        0.000
     11 C          -2.3819   -0.2428   -0.9363 C.3        1 <1>        0.000
     12 O          -2.4747    0.4841    0.2917 O.3        1 <1>        0.000
     13 H          -3.4101   -1.3461   -1.0109 H.spc      1 <1>        0.000
     14 H           1.8953   -0.1156   -0.3462 H.spc      1 <1>        0.000
     15 H          -0.8819   -1.8357   -0.6139 H.spc      1 <1>        0.000
     16 H          -0.5150   -0.8601   -1.9486 H.spc      1 <1>        0.000
     17 H          -2.5831    0.3888   -1.8016 H.spc      1 <1>        0.000
@<TRIPOS>BOND
     1    1    2 1  
     2    2    3 ar 
     3    3    4 ar 
     4    4    5 ar 
     5    5    6 ar 
     6    6    7 ar 
     7    7    2 ar 
     8    7    8 1  
     9    6    9 1  
    10    4   10 1  
    11   10   11 1  
    12   11   12 1  
    13   12    3 1  
    14   11   13 1  
    15    5   14 1  
    16   10   15 1  
    17   10   16 1  
    18   11   17 1  
