#	Name:			pteridine
#	Creating user name:	becker
#	Creation time:		Thu Dec 19 02:55:01 2002

#	Modifying user name:	zmliu
#	Modification time:	Thu Mar 11 21:21:46 2004

@<TRIPOS>MOLECULE
pteridine
   14    15     1     1     0
SMALL
GAST_HUCK


@<TRIPOS>ATOM
      1 N1          1.3415    1.4200    0.0013 N.ar      1 PTERIDINE   -0.2241 
      2 C1          2.4985    0.7257   -0.0007 C.ar      1 PTERIDINE    0.1846 
      3 N2          2.4947   -0.6238   -0.0004 N.ar      1 PTERIDINE   -0.2197 
      4 C2          1.3349   -1.3122    0.0003 C.ar      1 PTERIDINE    0.1415 
      5 N3         -1.0617   -1.2633    0.0022 N.ar      1 PTERIDINE   -0.2367 
      6 C3         -2.2182   -0.5691   -0.0003 C.ar      1 PTERIDINE    0.1387 
      7 C4         -2.1866    0.8288   -0.0002 C.ar      1 PTERIDINE    0.1393 
      8 N4         -1.0005    1.4714    0.0017 N.ar      1 PTERIDINE   -0.2288 
      9 C5          0.1560    0.7780    0.0017 C.ar      1 PTERIDINE    0.1613 
     10 C6          0.1230   -0.6189    0.0016 C.ar      1 PTERIDINE    0.1439 
     11 H1          3.4423    1.2584   -0.0026 H.spc     1 PTERIDINE   -1.0000 
     12 H2          1.3485   -2.3964   -0.0005 H.spc     1 PTERIDINE   -1.0000 
     13 H3         -3.1644   -1.0994   -0.0025 H.spc     1 PTERIDINE   -1.0000 
     14 H4         -3.1082    1.4008   -0.0016 H.spc     1 PTERIDINE   -1.0000 
@<TRIPOS>BOND
     1    2    1 ar   
     2    1    9 ar   
     3    3    2 ar   
     4    4    3 ar   
     5   10    4 ar   
     6    5    6 ar   
     7    5   10 ar   
     8    6    7 ar   
     9    7    8 ar   
    10    8    9 ar   
    11    9   10 ar   
    12    2   11 1    
    13    4   12 1    
    14    6   13 1    
    15    7   14 1    
@<TRIPOS>SUBSTRUCTURE
     1 PTERIDINE     5 PERM              0 ****  ****    0 ROOT 
@<TRIPOS>NORMAL
@<TRIPOS>FF_PBC
FORCE_FIELD_SETUP_FEATURE Force Field Setup information
v1.0  0 0.000000 0.000000 0.000000 0.000000 0.000000 0.000000 NONE 2 0 0 0 0 0 0 0 0 0 0 0 0
