# Name:          seed_class_5_564_20/34898
# Creation time: Fri May 21 00:57:20 2010


@<TRIPOS>MOLECULE
seed_class_5_564_20/34898
   14    14     1     1     1
SMALL
USER_CHARGES


@<TRIPOS>ATOM
      1 O           8.0312    0.1193   -0.4536 O.3        1 <1>        0.000
      2 H           7.6926   -0.6070    0.7308 H.spc      1 <1>        0.000
      3 C           7.1119    1.0061   -0.9491 C.2        1 <1>        0.000
      4 C           7.4103    1.6922   -2.0607 C.2        1 <1>        0.000
      5 C           6.4334    2.6559   -2.6151 C.2        1 <1>        0.000
      6 C           5.1428    2.8303   -1.9120 C.2        1 <1>        0.000
      7 C           4.8560    2.1383   -0.8010 C.2        1 <1>        0.000
      8 C           5.8249    1.1719   -0.2374 C.2        1 <1>        0.000
      9 O           5.5707    0.5321    0.7819 O.2        1 <1>        0.000
     10 H           3.5270    2.3471   -0.1152 H.spc      1 <1>        0.000
     11 H           4.1291    3.8076   -2.4576 H.spc      1 <1>        0.000
     12 O           6.6877    3.2957   -3.6344 O.2        1 <1>        0.000
     13 O           8.6163    1.5022   -2.6823 O.3        1 <1>        0.000
     14 H           8.8936    2.2676   -3.8579 H.spc      1 <1>        0.000
@<TRIPOS>BOND
     1    1    2 1  
     2    1    3 1  
     3    3    4 2  
     4    4    5 1  
     5    5    6 1  
     6    6    7 2  
     7    7    8 1  
     8    8    3 1  
     9    8    9 2  
    10    7   10 1  
    11    6   11 1  
    12    5   12 2  
    13    4   13 1  
    14   13   14 1  
