# Name:          seed_class_2_13_22533/95646
# Creation time: Fri May 21 00:57:12 2010


@<TRIPOS>MOLECULE
seed_class_2_13_22533/95646
    4     3     1     1     1
SMALL
USER_CHARGES


@<TRIPOS>ATOM
      1 H          -8.8079    0.7224   -0.6184 H.spc      1 <1>        0.000
      2 C          -9.6750    1.6569   -1.4278 C.2        1 <1>        0.000
      3 O          -9.2005    2.2630   -2.3743 O.2        1 <1>        0.000
      4 H         -10.9462    1.8181   -1.1111 H.spc      1 <1>        0.000
@<TRIPOS>BOND
     1    1    2 1  
     2    2    3 2  
     3    2    4 1  
