# Name:          seed_class_4_238_55/38664
# Creation time: Fri May 21 00:57:16 2010


@<TRIPOS>MOLECULE
seed_class_4_238_55/38664
   13    13     1     1     1
SMALL
USER_CHARGES


@<TRIPOS>ATOM
      1 H           0.5043    0.9740   -1.3415 H.spc      1 <1>        0.000
      2 N          -0.6041    0.6895   -0.6066 N.pl3      1 <1>        0.000
      3 H          -1.5516    1.7591   -0.2615 H.spc      1 <1>        0.000
      4 C          -0.8359   -0.5845   -0.1911 C.cat      1 <1>        0.000
      5 N          -1.4565   -1.4877   -0.9270 N.pl3      1 <1>        0.000
      6 C          -1.5328   -2.7464   -0.1715 C.3        1 <1>        0.000
      7 C          -0.5630   -2.5230    1.0037 C.3        1 <1>        0.000
      8 N          -0.4519   -1.0574    1.0249 N.pl3      1 <1>        0.000
      9 H          -1.2627   -3.6123   -0.7759 H.spc      1 <1>        0.000
     10 H          -2.5459   -2.9719    0.1613 H.spc      1 <1>        0.000
     11 H           0.3942   -3.0293    0.8791 H.spc      1 <1>        0.000
     12 H          -0.9162   -2.9454    1.9444 H.spc      1 <1>        0.000
     13 H          -0.1406   -0.4926    1.8151 H.spc      1 <1>        0.000
@<TRIPOS>BOND
     1    1    2 1  
     2    2    3 1  
     3    2    4 ar 
     4    4    5 ar 
     5    5    6 1  
     6    6    7 1  
     7    7    8 1  
     8    8    4 ar 
     9    6    9 1  
    10    6   10 1  
    11    7   11 1  
    12    7   12 1  
    13    8   13 1  
