# Name:          seed_class_3_131_31/26467
# Creation time: Fri May 21 00:57:15 2010


@<TRIPOS>MOLECULE
seed_class_3_131_31/26467
   17    16     1     1     1
SMALL
USER_CHARGES


@<TRIPOS>ATOM
      1 H          -3.9313   -1.1291   -1.8756 H.spc      1 <1>        0.000
      2 C          -5.0669   -2.0480   -1.4932 C.2        1 <1>        0.000
      3 C          -6.2830   -1.8679   -2.0262 C.2        1 <1>        0.000
      4 C          -7.3960   -2.7685   -1.6515 C.2        1 <1>        0.000
      5 C          -8.6020   -2.6136   -2.2147 C.2        1 <1>        0.000
      6 C          -9.7150   -3.5142   -1.8399 C.2        1 <1>        0.000
      7 C         -10.9099   -3.3851   -2.4324 C.2        1 <1>        0.000
      8 C         -12.0229   -4.2857   -2.0576 C.2        1 <1>        0.000
      9 O         -11.8633   -5.1216   -1.1834 O.2        1 <1>        0.000
     10 O         -13.1883   -4.1846   -2.6693 O.3        1 <1>        0.000
     11 H          -4.8974   -2.8578   -0.7836 H.spc      1 <1>        0.000
     12 H          -6.4525   -1.0581   -2.7358 H.spc      1 <1>        0.000
     13 H          -7.2347   -3.5579   -0.9173 H.spc      1 <1>        0.000
     14 H          -8.7633   -1.8243   -2.9489 H.spc      1 <1>        0.000
     15 H          -9.5627   -4.2825   -1.0819 H.spc      1 <1>        0.000
     16 H         -11.0622   -2.6168   -3.1904 H.spc      1 <1>        0.000
     17 H         -13.1450   -3.4838   -3.3240 H.spc      1 <1>        0.000
@<TRIPOS>BOND
     1    1    2 1  
     2    2    3 2  
     3    3    4 1  
     4    4    5 2  
     5    5    6 1  
     6    6    7 2  
     7    7    8 1  
     8    8    9 2  
     9    8   10 1  
    10    2   11 1  
    11    3   12 1  
    12    4   13 1  
    13    5   14 1  
    14    6   15 1  
    15    7   16 1  
    16   10   17 1  
