# Name:          seed_class_3_102_71/26467
# Creation time: Fri May 21 00:57:14 2010


@<TRIPOS>MOLECULE
seed_class_3_102_71/26467
    5     4     1     1     1
SMALL
USER_CHARGES


@<TRIPOS>ATOM
      1 H           2.7714   -1.1377   -3.0476 H.spc      1 <1>        0.000
      2 N           1.5380   -1.4675   -2.3191 N.3        1 <1>        0.000
      3 O           1.1348   -2.7222   -2.6551 O.3        1 <1>        0.000
      4 H           0.4866   -0.5034   -2.6740 H.spc      1 <1>        0.000
      5 H           0.3293   -2.9365   -2.1788 H.spc      1 <1>        0.000
@<TRIPOS>BOND
     1    1    2 1  
     2    2    3 1  
     3    2    4 1  
     4    3    5 1  
