# Name:          seed_class_5_525_24/34898
# Creation time: Fri May 21 00:57:20 2010


@<TRIPOS>MOLECULE
seed_class_5_525_24/34898
   14    15     1     1     1
SMALL
USER_CHARGES


@<TRIPOS>ATOM
      1 N           1.2442    1.8722    1.9138 N.pl3      1 <1>        0.000
      2 C           2.6125    1.9163    1.5559 C.ar       1 <1>        0.000
      3 N           3.5976    1.0095    1.5017 N.ar       1 <1>        0.000
      4 C           4.8340    1.3500    1.1131 C.ar       1 <1>        0.000
      5 N           5.1183    2.6129    0.7671 N.ar       1 <1>        0.000
      6 C           4.1796    3.5687    0.7989 C.ar       1 <1>        0.000
      7 C           2.8783    3.2441    1.2005 C.ar       1 <1>        0.000
      8 N           1.6799    3.9518    1.3522 N.ar       1 <1>        0.000
      9 C           0.7385    3.1266    1.7707 C.ar       1 <1>        0.000
     10 O           4.4910    4.8539    0.4411 O.3        1 <1>        0.000
     11 H           5.8422    5.1387    0.0693 H.spc      1 <1>        0.000
     12 H           0.5026    0.6841    2.3600 H.spc      1 <1>        0.000
     13 H           5.6164    0.5919    1.0781 H.spc      1 <1>        0.000
     14 H          -0.2946    3.4095    1.9724 H.spc      1 <1>        0.000
@<TRIPOS>BOND
     1    1    2 ar 
     2    2    3 ar 
     3    3    4 ar 
     4    4    5 ar 
     5    5    6 ar 
     6    6    7 ar 
     7    7    2 ar 
     8    7    8 ar 
     9    8    9 ar 
    10    9    1 ar 
    11    6   10 1  
    12   10   11 1  
    13    1   12 1  
    14    4   13 1  
    15    9   14 1  
