# Name:          seed_class_3_136_26/26467
# Creation time: Fri May 21 00:57:15 2010


@<TRIPOS>MOLECULE
seed_class_3_136_26/26467
    7     6     1     1     1
SMALL
USER_CHARGES


@<TRIPOS>ATOM
      1 N           2.2227    0.3134    0.2983 N.1        1 <1>        0.000
      2 C           1.0630    0.2973    0.2830 C.1        1 <1>        0.000
      3 C          -0.3868    0.2773    0.2639 C.2        1 <1>        0.000
      4 C          -1.0345   -0.5725   -0.5449 C.2        1 <1>        0.000
      5 H          -0.9497    0.9534    0.9074 H.spc      1 <1>        0.000
      6 H          -0.4715   -1.2486   -1.1883 H.spc      1 <1>        0.000
      7 H          -2.1243   -0.5876   -0.5593 H.spc      1 <1>        0.000
@<TRIPOS>BOND
     1    1    2 3  
     2    2    3 1  
     3    3    4 2  
     4    3    5 1  
     5    4    6 1  
     6    4    7 1  
