# Name:          seed_class_3_107_59/26467
# Creation time: Fri May 21 00:57:14 2010


@<TRIPOS>MOLECULE
seed_class_3_107_59/26467
   21    20     1     1     1
SMALL
USER_CHARGES


@<TRIPOS>ATOM
      1 H           3.1157   -0.3649   -0.8958 H.spc      1 <1>        0.000
      2 C           1.7624   -0.1118   -0.3529 C.2        1 <1>        0.000
      3 C           0.7896    0.3344   -1.1594 C.2        1 <1>        0.000
      4 C          -0.5637    0.5875   -0.6165 C.2        1 <1>        0.000
      5 C          -1.4472    1.3029   -1.3260 C.2        1 <1>        0.000
      6 C          -2.8006    1.5560   -0.7831 C.2        1 <1>        0.000
      7 C          -3.8535    1.6166   -1.6097 C.2        1 <1>        0.000
      8 C          -5.2069    1.8697   -1.0669 C.2        1 <1>        0.000
      9 C          -6.2870    1.6393   -1.8257 C.2        1 <1>        0.000
     10 C          -7.6404    1.8924   -1.2828 C.2        1 <1>        0.000
     11 O          -8.2331    2.9179   -1.5754 O.2        1 <1>        0.000
     12 O          -8.2063    1.0086   -0.4821 O.3        1 <1>        0.000
     13 H          -5.3705    2.3876    0.3421 H.spc      1 <1>        0.000
     14 H          -0.9490    0.0396    0.7368 H.spc      1 <1>        0.000
     15 H           1.5569   -0.2883    0.7029 H.spc      1 <1>        0.000
     16 H           0.9951    0.5109   -2.2152 H.spc      1 <1>        0.000
     17 H          -1.1691    1.6984   -2.3029 H.spc      1 <1>        0.000
     18 H          -2.9409    1.6931    0.2891 H.spc      1 <1>        0.000
     19 H          -3.7132    1.4795   -2.6819 H.spc      1 <1>        0.000
     20 H          -6.1689    1.2655   -2.8428 H.spc      1 <1>        0.000
     21 H          -7.6110    0.2663   -0.3550 H.spc      1 <1>        0.000
@<TRIPOS>BOND
     1    1    2 1  
     2    2    3 2  
     3    3    4 1  
     4    4    5 2  
     5    5    6 1  
     6    6    7 2  
     7    7    8 1  
     8    8    9 2  
     9    9   10 1  
    10   10   11 2  
    11   10   12 1  
    12    8   13 1  
    13    4   14 1  
    14    2   15 1  
    15    3   16 1  
    16    5   17 1  
    17    6   18 1  
    18    7   19 1  
    19    9   20 1  
    20   12   21 1  
