# Name:          seed_class_5_528_24/34898
# Creation time: Fri May 21 00:57:20 2010


@<TRIPOS>MOLECULE
seed_class_5_528_24/34898
   18    19     1     1     1
SMALL
USER_CHARGES


@<TRIPOS>ATOM
      1 H           0.2585    1.5886   -1.3928 H.spc      1 <1>        0.000
      2 C           1.7397    1.4765   -1.1217 C.2        1 <1>        0.000
      3 C           2.2279    1.9121    0.0477 C.2        1 <1>        0.000
      4 C           3.6707    1.8271    0.3667 C.2        1 <1>        0.000
      5 C           4.5882    1.2447   -0.6379 C.ar       1 <1>        0.000
      6 C           4.0701    0.7920   -1.8572 C.ar       1 <1>        0.000
      7 C           4.9243    0.2384   -2.8184 C.ar       1 <1>        0.000
      8 C           6.2966    0.1376   -2.5604 C.ar       1 <1>        0.000
      9 C           6.8148    0.5904   -1.3411 C.ar       1 <1>        0.000
     10 C           5.9606    1.1439   -0.3799 C.ar       1 <1>        0.000
     11 C           2.6231    0.8878   -2.1529 C.2        1 <1>        0.000
     12 O           2.1682    0.4900   -3.2242 O.2        1 <1>        0.000
     13 O           4.0989    2.2326    1.4461 O.2        1 <1>        0.000
     14 H           1.2826    2.5045    1.0653 H.spc      1 <1>        0.000
     15 H           4.5209   -0.1141   -3.7677 H.spc      1 <1>        0.000
     16 H           6.9616   -0.2934   -3.3088 H.spc      1 <1>        0.000
     17 H           7.8833    0.5120   -1.1402 H.spc      1 <1>        0.000
     18 H           6.3640    1.4964    0.5694 H.spc      1 <1>        0.000
@<TRIPOS>BOND
     1    1    2 1  
     2    2    3 2  
     3    3    4 1  
     4    4    5 1  
     5    5    6 ar 
     6    6    7 ar 
     7    7    8 ar 
     8    8    9 ar 
     9    9   10 ar 
    10   10    5 ar 
    11    6   11 1  
    12   11    2 1  
    13   11   12 2  
    14    4   13 2  
    15    3   14 1  
    16    7   15 1  
    17    8   16 1  
    18    9   17 1  
    19   10   18 1  
