# Name:          seed_class_5_480_34/34898
# Creation time: Fri May 21 00:57:19 2010


@<TRIPOS>MOLECULE
seed_class_5_480_34/34898
   18    18     1     1     1
SMALL
USER_CHARGES


@<TRIPOS>ATOM
      1 N          -0.2725    0.6836    1.6074 N.am       1 <1>        0.000
      2 H          -1.0555    0.0822    2.6965 H.spc      1 <1>        0.000
      3 H           0.7648   -0.1043    0.9261 H.spc      1 <1>        0.000
      4 C          -0.5025    1.9405    1.2385 C.2        1 <1>        0.000
      5 O          -1.3803    2.5951    1.7988 O.2        1 <1>        0.000
      6 C           0.2978    2.5517    0.1539 C.ar       1 <1>        0.000
      7 C           1.2884    3.4925    0.4598 C.ar       1 <1>        0.000
      8 C           2.0454    4.0706   -0.5662 C.ar       1 <1>        0.000
      9 C           1.8119    3.7079   -1.8981 C.ar       1 <1>        0.000
     10 C           0.8214    2.7670   -2.2040 C.ar       1 <1>        0.000
     11 C           0.0644    2.1889   -1.1780 C.ar       1 <1>        0.000
     12 O           3.0148    4.9914   -0.2669 O.3        1 <1>        0.000
     13 O           1.5169    3.8475    1.7631 O.3        1 <1>        0.000
     14 H           2.4013    4.1581   -2.6969 H.spc      1 <1>        0.000
     15 H           0.6396    2.4845   -3.2410 H.spc      1 <1>        0.000
     16 H          -0.7068    1.4563   -1.4161 H.spc      1 <1>        0.000
     17 H           3.0450    5.1253    0.6832 H.spc      1 <1>        0.000
     18 H           2.2227    4.4973    1.7975 H.spc      1 <1>        0.000
@<TRIPOS>BOND
     1    1    2 1  
     2    1    3 1  
     3    1    4 am 
     4    4    5 2  
     5    4    6 1  
     6    6    7 ar 
     7    7    8 ar 
     8    8    9 ar 
     9    9   10 ar 
    10   10   11 ar 
    11   11    6 ar 
    12    8   12 1  
    13    7   13 1  
    14    9   14 1  
    15   10   15 1  
    16   11   16 1  
    17   12   17 1  
    18   13   18 1  
