# Name:          seed_class_4_251_46/38664
# Creation time: Fri May 21 00:57:16 2010


@<TRIPOS>MOLECULE
seed_class_4_251_46/38664
   35    39     1     1     1
SMALL
USER_CHARGES


@<TRIPOS>ATOM
      1 N           4.3356    1.8278   -0.3256 N.3        1 <1>        0.000
      2 C           3.4163    2.4003    0.6684 C.3        1 <1>        0.000
      3 C           2.1336    2.7980   -0.0853 C.3        1 <1>        0.000
      4 C           1.4393    1.5830   -0.7278 C.3        1 <1>        0.000
      5 C           0.0545    1.5447   -1.4004 C.3        1 <1>        0.000
      6 O          -0.5607    0.3315   -0.9591 O.3        1 <1>        0.000
      7 C           0.0556   -0.0632    0.1990 C.ar       1 <1>        0.000
      8 C           1.2541    0.6245    0.4242 C.ar       1 <1>        0.000
      9 C           2.0170    0.3464    1.5647 C.ar       1 <1>        0.000
     10 C           1.5815   -0.6194    2.4798 C.ar       1 <1>        0.000
     11 C           0.3831   -1.3071    2.2545 C.ar       1 <1>        0.000
     12 C          -0.3799   -1.0290    1.1141 C.ar       1 <1>        0.000
     13 H          -1.5527   -1.7020    0.8937 H.spc      1 <1>        0.000
     14 C           3.0980    1.3793    1.7762 C.3        1 <1>        0.000
     15 C          -0.6595    2.8408   -0.9740 C.3        1 <1>        0.000
     16 C          -0.2595    3.2791    0.4145 C.2        1 <1>        0.000
     17 C           1.0173    3.2595    0.8208 C.2        1 <1>        0.000
     18 H          -2.0735    2.6308   -1.0102 H.spc      1 <1>        0.000
     19 C           2.4548    0.9206   -1.6774 C.3        1 <1>        0.000
     20 C           3.7811    0.6204   -0.9546 C.3        1 <1>        0.000
     21 H           5.6133    1.4973    0.3217 H.spc      1 <1>        0.000
     22 H           3.8675    3.2654    1.1543 H.spc      1 <1>        0.000
     23 H           2.5000    3.5586   -0.7747 H.spc      1 <1>        0.000
     24 H           0.0487    1.5253   -2.4902 H.spc      1 <1>        0.000
     25 H           2.1755   -0.8359    3.3677 H.spc      1 <1>        0.000
     26 H           0.0441   -2.0591    2.9670 H.spc      1 <1>        0.000
     27 H           4.0136    0.7973    1.8811 H.spc      1 <1>        0.000
     28 H           2.7374    1.9841    2.6082 H.spc      1 <1>        0.000
     29 H          -0.3663    3.6273   -1.6694 H.spc      1 <1>        0.000
     30 H          -1.0304    3.6208    1.1052 H.spc      1 <1>        0.000
     31 H           1.2566    3.5856    1.8330 H.spc      1 <1>        0.000
     32 H           2.6557    1.6037   -2.5027 H.spc      1 <1>        0.000
     33 H           2.0339   -0.0188   -2.0358 H.spc      1 <1>        0.000
     34 H           4.4986    0.2518   -1.6877 H.spc      1 <1>        0.000
     35 H           3.5911   -0.1188   -0.1764 H.spc      1 <1>        0.000
@<TRIPOS>BOND
     1    1    2 1  
     2    2    3 1  
     3    3    4 1  
     4    4    5 1  
     5    5    6 1  
     6    6    7 1  
     7    7    8 ar 
     8    8    4 1  
     9    8    9 ar 
    10    9   10 ar 
    11   10   11 ar 
    12   11   12 ar 
    13   12    7 ar 
    14   12   13 1  
    15    9   14 1  
    16   14    2 1  
    17    5   15 1  
    18   15   16 1  
    19   16   17 2  
    20   17    3 1  
    21   15   18 1  
    22    4   19 1  
    23   19   20 1  
    24   20    1 1  
    25    1   21 1  
    26    2   22 1  
    27    3   23 1  
    28    5   24 1  
    29   10   25 1  
    30   11   26 1  
    31   14   27 1  
    32   14   28 1  
    33   15   29 1  
    34   16   30 1  
    35   17   31 1  
    36   19   32 1  
    37   19   33 1  
    38   20   34 1  
    39   20   35 1  
