# Name:          seed_class_4_284_34/38664
# Creation time: Fri May 21 00:57:16 2010


@<TRIPOS>MOLECULE
seed_class_4_284_34/38664
   37    41     1     1     1
SMALL
USER_CHARGES


@<TRIPOS>ATOM
      1 H          -1.4852    1.9378   -3.3403 H.spc      1 <1>        0.000
      2 C          -1.0729    1.5260   -2.0893 C.3        1 <1>        0.000
      3 C          -0.1604    2.6066   -1.4799 C.3        1 <1>        0.000
      4 C           0.3824    2.2372   -0.0869 C.3        1 <1>        0.000
      5 C           1.1645    0.9108   -0.0649 C.3        1 <1>        0.000
      6 C           0.4072   -0.1181   -0.9247 C.3        1 <1>        0.000
      7 C           1.3671   -1.2928   -1.1899 C.3        1 <1>        0.000
      8 C           1.9611   -1.8354    0.1232 C.3        1 <1>        0.000
      9 N           2.6111   -0.7698    0.8997 N.3        1 <1>        0.000
     10 C           1.6698    0.3016    1.2561 C.3        1 <1>        0.000
     11 C           0.4932   -0.2513    2.0816 C.3        1 <1>        0.000
     12 C          -0.6899   -0.8798    1.3849 C.ar       1 <1>        0.000
     13 C          -0.6585   -0.6479    0.0046 C.ar       1 <1>        0.000
     14 C          -1.7857   -0.9261   -0.7777 C.ar       1 <1>        0.000
     15 C          -2.9443   -1.4362   -0.1798 C.ar       1 <1>        0.000
     16 C          -2.9757   -1.6680    1.2005 C.ar       1 <1>        0.000
     17 C          -1.8485   -1.3898    1.9829 C.ar       1 <1>        0.000
     18 H          -4.0473   -1.7084   -0.9454 H.spc      1 <1>        0.000
     19 O          -1.5825   -0.6417   -2.1024 O.3        1 <1>        0.000
     20 C          -0.3956    0.1484   -2.2116 C.3        1 <1>        0.000
     21 H           3.1886   -1.3421    2.1244 H.spc      1 <1>        0.000
     22 H           2.3812    1.2156   -0.7517 H.spc      1 <1>        0.000
     23 H          -1.9169    1.4046   -1.4103 H.spc      1 <1>        0.000
     24 H          -0.7546    3.5138   -1.3702 H.spc      1 <1>        0.000
     25 H           0.6955    2.7257   -2.1442 H.spc      1 <1>        0.000
     26 H          -0.4732    2.1243    0.5789 H.spc      1 <1>        0.000
     27 H           1.0686    3.0274    0.2177 H.spc      1 <1>        0.000
     28 H           2.1829   -0.9394   -1.8205 H.spc      1 <1>        0.000
     29 H           0.8102   -2.0936   -1.6765 H.spc      1 <1>        0.000
     30 H           2.7085   -2.5902   -0.1213 H.spc      1 <1>        0.000
     31 H           1.1521   -2.2548    0.7213 H.spc      1 <1>        0.000
     32 H           2.1619    1.0555    1.8706 H.spc      1 <1>        0.000
     33 H           0.0797    0.6225    2.5852 H.spc      1 <1>        0.000
     34 H           0.9279   -1.0628    2.6652 H.spc      1 <1>        0.000
     35 H          -3.8777   -2.0651    1.6661 H.spc      1 <1>        0.000
     36 H          -1.8730   -1.5703    3.0576 H.spc      1 <1>        0.000
     37 H           0.2552    0.0015   -3.0736 H.spc      1 <1>        0.000
@<TRIPOS>BOND
     1    1    2 1  
     2    2    3 1  
     3    3    4 1  
     4    4    5 1  
     5    5    6 1  
     6    6    7 1  
     7    7    8 1  
     8    8    9 1  
     9    9   10 1  
    10   10    5 1  
    11   10   11 1  
    12   11   12 1  
    13   12   13 ar 
    14   13    6 1  
    15   13   14 ar 
    16   14   15 ar 
    17   15   16 ar 
    18   16   17 ar 
    19   17   12 ar 
    20   15   18 1  
    21   14   19 1  
    22   19   20 1  
    23   20    2 1  
    24   20    6 1  
    25    9   21 1  
    26    5   22 1  
    27    2   23 1  
    28    3   24 1  
    29    3   25 1  
    30    4   26 1  
    31    4   27 1  
    32    7   28 1  
    33    7   29 1  
    34    8   30 1  
    35    8   31 1  
    36   10   32 1  
    37   11   33 1  
    38   11   34 1  
    39   16   35 1  
    40   17   36 1  
    41   20   37 1  
