# Name:          seed_class_5_413_86/34898
# Creation time: Fri May 21 00:57:18 2010


@<TRIPOS>MOLECULE
seed_class_5_413_86/34898
   44    46     1     1     1
SMALL
USER_CHARGES


@<TRIPOS>ATOM
      1 H           4.1014   -2.0628    0.6103 H.spc      1 <1>        0.000
      2 C           4.1669   -2.4828    1.9757 C.3        1 <1>        0.000
      3 C           5.6427   -2.6467    2.3843 C.3        1 <1>        0.000
      4 C           6.3917   -1.3022    2.3304 C.3        1 <1>        0.000
      5 C           5.6789   -0.2255    3.1149 C.2        1 <1>        0.000
      6 C           4.2171   -0.1323    2.9059 C.2        1 <1>        0.000
      7 C           3.4611   -1.4387    2.8606 C.3        1 <1>        0.000
      8 C           3.5977    1.0474    2.7644 C.2        1 <1>        0.000
      9 C           2.1330    1.0941    2.5571 C.2        1 <1>        0.000
     10 C           1.6204    1.8280    1.5600 C.2        1 <1>        0.000
     11 C           0.1372    1.9206    1.2915 C.3        1 <1>        0.000
     12 C          -0.2295    1.6669   -0.1825 C.3        1 <1>        0.000
     13 C          -1.7678    1.5955   -0.2012 C.3        1 <1>        0.000
     14 C          -2.1350    0.9479    1.1469 C.3        1 <1>        0.000
     15 C          -0.9339    1.1530    2.0887 C.3        1 <1>        0.000
     16 H          -2.2822    0.7743   -1.3826 H.spc      1 <1>        0.000
     17 C           0.6072    2.5664   -1.1105 C.3        1 <1>        0.000
     18 C           2.1159    2.3790   -0.8642 C.3        1 <1>        0.000
     19 C           2.4781    2.6307    0.6113 C.3        1 <1>        0.000
     20 H           0.2234    0.2709   -0.6007 H.spc      1 <1>        0.000
     21 C           6.3311    0.5954    3.9494 C.2        1 <1>        0.000
     22 H           7.7074   -1.4768    2.8626 H.spc      1 <1>        0.000
     23 H           3.6638   -3.4414    2.1029 H.spc      1 <1>        0.000
     24 H           6.1201   -3.3376    1.6895 H.spc      1 <1>        0.000
     25 H           5.6796   -3.0234    3.4065 H.spc      1 <1>        0.000
     26 H           6.4345   -0.9845    1.2886 H.spc      1 <1>        0.000
     27 H           2.4738   -1.2469    2.4403 H.spc      1 <1>        0.000
     28 H           3.4031   -1.8344    3.8746 H.spc      1 <1>        0.000
     29 H           4.1726    1.9727    2.8020 H.spc      1 <1>        0.000
     30 H           1.4712    0.5315    3.2156 H.spc      1 <1>        0.000
     31 H           0.0686    2.9437    1.6611 H.spc      1 <1>        0.000
     32 H          -2.2243    2.5776   -0.3244 H.spc      1 <1>        0.000
     33 H          -2.3473   -0.1136    1.0191 H.spc      1 <1>        0.000
     34 H          -3.0327    1.4058    1.5623 H.spc      1 <1>        0.000
     35 H          -0.5455    0.1945    2.4328 H.spc      1 <1>        0.000
     36 H          -1.2303    1.7135    2.9754 H.spc      1 <1>        0.000
     37 H           0.3501    3.6062   -0.9087 H.spc      1 <1>        0.000
     38 H           0.3889    2.2960   -2.1436 H.spc      1 <1>        0.000
     39 H           2.6595    3.0942   -1.4816 H.spc      1 <1>        0.000
     40 H           2.3837    1.3531   -1.1169 H.spc      1 <1>        0.000
     41 H           2.3161    3.6877    0.8226 H.spc      1 <1>        0.000
     42 H           3.5156    2.3313    0.7595 H.spc      1 <1>        0.000
     43 H           5.7837    1.3611    4.4992 H.spc      1 <1>        0.000
     44 H           7.4090    0.4975    4.0784 H.spc      1 <1>        0.000
@<TRIPOS>BOND
     1    1    2 1  
     2    2    3 1  
     3    3    4 1  
     4    4    5 1  
     5    5    6 1  
     6    6    7 1  
     7    7    2 1  
     8    6    8 2  
     9    8    9 1  
    10    9   10 2  
    11   10   11 1  
    12   11   12 1  
    13   12   13 1  
    14   13   14 1  
    15   14   15 1  
    16   15   11 1  
    17   13   16 1  
    18   12   17 1  
    19   17   18 1  
    20   18   19 1  
    21   19   10 1  
    22   12   20 1  
    23    5   21 2  
    24    4   22 1  
    25    2   23 1  
    26    3   24 1  
    27    3   25 1  
    28    4   26 1  
    29    7   27 1  
    30    7   28 1  
    31    8   29 1  
    32    9   30 1  
    33   11   31 1  
    34   13   32 1  
    35   14   33 1  
    36   14   34 1  
    37   15   35 1  
    38   15   36 1  
    39   17   37 1  
    40   17   38 1  
    41   18   39 1  
    42   18   40 1  
    43   19   41 1  
    44   19   42 1  
    45   21   43 1  
    46   21   44 1  
