# Name:          seed_class_3_135_27/26467
# Creation time: Fri May 21 00:57:15 2010


@<TRIPOS>MOLECULE
seed_class_3_135_27/26467
   12    11     1     1     1
SMALL
USER_CHARGES


@<TRIPOS>ATOM
      1 O           1.2642   -0.9324   -2.4931 O.2        1 <1>        0.000
      2 C           1.2429   -0.4220   -1.3742 C.2        1 <1>        0.000
      3 H           2.4941    0.2038   -0.8058 H.spc      1 <1>        0.000
      4 C          -0.0091   -0.4212   -0.5850 C.2        1 <1>        0.000
      5 C          -1.1194   -0.9767   -1.0893 C.2        1 <1>        0.000
      6 C          -2.3714   -0.9759   -0.3001 C.2        1 <1>        0.000
      7 C          -3.4813   -1.5325   -0.8039 C.2        1 <1>        0.000
      8 H          -4.7333   -1.5316   -0.0146 H.spc      1 <1>        0.000
      9 H          -0.0281    0.0313    0.4065 H.spc      1 <1>        0.000
     10 H          -1.1004   -1.4292   -2.0808 H.spc      1 <1>        0.000
     11 H          -2.3906   -0.5225    0.6910 H.spc      1 <1>        0.000
     12 H          -3.4621   -1.9859   -1.7949 H.spc      1 <1>        0.000
@<TRIPOS>BOND
     1    1    2 2  
     2    2    3 1  
     3    2    4 1  
     4    4    5 2  
     5    5    6 1  
     6    6    7 2  
     7    7    8 1  
     8    4    9 1  
     9    5   10 1  
    10    6   11 1  
    11    7   12 1  
