#	Name:			carbazole
#	Creating user name:	becker
#	Creation time:		Thu Dec 19 02:54:42 2002

#	Modifying user name:	zmliu
#	Modification time:	Thu Mar 11 20:35:35 2004

@<TRIPOS>MOLECULE
carbazole
   22    24     1     1     0
SMALL
GAST_HUCK


@<TRIPOS>ATOM
      1 C1          2.4293    1.2685    0.0003 C.ar      1 CARBAZOLE    0.0110 
      2 C2          3.3824    0.2420    0.0002 C.ar      1 CARBAZOLE   -0.0187 
      3 C3          2.9946   -1.1068   -0.0004 C.ar      1 CARBAZOLE   -0.0214 
      4 C4          1.6422   -1.4721   -0.0004 C.ar      1 CARBAZOLE   -0.0196 
      5 C5         -1.6421   -1.4722    0.0004 C.ar      1 CARBAZOLE   -0.0196 
      6 C6         -2.9946   -1.1069    0.0003 C.ar      1 CARBAZOLE   -0.0214 
      7 C7         -3.3824    0.2420    0.0000 C.ar      1 CARBAZOLE   -0.0187 
      8 C8         -2.4293    1.2685    0.0000 C.ar      1 CARBAZOLE    0.0110 
      9 N1         -0.0001    1.6909    0.0004 N.pl3     1 CARBAZOLE   -0.1359 
     10 C9          1.0862    0.8926    0.0004 C.ar      1 CARBAZOLE    0.1077 
     11 C10         0.6989   -0.4447    0.0002 C.ar      1 CARBAZOLE    0.0090 
     12 C11        -0.6987   -0.4448    0.0005 C.ar      1 CARBAZOLE    0.0090 
     13 C12        -1.0863    0.8923    0.0004 C.ar      1 CARBAZOLE    0.1077 
     14 H1          2.7197    2.3138    0.0004 H.spc     1 CARBAZOLE   -1.0000 
     15 H2          4.4380    0.4955    0.0005 H.spc     1 CARBAZOLE   -1.0000 
     16 H3          3.7550   -1.8815   -0.0006 H.spc     1 CARBAZOLE   -1.0000 
     17 H4          1.3375   -2.5133   -0.0009 H.spc     1 CARBAZOLE   -1.0000 
     18 H5         -1.3374   -2.5133    0.0002 H.spc     1 CARBAZOLE   -1.0000 
     19 H6         -3.7549   -1.8816    0.0004 H.spc     1 CARBAZOLE   -1.0000 
     20 H7         -4.4380    0.4954   -0.0005 H.spc     1 CARBAZOLE   -1.0000 
     21 H8         -2.7195    2.3138   -0.0008 H.spc     1 CARBAZOLE   -1.0000 
     22 H9         -0.0003    2.7218   -0.0010 H.spc     1 CARBAZOLE   -1.0000 
@<TRIPOS>BOND
     1    1    2 ar   
     2   10    1 ar   
     3    2    3 ar   
     4    3    4 ar   
     5    4   11 ar   
     6    6    5 ar   
     7    5   12 ar   
     8    7    6 ar   
     9    8    7 ar   
    10   13    8 ar   
    11    9   10 1    
    12    9   13 1    
    13   10   11 ar   
    14   11   12 ar   
    15   12   13 ar   
    16    1   14 1    
    17    2   15 1    
    18    3   16 1    
    19    4   17 1    
    20    5   18 1    
    21    6   19 1    
    22    7   20 1    
    23    8   21 1    
    24    9   22 1    
@<TRIPOS>SUBSTRUCTURE
     1 CARBAZOLE     1 PERM              0 ****  ****    0 ROOT 
@<TRIPOS>NORMAL
@<TRIPOS>FF_PBC
FORCE_FIELD_SETUP_FEATURE Force Field Setup information
v1.0  0 0.000000 0.000000 0.000000 0.000000 0.000000 0.000000 NONE 2 0 0 0 0 0 0 0 0 0 0 0 0
