#	Name:			pyrazole
#	Creating user name:	becker
#	Creation time:		Thu Dec 19 02:55:01 2002

#	Modifying user name:	zmliu
#	Modification time:	Thu Mar 11 21:23:31 2004

@<TRIPOS>MOLECULE
pyrazole
    9     9     1     1     0
SMALL
GAST_HUCK


@<TRIPOS>ATOM
      1 N1          0.9848    0.6915    0.0000 N.pl3     1 PYRAZOLE   -0.0417 
      2 N2         -0.1885    1.3581    0.0000 N.2       1 PYRAZOLE   -0.1760 
      3 C1         -1.1591    0.5420    0.0000 C.2       1 PYRAZOLE    0.0479 
      4 C2         -0.5532   -0.7961    0.0000 C.2       1 PYRAZOLE    0.0010 
      5 C3          0.7680   -0.5926    0.0000 C.2       1 PYRAZOLE    0.1688 
      6 H1          1.9146    1.1366    0.0000 H.spc     1 PYRAZOLE   -1.0000 
      7 H2         -2.2206    0.7850    0.0000 H.spc     1 PYRAZOLE   -1.0000 
      8 H3         -1.0757   -1.7521    0.0000 H.spc     1 PYRAZOLE   -1.0000 
      9 H4          1.5298   -1.3724    0.0000 H.spc     1 PYRAZOLE   -1.0000 
@<TRIPOS>BOND
     1    1    2 1    
     2    1    5 1    
     3    2    3 2    
     4    3    4 1    
     5    4    5 2    
     6    1    6 1    
     7    3    7 1    
     8    4    8 1    
     9    5    9 1    
@<TRIPOS>SUBSTRUCTURE
     1 PYRAZOLE     1 PERM              0 ****  ****    0 ROOT 
@<TRIPOS>NORMAL
@<TRIPOS>FF_PBC
FORCE_FIELD_SETUP_FEATURE Force Field Setup information
v1.0  0 0.000000 0.000000 0.000000 0.000000 0.000000 0.000000 NONE 2 0 0 0 0 0 0 0 0 0 0 0 0
