# Name:          seed_class_2_45_111/95646
# Creation time: Fri May 21 00:57:13 2010


@<TRIPOS>MOLECULE
seed_class_2_45_111/95646
   23    25     1     1     1
SMALL
USER_CHARGES


@<TRIPOS>ATOM
      1 N           0.7038   -0.8251    0.7853 N.ar       1 <1>        0.000
      2 C           1.3698    0.0171   -0.0163 C.ar       1 <1>        0.000
      3 C           0.6748    0.8975   -0.8542 C.ar       1 <1>        0.000
      4 C          -0.7250    0.8825   -0.8399 C.ar       1 <1>        0.000
      5 C          -1.3929   -0.0088    0.0084 C.ar       1 <1>        0.000
      6 C          -0.6353   -0.8616    0.8200 C.ar       1 <1>        0.000
      7 C          -1.2760   -1.7633    1.6782 C.ar       1 <1>        0.000
      8 C          -2.6744   -1.8121    1.7247 C.ar       1 <1>        0.000
      9 C          -3.4320   -0.9594    0.9131 C.ar       1 <1>        0.000
     10 C          -2.7913   -0.0577    0.0549 C.ar       1 <1>        0.000
     11 C           1.3798    1.7736   -1.6880 C.ar       1 <1>        0.000
     12 C           2.7798    1.7694   -1.6841 C.ar       1 <1>        0.000
     13 C           3.4748    0.8891   -0.8462 C.ar       1 <1>        0.000
     14 C           2.7698    0.0130   -0.0123 C.ar       1 <1>        0.000
     15 H          -1.2893    1.5580   -1.4828 H.spc      1 <1>        0.000
     16 H          -0.6861   -2.4273    2.3101 H.spc      1 <1>        0.000
     17 H          -3.1733   -2.5141    2.3929 H.spc      1 <1>        0.000
     18 H          -4.5207   -0.9975    0.9493 H.spc      1 <1>        0.000
     19 H          -3.3812    0.6062   -0.5770 H.spc      1 <1>        0.000
     20 H           0.8387    2.4591   -2.3403 H.spc      1 <1>        0.000
     21 H           3.3287    2.4515   -2.3334 H.spc      1 <1>        0.000
     22 H           4.5648    0.8858   -0.8431 H.spc      1 <1>        0.000
     23 H           3.3109   -0.6723    0.6401 H.spc      1 <1>        0.000
@<TRIPOS>BOND
     1    1    2 ar 
     2    2    3 ar 
     3    3    4 ar 
     4    4    5 ar 
     5    5    6 ar 
     6    6    1 ar 
     7    6    7 ar 
     8    7    8 ar 
     9    8    9 ar 
    10    9   10 ar 
    11   10    5 ar 
    12    3   11 ar 
    13   11   12 ar 
    14   12   13 ar 
    15   13   14 ar 
    16   14    2 ar 
    17    4   15 1  
    18    7   16 1  
    19    8   17 1  
    20    9   18 1  
    21   10   19 1  
    22   11   20 1  
    23   12   21 1  
    24   13   22 1  
    25   14   23 1  
