#	Name:			7H-purine
#	Creating user name:	becker
#	Creation time:		Thu Dec 19 02:54:40 2002

#	Modifying user name:	zmliu
#	Modification time:	Thu Mar 11 20:21:11 2004

@<TRIPOS>MOLECULE
7H-purine
   13    14     1     1     0
SMALL
GAST_HUCK


@<TRIPOS>ATOM
      1 N1         -2.0543    0.7985    0.0004 N.ar      1 PURINE     -0.2554 
      2 C1         -2.2877   -0.5381   -0.0004 C.ar      1 PURINE      0.1479 
      3 N2         -1.2823   -1.4444    0.0006 N.ar      1 PURINE     -0.2598 
      4 C2         -0.0202   -0.9788    0.0008 C.ar      1 PURINE      0.1242 
      5 C3          0.2381    0.3840    0.0002 C.ar      1 PURINE      0.1840 
      6 C4         -0.8019    1.3100    0.0005 C.ar      1 PURINE      0.1211 
      7 N3          1.5801    0.5562   -0.0006 N.pl3     1 PURINE     -0.0637 
      8 C5          2.1015   -0.6396    0.0000 C.2       1 PURINE      0.2615 
      9 N4          1.2012   -1.5347    0.0010 N.2       1 PURINE     -0.2599 
     10 H1         -3.3122   -0.8913   -0.0017 H.spc     1 PURINE     -1.0000 
     11 H2         -0.6202    2.3785    0.0009 H.spc     1 PURINE     -1.0000 
     12 H3          2.0879    1.4535   -0.0013 H.spc     1 PURINE     -1.0000 
     13 H4          3.1699   -0.8539   -0.0005 H.spc     1 PURINE     -1.0000 
@<TRIPOS>BOND
     1    1    2 ar   
     2    1    6 ar   
     3    2    3 ar   
     4    3    4 ar   
     5    4    5 ar   
     6    4    9 1    
     7    5    6 ar   
     8    5    7 1    
     9    7    8 1    
    10    8    9 2    
    11    2   10 1    
    12    6   11 1    
    13    7   12 1    
    14    8   13 1    
@<TRIPOS>SUBSTRUCTURE
     1 PURINE      1 PERM              0 ****  ****    0 ROOT 
@<TRIPOS>NORMAL
@<TRIPOS>FF_PBC
FORCE_FIELD_SETUP_FEATURE Force Field Setup information
v1.0  0 0.000000 0.000000 0.000000 0.000000 0.000000 0.000000 NONE 2 0 0 0 0 0 0 0 0 0 0 0 0
