# Name:          seed_class_4_313_27/38664
# Creation time: Fri May 21 00:57:17 2010


@<TRIPOS>MOLECULE
seed_class_4_313_27/38664
   11    11     1     1     1
SMALL
USER_CHARGES


@<TRIPOS>ATOM
      1 N           7.3692    2.0936    4.6717 N.am       1 <1>        0.000
      2 C           8.1650    2.3809    3.6069 C.2        1 <1>        0.000
      3 N           7.6573    2.6536    2.4193 N.2        1 <1>        0.000
      4 C           6.2717    2.6552    2.2188 C.2        1 <1>        0.000
      5 C           5.4469    2.3781    3.2378 C.2        1 <1>        0.000
      6 C           6.0442    2.0761    4.5578 C.2        1 <1>        0.000
      7 O           5.3323    1.8152    5.5264 O.2        1 <1>        0.000
      8 H           3.9493    2.3740    3.0447 H.spc      1 <1>        0.000
      9 H           5.7628    2.9380    0.9897 H.spc      1 <1>        0.000
     10 H           9.5152    2.3874    3.7694 H.spc      1 <1>        0.000
     11 H           7.7966    1.8877    5.5747 H.spc      1 <1>        0.000
@<TRIPOS>BOND
     1    1    2 1  
     2    2    3 2  
     3    3    4 1  
     4    4    5 2  
     5    5    6 1  
     6    6    1 am 
     7    6    7 2  
     8    5    8 1  
     9    4    9 1  
    10    2   10 1  
    11    1   11 1  
