# Name:          seed_class_4_316_27/38664
# Creation time: Fri May 21 00:57:17 2010


@<TRIPOS>MOLECULE
seed_class_4_316_27/38664
   18    19     1     1     1
SMALL
USER_CHARGES


@<TRIPOS>ATOM
      1 O           0.6806    2.9718    1.0389 O.3        1 <1>        0.000
      2 C           1.6661    2.3009    0.2493 C.3        1 <1>        0.000
      3 C           0.8935    1.6117   -0.8908 C.3        1 <1>        0.000
      4 C          -0.5255    1.4459   -0.3160 C.3        1 <1>        0.000
      5 C          -0.7463   -0.0781   -0.3337 C.3        1 <1>        0.000
      6 O           0.1325   -0.5880   -1.3399 O.3        1 <1>        0.000
      7 C           1.3373    0.1653   -1.1782 C.3        1 <1>        0.000
      8 H          -2.1789   -0.3854   -0.6990 H.spc      1 <1>        0.000
      9 C          -0.4178    2.0576    1.0932 C.3        1 <1>        0.000
     10 H           2.3779    1.2655    1.0868 H.spc      1 <1>        0.000
     11 H           2.4162    2.9933   -0.1328 H.spc      1 <1>        0.000
     12 H           1.0225    2.1994   -1.7997 H.spc      1 <1>        0.000
     13 H          -1.3572    1.9213   -0.8361 H.spc      1 <1>        0.000
     14 H          -0.5474   -0.5258    0.6400 H.spc      1 <1>        0.000
     15 H           1.9606    0.1121   -2.0708 H.spc      1 <1>        0.000
     16 H           1.9464   -0.2311   -0.3658 H.spc      1 <1>        0.000
     17 H          -0.2559    1.2880    1.8479 H.spc      1 <1>        0.000
     18 H          -1.3406    2.5633    1.3773 H.spc      1 <1>        0.000
@<TRIPOS>BOND
     1    1    2 1  
     2    2    3 1  
     3    3    4 1  
     4    4    5 1  
     5    5    6 1  
     6    6    7 1  
     7    7    3 1  
     8    5    8 1  
     9    4    9 1  
    10    9    1 1  
    11    2   10 1  
    12    2   11 1  
    13    3   12 1  
    14    4   13 1  
    15    5   14 1  
    16    7   15 1  
    17    7   16 1  
    18    9   17 1  
    19    9   18 1  
