# Name:          seed_class_5_401_124/34898
# Creation time: Fri May 21 00:57:18 2010


@<TRIPOS>MOLECULE
seed_class_5_401_124/34898
   14    14     1     1     1
SMALL
USER_CHARGES


@<TRIPOS>ATOM
      1 H           3.4274    0.1873   -1.7544 H.spc      1 <1>        0.000
      2 C           4.7200   -0.5365   -1.4624 C.ar       1 <1>        0.000
      3 C           5.1668   -1.5462   -2.3232 C.ar       1 <1>        0.000
      4 C           6.3653   -2.2173   -2.0525 C.ar       1 <1>        0.000
      5 C           7.1170   -1.8787   -0.9209 C.ar       1 <1>        0.000
      6 C           6.6702   -0.8690   -0.0602 C.ar       1 <1>        0.000
      7 C           5.4717   -0.1980   -0.3309 C.ar       1 <1>        0.000
      8 H           4.9898    0.8910    0.5975 H.spc      1 <1>        0.000
      9 O           7.4058   -0.5377    1.0471 O.3        1 <1>        0.000
     10 H           8.4096   -2.6025   -0.6289 H.spc      1 <1>        0.000
     11 H           6.8472   -3.3063   -2.9809 H.spc      1 <1>        0.000
     12 O           4.4312   -1.8775   -3.4305 O.3        1 <1>        0.000
     13 H           8.1914   -1.0882    1.0844 H.spc      1 <1>        0.000
     14 H           4.8743   -2.5823   -3.9086 H.spc      1 <1>        0.000
@<TRIPOS>BOND
     1    1    2 1  
     2    2    3 ar 
     3    3    4 ar 
     4    4    5 ar 
     5    5    6 ar 
     6    6    7 ar 
     7    7    2 ar 
     8    7    8 1  
     9    6    9 1  
    10    5   10 1  
    11    4   11 1  
    12    3   12 1  
    13    9   13 1  
    14   12   14 1  
