# Name:          seed_class_4_290_33/38664
# Creation time: Fri May 21 00:57:16 2010


@<TRIPOS>MOLECULE
seed_class_4_290_33/38664
   25    27     1     1     1
SMALL
USER_CHARGES


@<TRIPOS>ATOM
      1 N           1.2383   -1.4017    1.3576 N.pl3      1 <1>        0.000
      2 C          -0.0796   -1.1112    0.9322 C.ar       1 <1>        0.000
      3 C           0.0096   -0.1164   -0.0489 C.ar       1 <1>        0.000
      4 C           1.4541    0.1742   -0.1889 C.ar       1 <1>        0.000
      5 C           2.1111   -0.6188    0.6685 C.ar       1 <1>        0.000
      6 C           3.6160   -0.5818    0.7871 C.3        1 <1>        0.000
      7 N           4.2754    0.0392   -0.3707 N.3        1 <1>        0.000
      8 C           3.6587    1.3355   -0.6870 C.3        1 <1>        0.000
      9 C           2.1824    1.1485   -1.0836 C.3        1 <1>        0.000
     10 H           4.1534   -1.9953    0.9913 H.spc      1 <1>        0.000
     11 C          -1.1525    0.3735   -0.6567 C.ar       1 <1>        0.000
     12 C          -2.4038   -0.1313   -0.2835 C.ar       1 <1>        0.000
     13 C          -2.4931   -1.1260    0.6976 C.ar       1 <1>        0.000
     14 C          -1.3310   -1.6160    1.3054 C.ar       1 <1>        0.000
     15 H          -3.5410    0.3481   -0.8783 H.spc      1 <1>        0.000
     16 H           1.4930   -2.0884    2.0675 H.spc      1 <1>        0.000
     17 H           3.8470    0.0415    1.6510 H.spc      1 <1>        0.000
     18 H           4.1765   -0.5782   -1.1766 H.spc      1 <1>        0.000
     19 H           4.1947    1.7884   -1.5211 H.spc      1 <1>        0.000
     20 H           3.7103    1.9762    0.1933 H.spc      1 <1>        0.000
     21 H           2.1574    0.7519   -2.0986 H.spc      1 <1>        0.000
     22 H           1.6882    2.1160   -0.9951 H.spc      1 <1>        0.000
     23 H          -1.0830    1.1480   -1.4205 H.spc      1 <1>        0.000
     24 H          -3.4674   -1.5189    0.9882 H.spc      1 <1>        0.000
     25 H          -1.4005   -2.3905    2.0692 H.spc      1 <1>        0.000
@<TRIPOS>BOND
     1    1    2 ar 
     2    2    3 ar 
     3    3    4 ar 
     4    4    5 ar 
     5    5    1 ar 
     6    5    6 1  
     7    6    7 1  
     8    7    8 1  
     9    8    9 1  
    10    9    4 1  
    11    6   10 1  
    12    3   11 ar 
    13   11   12 ar 
    14   12   13 ar 
    15   13   14 ar 
    16   14    2 ar 
    17   12   15 1  
    18    1   16 1  
    19    6   17 1  
    20    7   18 1  
    21    8   19 1  
    22    8   20 1  
    23    9   21 1  
    24    9   22 1  
    25   11   23 1  
    26   13   24 1  
    27   14   25 1  
