# Name:          seed_class_5_378_346/34898
# Creation time: Fri May 21 00:57:18 2010


@<TRIPOS>MOLECULE
seed_class_5_378_346/34898
   12    12     1     1     1
SMALL
USER_CHARGES


@<TRIPOS>ATOM
      1 F          -2.9768    2.2473    0.3912 F          1 <1>        0.000
      2 C          -2.9986    1.1250   -0.3588 C.ar       1 <1>        0.000
      3 C          -1.9320    0.8370   -1.2187 C.ar       1 <1>        0.000
      4 C          -1.9546   -0.3268   -1.9966 C.ar       1 <1>        0.000
      5 C          -3.0438   -1.2026   -1.9145 C.ar       1 <1>        0.000
      6 C          -4.1104   -0.9146   -1.0546 C.ar       1 <1>        0.000
      7 C          -4.0878    0.2493   -0.2768 C.ar       1 <1>        0.000
      8 H          -0.7573    1.7816   -1.3073 H.spc      1 <1>        0.000
      9 H          -1.1242   -0.5510   -2.6661 H.spc      1 <1>        0.000
     10 H          -3.0614   -2.1087   -2.5201 H.spc      1 <1>        0.000
     11 H          -4.9584   -1.5965   -0.9907 H.spc      1 <1>        0.000
     12 H          -4.9183    0.4736    0.3926 H.spc      1 <1>        0.000
@<TRIPOS>BOND
     1    1    2 1  
     2    2    3 ar 
     3    3    4 ar 
     4    4    5 ar 
     5    5    6 ar 
     6    6    7 ar 
     7    7    2 ar 
     8    3    8 1  
     9    4    9 1  
    10    5   10 1  
    11    6   11 1  
    12    7   12 1  
