# Name:          seed_class_5_531_24/34898
# Creation time: Fri May 21 00:57:20 2010


@<TRIPOS>MOLECULE
seed_class_5_531_24/34898
   13    13     1     1     1
SMALL
USER_CHARGES


@<TRIPOS>ATOM
      1 H           7.7556   -0.7709    0.8849 H.spc      1 <1>        0.000
      2 C           8.7419    0.2425    1.0971 C.3        1 <1>        0.000
      3 O           9.7312    0.1812    0.0663 O.3        1 <1>        0.000
      4 C          10.7121    1.2065    0.2445 C.3        1 <1>        0.000
      5 C          11.4073    1.1128    1.5817 C.2        1 <1>        0.000
      6 C          10.5938    0.5206    2.6671 C.2        1 <1>        0.000
      7 C           9.3359    0.0994    2.4779 C.2        1 <1>        0.000
      8 O          12.5620    1.4994    1.7557 O.2        1 <1>        0.000
      9 H          10.0617    2.5786    0.0929 H.spc      1 <1>        0.000
     10 H           8.2810    1.2289    1.0444 H.spc      1 <1>        0.000
     11 H          11.4707    1.0666   -0.5256 H.spc      1 <1>        0.000
     12 H          11.0351    0.4233    3.6590 H.spc      1 <1>        0.000
     13 H           8.7593   -0.3332    3.2955 H.spc      1 <1>        0.000
@<TRIPOS>BOND
     1    2    1 1  
     2    2    3 1  
     3    3    4 1  
     4    4    5 1  
     5    5    6 1  
     6    6    7 2  
     7    7    2 1  
     8    5    8 2  
     9    4    9 1  
    10    2   10 1  
    11    4   11 1  
    12    6   12 1  
    13    7   13 1  
