# Name:          seed_class_4_342_23/38664
# Creation time: Fri May 21 00:57:17 2010


@<TRIPOS>MOLECULE
seed_class_4_342_23/38664
   41    41     1     1     1
SMALL
USER_CHARGES


@<TRIPOS>ATOM
      1 H           1.5109    0.5505   -1.4166 H.spc      1 <1>        0.000
      2 C           1.8047    1.9352   -1.2132 C.3        1 <1>        0.000
      3 C           2.8175    2.3898   -2.2805 C.3        1 <1>        0.000
      4 C           2.9767    1.4247   -3.4703 C.3        1 <1>        0.000
      5 C           4.4407    1.2232   -3.9029 C.3        1 <1>        0.000
      6 C           4.8421   -0.2044   -4.1876 C.2        1 <1>        0.000
      7 O           5.9456   -0.8233   -3.7174 O.3        1 <1>        0.000
      8 C           5.9541   -2.1101   -3.0934 C.3        1 <1>        0.000
      9 C           6.7157   -2.2053   -1.7581 C.3        1 <1>        0.000
     10 C           5.9602   -3.0784   -0.7853 C.2        1 <1>        0.000
     11 C           5.4666   -2.9947    0.4580 C.2        1 <1>        0.000
     12 C           5.6186   -1.9598    1.5051 C.2        1 <1>        0.000
     13 C           4.8033   -1.4210    2.4219 C.2        1 <1>        0.000
     14 C           3.3772   -0.9810    2.1924 C.3        1 <1>        0.000
     15 C           3.1657    0.5413    2.0947 C.3        1 <1>        0.000
     16 C           2.0062    0.9322    1.1596 C.3        1 <1>        0.000
     17 C           2.2843    2.1333    0.2368 C.3        1 <1>        0.000
     18 H           1.6393    3.3887    0.8222 H.spc      1 <1>        0.000
     19 H           2.9261    1.1206    3.4860 H.spc      1 <1>        0.000
     20 H           2.9031   -1.5848    0.9860 H.spc      1 <1>        0.000
     21 H           4.5155   -2.5735   -2.8829 H.spc      1 <1>        0.000
     22 O           4.1031   -0.8565   -4.9067 O.2        1 <1>        0.000
     23 H           2.4142    0.1570   -3.1216 H.spc      1 <1>        0.000
     24 H           4.0929    2.5634   -1.6575 H.spc      1 <1>        0.000
     25 H           0.9228    2.5640   -1.3359 H.spc      1 <1>        0.000
     26 H           2.4256    3.3190   -2.6941 H.spc      1 <1>        0.000
     27 H           2.4549    1.8737   -4.3154 H.spc      1 <1>        0.000
     28 H           5.0598    1.5604   -3.0716 H.spc      1 <1>        0.000
     29 H           4.5682    1.7738   -4.8349 H.spc      1 <1>        0.000
     30 H           6.5025   -2.7552   -3.7799 H.spc      1 <1>        0.000
     31 H           6.8177   -1.2062   -1.3345 H.spc      1 <1>        0.000
     32 H           7.6981   -2.6415   -1.9390 H.spc      1 <1>        0.000
     33 H           5.7582   -4.0580   -1.2184 H.spc      1 <1>        0.000
     34 H           4.8421   -3.8390    0.7499 H.spc      1 <1>        0.000
     35 H           6.6239   -1.5398    1.5380 H.spc      1 <1>        0.000
     36 H           5.2067   -1.2881    3.4258 H.spc      1 <1>        0.000
     37 H           2.8221   -1.3018    3.0739 H.spc      1 <1>        0.000
     38 H           4.0747    0.9590    1.6618 H.spc      1 <1>        0.000
     39 H           1.1704    1.2159    1.7992 H.spc      1 <1>        0.000
     40 H           1.8245    0.0750    0.5113 H.spc      1 <1>        0.000
     41 H           3.3683    2.2364    0.1884 H.spc      1 <1>        0.000
@<TRIPOS>BOND
     1    2    1 1  
     2    2    3 1  
     3    3    4 1  
     4    4    5 1  
     5    5    6 1  
     6    6    7 1  
     7    7    8 1  
     8    8    9 1  
     9    9   10 1  
    10   10   11 2  
    11   11   12 1  
    12   12   13 2  
    13   13   14 1  
    14   14   15 1  
    15   15   16 1  
    16   16   17 1  
    17   17    2 1  
    18   17   18 1  
    19   15   19 1  
    20   14   20 1  
    21    8   21 1  
    22    6   22 2  
    23    4   23 1  
    24    3   24 1  
    25    2   25 1  
    26    3   26 1  
    27    4   27 1  
    28    5   28 1  
    29    5   29 1  
    30    8   30 1  
    31    9   31 1  
    32    9   32 1  
    33   10   33 1  
    34   11   34 1  
    35   12   35 1  
    36   13   36 1  
    37   14   37 1  
    38   15   38 1  
    39   16   39 1  
    40   16   40 1  
    41   17   41 1  
