# Name:          seed_class_4_288_34/38664
# Creation time: Fri May 21 00:57:16 2010


@<TRIPOS>MOLECULE
seed_class_4_288_34/38664
    9     9     1     1     1
SMALL
USER_CHARGES


@<TRIPOS>ATOM
      1 N           2.2503    1.2351   -0.0821 N.am       1 <1>        0.000
      2 N           1.7581    2.2196   -1.0261 N.2        1 <1>        0.000
      3 C           0.4408    2.1732   -0.9555 C.2        1 <1>        0.000
      4 N           0.0831    1.2342   -0.0390 N.am       1 <1>        0.000
      5 C           1.1776    0.6809    0.4756 C.2        1 <1>        0.000
      6 O           1.1953   -0.2171    1.3450 O.2        1 <1>        0.000
      7 H          -1.2458    0.8984    0.3122 H.spc      1 <1>        0.000
      8 H          -0.5128    3.0235   -1.7604 H.spc      1 <1>        0.000
      9 H           3.6036    0.9254    0.1914 H.spc      1 <1>        0.000
@<TRIPOS>BOND
     1    1    2 1  
     2    2    3 2  
     3    3    4 1  
     4    4    5 am 
     5    5    1 am 
     6    5    6 2  
     7    4    7 1  
     8    3    8 1  
     9    1    9 1  
