# Name:          seed_class_2_50_89/95646
# Creation time: Fri May 21 00:57:14 2010


@<TRIPOS>MOLECULE
seed_class_2_50_89/95646
   14    15     1     1     1
SMALL
USER_CHARGES


@<TRIPOS>ATOM
      1 S           1.4544    3.5019   -2.1385 S.3        1 <1>        0.000
      2 C           1.7887    2.1922   -0.9958 C.ar       1 <1>        0.000
      3 N           3.1037    2.0938   -0.9349 N.ar       1 <1>        0.000
      4 C           3.8658    2.9692   -1.7177 C.ar       1 <1>        0.000
      5 C           3.1454    3.8783   -2.5016 C.ar       1 <1>        0.000
      6 C           3.8246    4.7919   -3.3164 C.ar       1 <1>        0.000
      7 C           5.2243    4.7964   -3.3474 C.ar       1 <1>        0.000
      8 C           5.9447    3.8872   -2.5635 C.ar       1 <1>        0.000
      9 C           5.2655    2.9736   -1.7487 C.ar       1 <1>        0.000
     10 H           0.6037    1.2155   -0.1157 H.spc      1 <1>        0.000
     11 H           3.2637    5.4997   -3.9267 H.spc      1 <1>        0.000
     12 H           5.7531    5.5077   -3.9818 H.spc      1 <1>        0.000
     13 H           7.0344    3.8907   -2.5876 H.spc      1 <1>        0.000
     14 H           5.8264    2.2657   -1.1385 H.spc      1 <1>        0.000
@<TRIPOS>BOND
     1    1    2 ar 
     2    2    3 ar 
     3    3    4 ar 
     4    4    5 ar 
     5    5    1 ar 
     6    5    6 ar 
     7    6    7 ar 
     8    7    8 ar 
     9    8    9 ar 
    10    9    4 ar 
    11    2   10 1  
    12    6   11 1  
    13    7   12 1  
    14    8   13 1  
    15    9   14 1  
