# Name:          seed_class_5_545_22/34898
# Creation time: Fri May 21 00:57:20 2010


@<TRIPOS>MOLECULE
seed_class_5_545_22/34898
   12    12     1     1     1
SMALL
USER_CHARGES


@<TRIPOS>ATOM
      1 O           5.5314    0.1011    1.4922 O.3        1 <1>        0.000
      2 C           6.5854    1.0012    1.6307 C.2        1 <1>        0.000
      3 C           7.2233    1.1805    2.7954 C.2        1 <1>        0.000
      4 C           6.8068    0.4042    3.9847 C.2        1 <1>        0.000
      5 C           5.6837   -0.5410    3.7960 C.2        1 <1>        0.000
      6 C           5.1111   -0.6475    2.5893 C.2        1 <1>        0.000
      7 H           3.9663   -1.6160    2.4117 H.spc      1 <1>        0.000
      8 H           5.1882   -1.3770    4.9518 H.spc      1 <1>        0.000
      9 O           7.3648    0.5376    5.0727 O.2        1 <1>        0.000
     10 H           8.3605    2.1689    2.8940 H.spc      1 <1>        0.000
     11 O           6.9833    1.7277    0.5394 O.3        1 <1>        0.000
     12 H           6.2668    1.5470   -0.6849 H.spc      1 <1>        0.000
@<TRIPOS>BOND
     1    1    2 1  
     2    2    3 2  
     3    3    4 1  
     4    4    5 1  
     5    5    6 2  
     6    6    1 1  
     7    6    7 1  
     8    5    8 1  
     9    4    9 2  
    10    3   10 1  
    11    2   11 1  
    12   11   12 1  
