# Name:          seed_class_4_206_98/38664
# Creation time: Fri May 21 00:57:16 2010


@<TRIPOS>MOLECULE
seed_class_4_206_98/38664
   18    19     1     1     1
SMALL
USER_CHARGES


@<TRIPOS>ATOM
      1 H           0.4583   -2.6685    1.5459 H.spc      1 <1>        0.000
      2 C           1.8928   -2.7966    1.0353 C.3        1 <1>        0.000
      3 O           2.4961   -1.5033    0.9428 O.3        1 <1>        0.000
      4 C           3.8585   -1.5083    0.7991 C.ar       1 <1>        0.000
      5 C           4.6241   -2.6483    1.0716 C.ar       1 <1>        0.000
      6 C           6.0145   -2.6124    0.9122 C.ar       1 <1>        0.000
      7 C           6.6394   -1.4364    0.4803 C.ar       1 <1>        0.000
      8 C           5.8739   -0.2964    0.2078 C.ar       1 <1>        0.000
      9 C           4.4835   -0.3323    0.3672 C.ar       1 <1>        0.000
     10 O           4.0497   -3.8175    1.4960 O.3        1 <1>        0.000
     11 C           2.7081   -3.7020    1.9771 C.3        1 <1>        0.000
     12 H           1.8787   -3.2474    0.0430 H.spc      1 <1>        0.000
     13 H           6.6105   -3.5000    1.1244 H.spc      1 <1>        0.000
     14 H           7.7220   -1.4084    0.3562 H.spc      1 <1>        0.000
     15 H           6.3604    0.6192   -0.1285 H.spc      1 <1>        0.000
     16 H           3.8875    0.5553    0.1550 H.spc      1 <1>        0.000
     17 H           2.7196   -3.2659    2.9760 H.spc      1 <1>        0.000
     18 H           2.2510   -4.6909    2.0116 H.spc      1 <1>        0.000
@<TRIPOS>BOND
     1    1    2 1  
     2    2    3 1  
     3    3    4 1  
     4    4    5 ar 
     5    5    6 ar 
     6    6    7 ar 
     7    7    8 ar 
     8    8    9 ar 
     9    9    4 ar 
    10    5   10 1  
    11   10   11 1  
    12   11    2 1  
    13    2   12 1  
    14    6   13 1  
    15    7   14 1  
    16    8   15 1  
    17    9   16 1  
    18   11   17 1  
    19   11   18 1  
