#	Name:			1,3-dioxolane
#	Creating user name:	becker
#	Creation time:		Thu Dec 19 02:54:56 2002

#	Modifying user name:	zmliu
#	Modification time:	Thu Mar 11 17:07:05 2004

@<TRIPOS>MOLECULE
1,3-dioxolane
   11    11     1     1     0
SMALL
GAST_HUCK


@<TRIPOS>ATOM
      1 O1          0.5578    1.0937    0.4580 O.3       1 DIOXOLANE   -0.3241 
      2 C1          1.3890    0.0005    0.0554 C.3       1 DIOXOLANE    0.2941 
      3 O2          0.5579   -1.0912    0.4628 O.3       1 DIOXOLANE   -0.3241 
      4 C2         -0.7698   -0.7755    0.0246 C.3       1 DIOXOLANE    0.1770 
      5 C3         -0.7707    0.7752    0.0236 C.3       1 DIOXOLANE    0.1770 
      6 H1          2.3575    0.0017    0.5764 H.spc     1 DIOXOLANE   -1.0000 
      7 H2          1.5514   -0.0021   -1.0355 H.spc     1 DIOXOLANE   -1.0000 
      8 H3         -1.5113   -1.2169    0.7086 H.spc     1 DIOXOLANE   -1.0000 
      9 H4         -0.9234   -1.1756   -0.9912 H.spc     1 DIOXOLANE   -1.0000 
     10 H5         -0.9281    1.1736   -0.9923 H.spc     1 DIOXOLANE   -1.0000 
     11 H6         -1.5102    1.2167    0.7095 H.spc     1 DIOXOLANE   -1.0000 
@<TRIPOS>BOND
     1    1    2 1    
     2    1    5 1    
     3    2    3 1    
     4    3    4 1    
     5    4    5 1    
     6    2    6 1    
     7    2    7 1    
     8    4    8 1    
     9    4    9 1    
    10    5   10 1    
    11    5   11 1    
@<TRIPOS>SUBSTRUCTURE
     1 DIOXOLANE     1 PERM              0 ****  ****    0 ROOT 
@<TRIPOS>NORMAL
@<TRIPOS>FF_PBC
FORCE_FIELD_SETUP_FEATURE Force Field Setup information
v1.0  0 0.000000 0.000000 0.000000 0.000000 0.000000 0.000000 NONE 2 0 0 0 0 0 0 0 0 0 0 0 0
