# Name:          seed_class_2_57_60/95646
# Creation time: Fri May 21 00:57:14 2010


@<TRIPOS>MOLECULE
seed_class_2_57_60/95646
   14    15     1     1     1
SMALL
USER_CHARGES


@<TRIPOS>ATOM
      1 H           2.1519   -0.7224    1.5114 H.spc      1 <1>        0.000
      2 C           1.5101    0.5386    1.0772 C.ar       1 <1>        0.000
      3 N           0.8324    1.3576    1.8597 N.ar       1 <1>        0.000
      4 C           0.3744    2.4428    1.1014 C.ar       1 <1>        0.000
      5 C           0.8154    2.2418   -0.2120 C.ar       1 <1>        0.000
      6 O           1.5278    1.0447   -0.2205 O.3        1 <1>        0.000
      7 C           0.5039    3.1773   -1.2059 C.ar       1 <1>        0.000
      8 C          -0.2486    4.3137   -0.8864 C.ar       1 <1>        0.000
      9 C          -0.6897    4.5147    0.4270 C.ar       1 <1>        0.000
     10 C          -0.3782    3.5793    1.4209 C.ar       1 <1>        0.000
     11 H          -0.8445    3.7918    2.8094 H.spc      1 <1>        0.000
     12 H           0.8473    3.0208   -2.2285 H.spc      1 <1>        0.000
     13 H          -0.4911    5.0420   -1.6602 H.spc      1 <1>        0.000
     14 H          -1.2757    5.3995    0.6757 H.spc      1 <1>        0.000
@<TRIPOS>BOND
     1    1    2 1  
     2    2    3 ar 
     3    3    4 ar 
     4    4    5 ar 
     5    5    6 ar 
     6    6    2 ar 
     7    5    7 ar 
     8    7    8 ar 
     9    8    9 ar 
    10    9   10 ar 
    11   10    4 ar 
    12   10   11 1  
    13    7   12 1  
    14    8   13 1  
    15    9   14 1  
