# Name:          seed_class_4_217_75/38664
# Creation time: Fri May 21 00:57:16 2010


@<TRIPOS>MOLECULE
seed_class_4_217_75/38664
   13    13     1     1     1
SMALL
USER_CHARGES


@<TRIPOS>ATOM
      1 N           1.8776   -1.7173    1.6640 N.am       1 <1>        0.000
      2 C           0.8186   -1.9985    0.9101 C.2        1 <1>        0.000
      3 N           0.2365   -1.1115    0.1081 N.am       1 <1>        0.000
      4 C           0.6675    0.1413   -0.0086 C.2        1 <1>        0.000
      5 C           1.8665    0.5628    0.8067 C.3        1 <1>        0.000
      6 C           2.4522   -0.5180    1.6837 C.2        1 <1>        0.000
      7 O           3.4311   -0.2959    2.3946 O.2        1 <1>        0.000
      8 H           1.4946    1.7684    1.6686 H.spc      1 <1>        0.000
      9 H           2.9375    1.0940   -0.1158 H.spc      1 <1>        0.000
     10 O           0.1044    0.9354   -0.7606 O.2        1 <1>        0.000
     11 H          -0.9301   -1.5327   -0.6809 H.spc      1 <1>        0.000
     12 O           0.3466   -3.1550    0.9577 O.2        1 <1>        0.000
     13 H           2.2662   -2.4538    2.2530 H.spc      1 <1>        0.000
@<TRIPOS>BOND
     1    1    2 am 
     2    2    3 am 
     3    3    4 am 
     4    4    5 1  
     5    5    6 1  
     6    6    1 am 
     7    6    7 2  
     8    5    8 1  
     9    5    9 1  
    10    4   10 2  
    11    3   11 1  
    12    2   12 2  
    13    1   13 1  
