# Name:          seed_class_1_6_5597/603445
# Creation time: Fri May 21 00:57:11 2010


@<TRIPOS>MOLECULE
seed_class_1_6_5597/603445
    2     1     1     1     1
SMALL
USER_CHARGES


@<TRIPOS>ATOM
      1 H          -1.6991   -1.2103   -0.1211 H.spc      1 <1>        0.000
      2 F          -2.0235   -2.4290    0.3607 F          1 <1>        0.000
@<TRIPOS>BOND
     1    2    1 1  
