# Name:          seed_class_5_462_39/34898
# Creation time: Fri May 21 00:57:19 2010


@<TRIPOS>MOLECULE
seed_class_5_462_39/34898
   19    20     1     1     1
SMALL
USER_CHARGES


@<TRIPOS>ATOM
      1 H           5.1332   -0.3122    0.5753 H.spc      1 <1>        0.000
      2 C           3.6409   -0.4082    0.8893 C.3        1 <1>        0.000
      3 C           2.7011    0.1155   -0.2125 C.3        1 <1>        0.000
      4 N           2.2834    1.1447    0.7504 N.am       1 <1>        0.000
      5 C           0.9478    1.0425    0.9856 C.2        1 <1>        0.000
      6 C           0.3613    0.0534    0.2976 C.2        1 <1>        0.000
      7 C           1.4040   -0.6473   -0.5402 C.3        1 <1>        0.000
      8 S          -1.3576   -0.3640    0.3607 S.3        1 <1>        0.000
      9 H          -1.6696   -1.8114   -0.6978 H.spc      1 <1>        0.000
     10 C           0.2146    1.9356    1.9103 C.2        1 <1>        0.000
     11 O           0.7948    2.4446    2.8551 O.2        1 <1>        0.000
     12 O          -1.0672    2.1814    1.7128 O.3        1 <1>        0.000
     13 C           3.0830    0.7194    1.7244 C.2        1 <1>        0.000
     14 O           3.2903    1.1015    2.8750 O.2        1 <1>        0.000
     15 H           3.6437   -1.4463    1.2215 H.spc      1 <1>        0.000
     16 H           3.1424    0.2311   -1.2024 H.spc      1 <1>        0.000
     17 H           1.1663   -0.6293   -1.6038 H.spc      1 <1>        0.000
     18 H           1.4763   -1.7110   -0.3133 H.spc      1 <1>        0.000
     19 H          -1.3665    1.7072    0.9336 H.spc      1 <1>        0.000
@<TRIPOS>BOND
     1    1    2 1  
     2    2    3 1  
     3    3    4 1  
     4    4    5 1  
     5    5    6 2  
     6    6    7 1  
     7    7    3 1  
     8    6    8 1  
     9    8    9 1  
    10    5   10 1  
    11   10   11 2  
    12   10   12 1  
    13    4   13 am 
    14   13    2 1  
    15   13   14 2  
    16    2   15 1  
    17    3   16 1  
    18    7   17 1  
    19    7   18 1  
    20   12   19 1  
