# Name:          seed_class_3_117_41/26467
# Creation time: Fri May 21 00:57:15 2010


@<TRIPOS>MOLECULE
seed_class_3_117_41/26467
    6     5     1     1     1
SMALL
USER_CHARGES


@<TRIPOS>ATOM
      1 Br          5.5260   -1.5383   -1.0503 Br         1 <1>        0.000
      2 C           3.7520   -0.9677   -1.2995 C.2        1 <1>        0.000
      3 C           3.1371   -0.2553   -0.3455 C.2        1 <1>        0.000
      4 H           1.7123    0.2029   -0.5456 H.spc      1 <1>        0.000
      5 H           3.2237   -1.2163   -2.2199 H.spc      1 <1>        0.000
      6 H           3.6654   -0.0066    0.5749 H.spc      1 <1>        0.000
@<TRIPOS>BOND
     1    1    2 1  
     2    2    3 2  
     3    4    3 1  
     4    2    5 1  
     5    3    6 1  
