# Name:          seed_class_3_108_58/26467
# Creation time: Fri May 21 00:57:14 2010


@<TRIPOS>MOLECULE
seed_class_3_108_58/26467
    9     8     1     1     1
SMALL
USER_CHARGES


@<TRIPOS>ATOM
      1 N          -0.3548    0.3048    0.0985 N.am       1 <1>        0.000
      2 N          -1.6352    0.8805    0.4614 N.2        1 <1>        0.000
      3 C          -2.7893    0.3585    0.0900 C.2        1 <1>        0.000
      4 H          -4.0581    1.0017    0.4985 H.spc      1 <1>        0.000
      5 C           0.7718    0.8589    0.5375 C.2        1 <1>        0.000
      6 O           0.7266    1.8217    1.3016 O.2        1 <1>        0.000
      7 H           2.0798    0.3168    0.1066 H.spc      1 <1>        0.000
      8 H          -0.3181   -0.5251   -0.4934 H.spc      1 <1>        0.000
      9 H          -2.8079   -0.5463   -0.5176 H.spc      1 <1>        0.000
@<TRIPOS>BOND
     1    1    2 1  
     2    2    3 2  
     3    3    4 1  
     4    1    5 am 
     5    5    6 2  
     6    5    7 1  
     7    1    8 1  
     8    3    9 1  
