# Name:          seed_class_5_386_224/34898
# Creation time: Fri May 21 00:57:18 2010


@<TRIPOS>MOLECULE
seed_class_5_386_224/34898
   19    19     1     1     1
SMALL
USER_CHARGES


@<TRIPOS>ATOM
      1 N           3.2245    2.5862   -2.9392 N.pl3      1 <1>        0.000
      2 C           2.2026    2.0131   -2.2487 C.2        1 <1>        0.000
      3 C           1.9557    2.3207   -0.9680 C.2        1 <1>        0.000
      4 C           2.8742    3.3380   -0.3344 C.3        1 <1>        0.000
      5 C           4.2630    3.1811   -0.9061 C.2        1 <1>        0.000
      6 C           4.3382    2.8095   -2.1913 C.2        1 <1>        0.000
      7 H           5.6968    2.6340   -2.8266 H.spc      1 <1>        0.000
      8 C           5.4745    3.4243   -0.0915 C.2        1 <1>        0.000
      9 O           5.6471    4.5109    0.4356 O.2        1 <1>        0.000
     10 O           6.3886    2.4438    0.0681 O.3        1 <1>        0.000
     11 H           7.5213    2.7108    0.8992 H.spc      1 <1>        0.000
     12 H           2.9065    3.1436    1.1627 H.spc      1 <1>        0.000
     13 C           0.8438    1.6974   -0.2159 C.2        1 <1>        0.000
     14 O           1.0394    1.2483    0.9014 O.2        1 <1>        0.000
     15 O          -0.3869    1.6259   -0.7663 O.3        1 <1>        0.000
     16 H          -1.4395    1.0546    0.0150 H.spc      1 <1>        0.000
     17 H           1.3221    1.0026   -2.9441 H.spc      1 <1>        0.000
     18 H           3.5750    1.7286   -4.0805 H.spc      1 <1>        0.000
     19 H           2.5058    4.3413   -0.5483 H.spc      1 <1>        0.000
@<TRIPOS>BOND
     1    1    2 1  
     2    2    3 2  
     3    3    4 1  
     4    4    5 1  
     5    5    6 2  
     6    6    1 1  
     7    6    7 1  
     8    5    8 1  
     9    8    9 2  
    10    8   10 1  
    11   10   11 1  
    12    4   12 1  
    13    3   13 1  
    14   13   14 2  
    15   13   15 1  
    16   15   16 1  
    17    2   17 1  
    18    1   18 1  
    19    4   19 1  
