# Name:          seed_class_5_466_37/34898
# Creation time: Fri May 21 00:57:19 2010


@<TRIPOS>MOLECULE
seed_class_5_466_37/34898
   18    18     1     1     1
SMALL
USER_CHARGES


@<TRIPOS>ATOM
      1 H          -3.5225   -0.2423    0.9078 H.spc      1 <1>        0.000
      2 N          -4.7183    0.5736    1.1634 N.am       1 <1>        0.000
      3 C          -5.9284    0.0336    1.0497 C.2        1 <1>        0.000
      4 O          -6.0489   -1.1676    0.7256 O.2        1 <1>        0.000
      5 N          -7.0103    0.7718    1.2810 N.am       1 <1>        0.000
      6 C          -8.2978    0.1973    1.1601 C.ar       1 <1>        0.000
      7 C          -8.9672    0.2319   -0.0691 C.ar       1 <1>        0.000
      8 C         -10.2410   -0.3365   -0.1887 C.ar       1 <1>        0.000
      9 C         -10.8455   -0.9394    0.9208 C.ar       1 <1>        0.000
     10 C         -10.1762   -0.9740    2.1500 C.ar       1 <1>        0.000
     11 C          -8.9023   -0.4057    2.2696 C.ar       1 <1>        0.000
     12 H          -8.3152    0.8822   -1.2658 H.spc      1 <1>        0.000
     13 H          -4.6200    1.5538    1.4279 H.spc      1 <1>        0.000
     14 H          -6.9120    1.7520    1.5455 H.spc      1 <1>        0.000
     15 H         -10.7621   -0.3096   -1.1457 H.spc      1 <1>        0.000
     16 H         -11.8373   -1.3819    0.8276 H.spc      1 <1>        0.000
     17 H         -10.6469   -1.4434    3.0138 H.spc      1 <1>        0.000
     18 H          -8.3811   -0.4327    3.2266 H.spc      1 <1>        0.000
@<TRIPOS>BOND
     1    1    2 1  
     2    2    3 am 
     3    3    4 2  
     4    3    5 am 
     5    5    6 1  
     6    6    7 ar 
     7    7    8 ar 
     8    8    9 ar 
     9    9   10 ar 
    10   10   11 ar 
    11   11    6 ar 
    12    7   12 1  
    13    2   13 1  
    14    5   14 1  
    15    8   15 1  
    16    9   16 1  
    17   10   17 1  
    18   11   18 1  
