# Name:          seed_class_4_269_39/38664
# Creation time: Fri May 21 00:57:16 2010


@<TRIPOS>MOLECULE
seed_class_4_269_39/38664
   27    29     1     1     1
SMALL
USER_CHARGES


@<TRIPOS>ATOM
      1 H           4.0160   -1.2796    1.3130 H.spc      1 <1>        0.000
      2 C           4.2622   -0.1995    0.4087 C.3        1 <1>        0.000
      3 C           3.1896    0.8865    0.6130 C.3        1 <1>        0.000
      4 C           1.8119    0.3998    0.2320 C.ar       1 <1>        0.000
      5 C           1.6759   -0.6000   -0.7385 C.ar       1 <1>        0.000
      6 C           0.4026   -1.0576   -1.0984 C.ar       1 <1>        0.000
      7 C          -0.7345   -0.5154   -0.4877 C.ar       1 <1>        0.000
      8 C          -0.5985    0.4844    0.4827 C.ar       1 <1>        0.000
      9 C           0.6747    0.9420    0.8426 C.ar       1 <1>        0.000
     10 C          -1.7356    1.0266    1.0934 C.ar       1 <1>        0.000
     11 C          -3.0089    0.5690    0.7335 C.ar       1 <1>        0.000
     12 C          -3.1449   -0.4309   -0.2370 C.ar       1 <1>        0.000
     13 C          -2.0077   -0.9731   -0.8476 C.ar       1 <1>        0.000
     14 H          -2.1545   -2.0515   -1.8943 H.spc      1 <1>        0.000
     15 H          -4.1217    1.0995    1.3311 H.spc      1 <1>        0.000
     16 H           0.2695   -2.0360   -2.0480 H.spc      1 <1>        0.000
     17 C           2.8281   -1.2219   -1.4284 C.2        1 <1>        0.000
     18 C           4.1996   -0.7256   -1.0374 C.3        1 <1>        0.000
     19 H           5.2263   -1.8382   -1.2280 H.spc      1 <1>        0.000
     20 H           4.6502    0.3653   -2.0047 H.spc      1 <1>        0.000
     21 O           2.6763   -2.0989   -2.2773 O.2        1 <1>        0.000
     22 H           3.1925    1.3527    2.0661 H.spc      1 <1>        0.000
     23 H           5.2482    0.2252    0.5973 H.spc      1 <1>        0.000
     24 H           3.4370    1.7213   -0.0428 H.spc      1 <1>        0.000
     25 H           0.7806    1.7204    1.5982 H.spc      1 <1>        0.000
     26 H          -1.6296    1.8050    1.8490 H.spc      1 <1>        0.000
     27 H          -4.1362   -0.7872   -0.5172 H.spc      1 <1>        0.000
@<TRIPOS>BOND
     1    2    1 1  
     2    2    3 1  
     3    3    4 1  
     4    4    5 ar 
     5    5    6 ar 
     6    6    7 ar 
     7    7    8 ar 
     8    8    9 ar 
     9    9    4 ar 
    10    8   10 ar 
    11   10   11 ar 
    12   11   12 ar 
    13   12   13 ar 
    14   13    7 ar 
    15   13   14 1  
    16   11   15 1  
    17    6   16 1  
    18    5   17 1  
    19   17   18 1  
    20   18    2 1  
    21   18   19 1  
    22   18   20 1  
    23   17   21 2  
    24    3   22 1  
    25    2   23 1  
    26    3   24 1  
    27    9   25 1  
    28   10   26 1  
    29   12   27 1  
