# Name:          seed_class_4_243_52/38664
# Creation time: Fri May 21 00:57:16 2010


@<TRIPOS>MOLECULE
seed_class_4_243_52/38664
   36    39     1     1     1
SMALL
USER_CHARGES


@<TRIPOS>ATOM
      1 H          -4.9271   -0.3565    2.4317 H.spc      1 <1>        0.000
      2 C          -4.0008    0.2311    1.4532 C.3        1 <1>        0.000
      3 C          -2.6356    0.4935    2.1157 C.3        1 <1>        0.000
      4 C          -1.9369   -0.8486    2.4025 C.3        1 <1>        0.000
      5 C          -0.4980   -0.6906    2.8324 C.2        1 <1>        0.000
      6 C           0.1876    0.4499    2.6744 C.2        1 <1>        0.000
      7 C          -0.4126    1.6874    2.0511 C.3        1 <1>        0.000
      8 C          -1.7239    1.4195    1.2893 C.3        1 <1>        0.000
      9 C           0.5340    2.7502    1.4630 C.3        1 <1>        0.000
     10 C           2.0216    2.5022    1.5385 C.ar       1 <1>        0.000
     11 C           2.5347    1.3396    2.1258 C.ar       1 <1>        0.000
     12 C           3.9187    1.1358    2.1820 C.ar       1 <1>        0.000
     13 C           4.7895    2.0947    1.6508 C.ar       1 <1>        0.000
     14 C           4.2764    3.2573    1.0634 C.ar       1 <1>        0.000
     15 C           2.8925    3.4611    1.0072 C.ar       1 <1>        0.000
     16 H           6.1755    1.8907    1.7070 H.spc      1 <1>        0.000
     17 H           4.4208   -0.0019    2.7568 H.spc      1 <1>        0.000
     18 C           1.6591    0.2947    2.7021 C.2        1 <1>        0.000
     19 O           2.1580   -0.7096    3.2075 O.2        1 <1>        0.000
     20 H           0.1343   -1.7602    3.4093 H.spc      1 <1>        0.000
     21 C          -1.8400   -1.7420    1.1889 C.2        1 <1>        0.000
     22 C          -2.8866   -1.5625    0.1580 C.2        1 <1>        0.000
     23 C          -3.8842   -0.6724    0.2490 C.2        1 <1>        0.000
     24 H          -4.8066   -0.5813   -0.7598 H.spc      1 <1>        0.000
     25 H          -2.8279   -2.4189   -1.0476 H.spc      1 <1>        0.000
     26 O          -0.9414   -2.5725    1.0642 O.2        1 <1>        0.000
     27 H          -2.6872   -1.4997    3.4310 H.spc      1 <1>        0.000
     28 H          -4.3872    1.1899    1.1076 H.spc      1 <1>        0.000
     29 H          -2.8262    1.0210    3.0503 H.spc      1 <1>        0.000
     30 H          -0.7161    2.2604    2.9272 H.spc      1 <1>        0.000
     31 H          -1.4936    0.9393    0.3382 H.spc      1 <1>        0.000
     32 H          -2.2370    2.3655    1.1162 H.spc      1 <1>        0.000
     33 H           0.3621    3.6480    2.0568 H.spc      1 <1>        0.000
     34 H           0.3021    2.7837    0.3985 H.spc      1 <1>        0.000
     35 H           4.9544    4.0038    0.6498 H.spc      1 <1>        0.000
     36 H           2.4930    4.3663    0.5498 H.spc      1 <1>        0.000
@<TRIPOS>BOND
     1    1    2 1  
     2    2    3 1  
     3    3    4 1  
     4    4    5 1  
     5    5    6 2  
     6    6    7 1  
     7    7    8 1  
     8    8    3 1  
     9    7    9 1  
    10    9   10 1  
    11   10   11 ar 
    12   11   12 ar 
    13   12   13 ar 
    14   13   14 ar 
    15   14   15 ar 
    16   15   10 ar 
    17   13   16 1  
    18   12   17 1  
    19   11   18 1  
    20   18    6 1  
    21   18   19 2  
    22    5   20 1  
    23    4   21 1  
    24   21   22 1  
    25   22   23 2  
    26   23    2 1  
    27   23   24 1  
    28   22   25 1  
    29   21   26 2  
    30    4   27 1  
    31    2   28 1  
    32    3   29 1  
    33    7   30 1  
    34    8   31 1  
    35    8   32 1  
    36    9   33 1  
    37    9   34 1  
    38   14   35 1  
    39   15   36 1  
