# Name:          seed_class_2_27_507/95646
# Creation time: Fri May 21 00:57:13 2010


@<TRIPOS>MOLECULE
seed_class_2_27_507/95646
    8     8     1     1     1
SMALL
USER_CHARGES


@<TRIPOS>ATOM
      1 H           3.7466    0.5900   -0.4777 H.spc      1 <1>        0.000
      2 C           2.2769    0.5964   -0.4532 C.ar       1 <1>        0.000
      3 S           1.1962   -0.7535   -0.0753 S.3        1 <1>        0.000
      4 C          -0.3030    0.1621   -0.2918 C.ar       1 <1>        0.000
      5 N           0.0833    1.3803   -0.6224 N.ar       1 <1>        0.000
      6 C           1.4587    1.6256   -0.7121 C.ar       1 <1>        0.000
      7 H          -1.5772   -0.2913   -0.1486 H.spc      1 <1>        0.000
      8 H           1.8462    2.6085   -0.9802 H.spc      1 <1>        0.000
@<TRIPOS>BOND
     1    1    2 1  
     2    2    3 ar 
     3    3    4 ar 
     4    4    5 ar 
     5    5    6 ar 
     6    6    2 ar 
     7    4    7 1  
     8    6    8 1  
