#	Name:			phenazine
#	Creating user name:	becker
#	Creation time:		Thu Dec 19 02:54:59 2002

#	Modifying user name:	zmliu
#	Modification time:	Thu Mar 11 21:07:25 2004

@<TRIPOS>MOLECULE
phenazine
   22    24     1     1     0
SMALL
GAST_HUCK


@<TRIPOS>ATOM
      1 C1          2.3824    1.3991   -0.0012 C.ar      1 PHENAZINE    0.0297 
      2 C2          3.5928    0.6991    0.0006 C.ar      1 PHENAZINE    0.0182 
      3 C3          3.5926   -0.6993    0.0005 C.ar      1 PHENAZINE    0.0182 
      4 C4          2.3823   -1.3992   -0.0012 C.ar      1 PHENAZINE    0.0297 
      5 N1          0.0000   -1.3658    0.0007 N.ar      1 PHENAZINE   -0.2666 
      6 C5         -2.3824   -1.3991    0.0012 C.ar      1 PHENAZINE    0.0297 
      7 C6         -3.5928   -0.6991   -0.0006 C.ar      1 PHENAZINE    0.0182 
      8 C7         -3.5926    0.6993   -0.0005 C.ar      1 PHENAZINE    0.0182 
      9 C8         -2.3823    1.3992    0.0012 C.ar      1 PHENAZINE    0.0297 
     10 N2          0.0000    1.3658   -0.0007 N.ar      1 PHENAZINE   -0.2666 
     11 C9          1.1727    0.6994   -0.0008 C.ar      1 PHENAZINE    0.0855 
     12 C10         1.1726   -0.6995   -0.0005 C.ar      1 PHENAZINE    0.0855 
     13 C11        -1.1727   -0.6994    0.0008 C.ar      1 PHENAZINE    0.0855 
     14 C12        -1.1726    0.6995    0.0005 C.ar      1 PHENAZINE    0.0855 
     15 H1          2.3803    2.4844   -0.0027 H.spc     1 PHENAZINE   -1.0000 
     16 H2          4.5330    1.2417    0.0020 H.spc     1 PHENAZINE   -1.0000 
     17 H3          4.5329   -1.2418    0.0017 H.spc     1 PHENAZINE   -1.0000 
     18 H4          2.3800   -2.4844   -0.0030 H.spc     1 PHENAZINE   -1.0000 
     19 H5         -2.3803   -2.4844    0.0027 H.spc     1 PHENAZINE   -1.0000 
     20 H6         -4.5330   -1.2417   -0.0020 H.spc     1 PHENAZINE   -1.0000 
     21 H7         -4.5329    1.2418   -0.0017 H.spc     1 PHENAZINE   -1.0000 
     22 H8         -2.3800    2.4844    0.0030 H.spc     1 PHENAZINE   -1.0000 
@<TRIPOS>BOND
     1    2    1 ar   
     2    1   11 ar   
     3    3    2 ar   
     4    4    3 ar   
     5   12    4 ar   
     6    5   12 ar   
     7   13    5 ar   
     8    6    7 ar   
     9    6   13 ar   
    10    7    8 ar   
    11    8    9 ar   
    12    9   14 ar   
    13   11   10 ar   
    14   10   14 ar   
    15   11   12 ar   
    16   13   14 ar   
    17    1   15 1    
    18    2   16 1    
    19    3   17 1    
    20    4   18 1    
    21    6   19 1    
    22    7   20 1    
    23    8   21 1    
    24    9   22 1    
@<TRIPOS>SUBSTRUCTURE
     1 PHENAZINE     6 PERM              0 ****  ****    0 ROOT 
@<TRIPOS>NORMAL
@<TRIPOS>FF_PBC
FORCE_FIELD_SETUP_FEATURE Force Field Setup information
v1.0  0 0.000000 0.000000 0.000000 0.000000 0.000000 0.000000 NONE 2 0 0 0 0 0 0 0 0 0 0 0 0
