MODEL 1
REMARK VINA RESULT:    -6.422      0.000      0.000
REMARK INTER + INTRA:          -7.852
REMARK INTER:                  -7.548
REMARK INTRA:                  -0.303
REMARK UNBOUND:                -0.303
REMARK  Name = =
REMARK  3 active torsions:
REMARK  status: ('A' for Active; 'I' for Inactive)
REMARK    1  A    between atoms: N_1  and  C_20
REMARK    2  A    between atoms: C_6  and  N_7
REMARK    3  A    between atoms: C_16  and  C_27
REMARK                            x       y       z     vdW  Elec       q    Type
REMARK                         _______ _______ _______ _____ _____    ______ ____
ROOT
ATOM      1  N   UNL     1      59.948 161.376  40.408  0.00  0.00    -0.257 NA
ATOM      2  C   UNL     1      60.792 162.421  40.956  0.00  0.00    +0.092 C 
ATOM      3  C   UNL     1      60.228 163.148  42.134  0.00  0.00    +0.106 C 
ATOM      4  N   UNL     1      59.695 162.190  43.028  0.00  0.00    -0.213 NA
ATOM      5  C   UNL     1      60.104 160.881  42.818  0.00  0.00    +0.126 C 
ATOM      6  C   UNL     1      59.544 160.450  41.424  0.00  0.00    +0.162 C 
ENDROOT
BRANCH   6   7
ATOM      7  N   UNL     1      58.158 160.246  41.632  0.00  0.00    -0.200 N 
ATOM      8  C   UNL     1      57.720 158.935  42.068  0.00  0.00    +0.316 C 
ATOM      9  O   UNL     1      58.544 158.006  42.263  0.00  0.00    -0.252 OA
ATOM     10  N   UNL     1      56.350 158.631  42.298  0.00  0.00    -0.239 N 
ATOM     11  C   UNL     1      55.350 159.610  42.107  0.00  0.00    +0.239 C 
ATOM     12  O   UNL     1      54.168 159.323  41.914  0.00  0.00    -0.274 OA
ATOM     13  C   UNL     1      55.791 161.030  42.148  0.00  0.00    +0.171 C 
ATOM     14  C   UNL     1      57.117 161.176  41.457  0.00  0.00    +0.243 C 
ATOM     15  O   UNL     1      57.274 162.157  40.711  0.00  0.00    -0.274 OA
ATOM     16  H   UNL     1      56.095 157.727  42.593  0.00  0.00    +0.159 HD
ENDBRANCH   6   7
BRANCH   1  21
ATOM     17  C   UNL     1      61.455 161.325  38.426  0.00  0.00    +0.015 C 
ATOM     18  C   UNL     1      60.520 161.795  37.561  0.00  0.00    +0.001 C 
ATOM     19  C   UNL     1      59.156 161.337  38.040  0.00  0.00    +0.001 C 
ATOM     20  C   UNL     1      59.628 159.943  38.589  0.00  0.00    +0.016 C 
ATOM     21  C   UNL     1      60.764 160.577  39.470  0.00  0.00    +0.059 C 
BRANCH  17  28
ATOM     22  C   UNL     1      63.425 162.912  38.674  0.00  0.00    +0.000 C 
ATOM     23  C   UNL     1      64.887 163.047  38.179  0.00  0.00    +0.000 C 
ATOM     24  C   UNL     1      65.745 162.359  39.196  0.00  0.00    +0.000 C 
ATOM     25  C   UNL     1      66.191 161.002  38.677  0.00  0.00    +0.000 C 
ATOM     26  C   UNL     1      65.011 160.184  38.205  0.00  0.00    +0.000 C 
ATOM     27  C   UNL     1      63.744 160.526  38.911  0.00  0.00    +0.000 C 
ATOM     28  C   UNL     1      62.921 161.606  38.206  0.00  0.00    +0.001 C 
ENDBRANCH  17  28
ENDBRANCH   1  21
TORSDOF 3
ENDMDL
