REMARK  Name = =
REMARK  6 active torsions:
REMARK  status: ('A' for Active; 'I' for Inactive)
REMARK    1  A    between atoms: C_1  and  C_2
REMARK    2  A    between atoms: C_1  and  N_15
REMARK    3  A    between atoms: C_3  and  O_14
REMARK    4  A    between atoms: N_15  and  O_16
REMARK    5  A    between atoms: O_16  and  C_17
REMARK    6  A    between atoms: C_18  and  C_23
REMARK                            x       y       z     vdW  Elec       q    Type
REMARK                         _______ _______ _______ _____ _____    ______ ____
ROOT
ATOM      1  C   UNL     1      -9.054 -41.829  29.252  0.00  0.00    +0.142 C 
ENDROOT
BRANCH   1   2
ATOM      2  C   UNL     1     -10.439 -42.268  29.553  0.00  0.00    +0.073 C 
ATOM      3  C   UNL     1     -10.810 -42.496  30.803  0.00  0.00    +0.173 C 
ATOM      4  C   UNL     1     -12.180 -42.921  31.059  0.00  0.00    +0.229 C 
ATOM      5  O   UNL     1     -12.549 -43.142  32.220  0.00  0.00    -0.283 OA
ATOM      6  C   UNL     1     -13.148 -43.102  29.984  0.00  0.00    +0.045 C 
ATOM      7  C   UNL     1     -12.771 -42.866  28.674  0.00  0.00    +0.042 C 
ATOM      8  C   UNL     1     -13.660 -43.015  27.618  0.00  0.00    +0.003 C 
ATOM      9  C   UNL     1     -14.967 -43.409  27.845  0.00  0.00    +0.000 C 
ATOM     10  C   UNL     1     -15.341 -43.643  29.150  0.00  0.00    +0.000 C 
ATOM     11  C   UNL     1     -14.459 -43.497  30.218  0.00  0.00    +0.003 C 
ATOM     12  C   UNL     1     -11.401 -42.444  28.448  0.00  0.00    +0.196 C 
ATOM     13  O   UNL     1     -11.046 -42.226  27.267  0.00  0.00    -0.287 OA
BRANCH   3  14
ATOM     14  O   UNL     1      -9.933 -42.342  31.880  0.00  0.00    -0.503 OA
ATOM     15  H   UNL     1      -9.049 -42.069  31.729  0.00  0.00    +0.292 HD
ENDBRANCH   3  14
ENDBRANCH   1   2
BRANCH   1  16
ATOM     16  N   UNL     1      -8.252 -42.846  28.638  0.00  0.00    -0.140 NA
ATOM     17  H   UNL     1      -7.914 -42.498  27.741  0.00  0.00    +0.168 HD
BRANCH  16  18
ATOM     18  O   UNL     1      -7.206 -43.191  29.381  0.00  0.00    -0.405 OA
BRANCH  18  19
ATOM     19  C   UNL     1      -7.007 -43.420  30.701  0.00  0.00    +0.164 C 
ATOM     20  C   UNL     1      -7.208 -44.628  31.333  0.00  0.00    +0.033 C 
ATOM     21  C   UNL     1      -6.962 -44.745  32.699  0.00  0.00    +0.098 C 
ATOM     22  N   UNL     1      -6.534 -43.663  33.381  0.00  0.00    -0.242 NA
ATOM     23  C   UNL     1      -6.331 -42.477  32.790  0.00  0.00    +0.102 C 
ATOM     24  C   UNL     1      -6.554 -42.314  31.457  0.00  0.00    +0.060 C 
BRANCH  20  25
ATOM     25  C   UNL     1      -7.730 -45.766  30.555  0.00  0.00    +0.027 C 
ATOM     26  C   UNL     1      -8.900 -45.309  29.719  0.00  0.00    +0.005 C 
ATOM     27  C   UNL     1      -9.984 -45.871  30.192  0.00  0.00    +0.000 C 
ATOM     28  C   UNL     1      -9.734 -46.746  31.354  0.00  0.00    +0.000 C 
ATOM     29  C   UNL     1      -8.236 -46.895  31.386  0.00  0.00    +0.005 C 
ENDBRANCH  20  25
ENDBRANCH  18  19
ENDBRANCH  16  18
ENDBRANCH   1  16
TORSDOF 6
