MODEL 1
REMARK VINA RESULT:    -9.334      0.000      0.000
REMARK INTER + INTRA:         -15.526
REMARK INTER:                 -13.700
REMARK INTRA:                  -1.826
REMARK UNBOUND:                -1.826
REMARK  Name = =
REMARK  8 active torsions:
REMARK  status: ('A' for Active; 'I' for Inactive)
REMARK    1  A    between atoms: N_1  and  N_43
REMARK    2  A    between atoms: C_2  and  C_24
REMARK    3  A    between atoms: C_3  and  N_6
REMARK    4  A    between atoms: C_11  and  N_14
REMARK    5  A    between atoms: N_14  and  C_15
REMARK    6  A    between atoms: C_18  and  C_21
REMARK    7  A    between atoms: C_26  and  C_30
REMARK    8  A    between atoms: C_29  and  C_37
REMARK                            x       y       z     vdW  Elec       q    Type
REMARK                         _______ _______ _______ _____ _____    ______ ____
ROOT
ATOM      1  N   UNL     1      -0.321  -6.170  31.814  0.00  0.00    -0.214 NA
ATOM      2  C   UNL     1      -1.228  -6.183  30.620  0.00  0.00    +0.106 C 
ATOM      3  C   UNL     1      -0.662  -7.273  29.899  0.00  0.00    +0.080 C 
ATOM      4  C   UNL     1      -0.316  -8.164  30.891  0.00  0.00    +0.037 C 
ATOM      5  C   UNL     1      -0.693  -7.572  32.207  0.00  0.00    +0.091 C 
ENDROOT
BRANCH   3   6
ATOM      6  N   UNL     1      -0.439  -7.683  28.559  0.00  0.00    -0.255 NA
ATOM      7  C   UNL     1      -0.909  -8.831  27.878  0.00  0.00    +0.095 C 
ATOM      8  C   UNL     1       0.278  -9.745  27.667  0.00  0.00    +0.111 C 
ATOM      9  N   UNL     1       1.331  -8.972  27.036  0.00  0.00    -0.268 N 
ATOM     10  C   UNL     1       1.045  -7.606  26.580  0.00  0.00    +0.130 C 
ATOM     11  C   UNL     1       0.412  -6.799  27.717  0.00  0.00    +0.151 C 
ATOM     12  C   UNL     1       2.631  -9.486  26.841  0.00  0.00    +0.303 C 
ATOM     13  O   UNL     1       2.900 -10.643  27.219  0.00  0.00    -0.265 OA
BRANCH  11  14
ATOM     14  N   UNL     1       1.430  -6.202  28.535  0.00  0.00    -0.320 N 
ATOM     15  H   UNL     1       1.384  -6.312  29.512  0.00  0.00    +0.148 HD
BRANCH  14  16
ATOM     16  C   UNL     1       2.498  -5.457  27.977  0.00  0.00    +0.046 C 
ATOM     17  C   UNL     1       3.527  -4.999  28.759  0.00  0.00    +0.014 C 
ATOM     18  C   UNL     1       4.577  -4.262  28.252  0.00  0.00    +0.006 C 
ATOM     19  C   UNL     1       4.593  -3.975  26.913  0.00  0.00    +0.053 C 
ATOM     20  C   UNL     1       3.577  -4.418  26.096  0.00  0.00    +0.006 C 
ATOM     21  C   UNL     1       2.524  -5.163  26.634  0.00  0.00    +0.014 C 
BRANCH  19  22
ATOM     22  C   UNL     1       5.696  -3.197  26.371  0.00  0.00    +0.243 C 
ATOM     23  O   UNL     1       6.407  -3.707  25.461  0.00  0.00    -0.270 OA
ATOM     24  N   UNL     1       5.971  -1.881  26.860  0.00  0.00    -0.325 N 
ATOM     25  H   UNL     1       5.411  -1.492  27.569  0.00  0.00    +0.145 HD
ATOM     26  H   UNL     1       6.721  -1.363  26.485  0.00  0.00    +0.145 HD
ENDBRANCH  19  22
ENDBRANCH  14  16
ENDBRANCH  11  14
ENDBRANCH   3   6
BRANCH   2  27
ATOM     27  C   UNL     1      -1.529  -4.866  30.165  0.00  0.00    -0.027 C 
ATOM     28  C   UNL     1      -0.469  -4.049  29.896  0.00  0.00    -0.026 C 
ATOM     29  C   UNL     1      -0.625  -2.676  29.418  0.00  0.00    +0.070 C 
ATOM     30  C   UNL     1      -1.867  -2.500  28.624  0.00  0.00    -0.024 C 
ATOM     31  C   UNL     1      -2.895  -3.241  28.862  0.00  0.00    -0.027 C 
ATOM     32  C   UNL     1      -2.842  -4.288  29.946  0.00  0.00    +0.041 C 
BRANCH  29  33
ATOM     33  C   UNL     1       0.496  -2.394  28.403  0.00  0.00    +0.124 C 
ATOM     34  O   UNL     1      -0.147  -2.323  27.155  0.00  0.00    -0.348 OA
ATOM     35  C   UNL     1       0.333  -1.340  26.331  0.00  0.00    +0.206 C 
ATOM     36  C   UNL     1       1.842  -1.316  26.340  0.00  0.00    +0.180 C 
ATOM     37  O   UNL     1       2.490  -1.425  25.318  0.00  0.00    -0.293 OA
ATOM     38  C   UNL     1       2.453  -1.153  27.687  0.00  0.00    +0.070 C 
ATOM     39  C   UNL     1       1.286  -1.172  28.690  0.00  0.00    +0.038 C 
ENDBRANCH  29  33
BRANCH  32  40
ATOM     40  C   UNL     1      -3.580  -3.674  31.087  0.00  0.00    +0.008 C 
ATOM     41  C   UNL     1      -4.782  -2.873  30.748  0.00  0.00    +0.001 C 
ATOM     42  C   UNL     1      -5.323  -2.229  32.002  0.00  0.00    +0.000 C 
ATOM     43  C   UNL     1      -5.709  -3.324  32.979  0.00  0.00    +0.000 C 
ATOM     44  C   UNL     1      -4.449  -4.127  33.315  0.00  0.00    +0.000 C 
ATOM     45  C   UNL     1      -4.008  -4.803  32.037  0.00  0.00    +0.001 C 
ENDBRANCH  32  40
ENDBRANCH   2  27
BRANCH   1  46
ATOM     46  N   UNL     1       0.959  -6.304  31.627  0.00  0.00    -0.215 NA
ATOM     47  C   UNL     1       2.032  -7.022  32.119  0.00  0.00    +0.108 C 
ATOM     48  C   UNL     1       2.113  -5.544  31.690  0.00  0.00    +0.108 C 
ENDBRANCH   1  46
TORSDOF 8
ENDMDL
