REMARK  Name = =
REMARK  4 active torsions:
REMARK  status: ('A' for Active; 'I' for Inactive)
REMARK    1  A    between atoms: C_1  and  C_2
REMARK    2  A    between atoms: C_1  and  C_5
REMARK    3  A    between atoms: C_2  and  O_4
REMARK    4  A    between atoms: C_5  and  O_6
REMARK                            x       y       z     vdW  Elec       q    Type
REMARK                         _______ _______ _______ _____ _____    ______ ____
ROOT
ATOM      1  C   UNL     1      52.453 153.594  28.537  0.00  0.00    +0.141 C 
ENDROOT
BRANCH   1   2
ATOM      2  C   UNL     1      52.008 155.014  28.574  0.00  0.00    +0.316 C 
ATOM      3  O   UNL     1      52.839 155.942  28.361  0.00  0.00    -0.250 OA
BRANCH   2   4
ATOM      4  O   UNL     1      50.705 155.402  28.834  0.00  0.00    -0.480 OA
ATOM      5  H   UNL     1      50.048 154.755  28.999  0.00  0.00    +0.295 HD
ENDBRANCH   2   4
ENDBRANCH   1   2
BRANCH   1   6
ATOM      6  C   UNL     1      52.396 153.169  27.061  0.00  0.00    +0.149 C 
BRANCH   6   7
ATOM      7  O   UNL     1      51.692 154.109  26.329  0.00  0.00    -0.381 OA
ATOM      8  H   UNL     1      51.659 153.836  25.399  0.00  0.00    +0.210 HD
ENDBRANCH   6   7
ENDBRANCH   1   6
TORSDOF 4
