REMARK  Name = =
REMARK  6 active torsions:
REMARK  status: ('A' for Active; 'I' for Inactive)
REMARK    1  A    between atoms: O_1  and  C_2
REMARK    2  A    between atoms: O_1  and  C_7
REMARK    3  A    between atoms: C_2  and  C_4
REMARK    4  A    between atoms: C_4  and  C_5
REMARK    5  A    between atoms: C_5  and  O_6
REMARK    6  A    between atoms: C_8  and  N_9
REMARK                            x       y       z     vdW  Elec       q    Type
REMARK                         _______ _______ _______ _____ _____    ______ ____
ROOT
ATOM      1  O   UNL     1      52.631 154.509  24.526  0.00  0.00    -0.420 OA
ENDROOT
BRANCH   1   2
ATOM      2  C   UNL     1      53.184 155.493  25.321  0.00  0.00    +0.324 C 
ATOM      3  O   UNL     1      54.170 156.126  24.874  0.00  0.00    -0.250 OA
BRANCH   2   4
ATOM      4  C   UNL     1      52.679 155.838  26.670  0.00  0.00    +0.142 C 
BRANCH   4   5
ATOM      5  C   UNL     1      53.482 156.945  27.260  0.00  0.00    +0.149 C 
BRANCH   5   6
ATOM      6  O   UNL     1      53.350 157.002  28.640  0.00  0.00    -0.381 OA
ATOM      7  H   UNL     1      53.886 157.733  28.986  0.00  0.00    +0.210 HD
ENDBRANCH   5   6
ENDBRANCH   4   5
ENDBRANCH   2   4
ENDBRANCH   1   2
BRANCH   1   8
ATOM      8  C   UNL     1      53.439 153.686  23.773  0.00  0.00    +0.199 C 
ATOM      9  C   UNL     1      53.815 152.469  24.031  0.00  0.00    +0.106 C 
BRANCH   9  10
ATOM     10  N   UNL     1      53.513 151.677  25.110  0.00  0.00    -0.273 N 
ATOM     11  C   UNL     1      53.608 150.289  25.202  0.00  0.00    +0.304 C 
ATOM     12  O   UNL     1      53.992 149.530  24.293  0.00  0.00    -0.265 OA
ATOM     13  H   UNL     1      53.191 152.144  25.915  0.00  0.00    +0.155 HD
ENDBRANCH   9  10
ENDBRANCH   1   8
TORSDOF 6
