REMARK  Name = =
REMARK  8 active torsions:
REMARK  status: ('A' for Active; 'I' for Inactive)
REMARK    1  A    between atoms: C_1  and  C_3
REMARK    2  A    between atoms: C_1  and  O_8
REMARK    3  A    between atoms: C_3  and  C_4
REMARK    4  A    between atoms: C_4  and  O_5
REMARK    5  A    between atoms: C_4  and  O_6
REMARK    6  A    between atoms: O_6  and  N_7
REMARK    7  A    between atoms: O_8  and  C_9
REMARK    8  A    between atoms: C_10  and  N_11
REMARK                            x       y       z     vdW  Elec       q    Type
REMARK                         _______ _______ _______ _____ _____    ______ ____
ROOT
ATOM      1  C   UNL     1      51.976 153.710  26.479  0.00  0.00    +0.327 C 
ATOM      2  O   UNL     1      51.458 152.616  26.139  0.00  0.00    -0.250 OA
ENDROOT
BRANCH   1   3
ATOM      3  C   UNL     1      52.504 153.897  27.855  0.00  0.00    +0.172 C 
BRANCH   3   4
ATOM      4  C   UNL     1      53.934 153.421  27.982  0.00  0.00    +0.262 C 
BRANCH   4   5
ATOM      5  O   UNL     1      54.289 153.213  29.308  0.00  0.00    -0.359 OA
ATOM      6  H   UNL     1      54.108 154.016  29.821  0.00  0.00    +0.213 HD
ENDBRANCH   4   5
BRANCH   4   7
ATOM      7  O   UNL     1      54.192 152.282  27.264  0.00  0.00    -0.261 OA
BRANCH   7   8
ATOM      8  N   UNL     1      54.998 152.568  26.218  0.00  0.00    -0.211 NA
ATOM      9  H   UNL     1      55.185 151.716  25.690  0.00  0.00    +0.150 HD
ATOM     10  H   UNL     1      55.877 152.954  26.562  0.00  0.00    +0.150 HD
ENDBRANCH   7   8
ENDBRANCH   4   7
ENDBRANCH   3   4
ENDBRANCH   1   3
BRANCH   1  11
ATOM     11  O   UNL     1      52.064 154.755  25.582  0.00  0.00    -0.419 OA
BRANCH  11  12
ATOM     12  C   UNL     1      53.233 155.495  25.398  0.00  0.00    +0.199 C 
ATOM     13  C   UNL     1      54.137 155.088  24.537  0.00  0.00    +0.106 C 
BRANCH  13  14
ATOM     14  N   UNL     1      55.322 155.831  24.344  0.00  0.00    -0.273 N 
ATOM     15  C   UNL     1      55.332 157.174  23.881  0.00  0.00    +0.304 C 
ATOM     16  O   UNL     1      54.241 157.773  23.616  0.00  0.00    -0.265 OA
ATOM     17  H   UNL     1      56.184 155.397  24.540  0.00  0.00    +0.155 HD
ENDBRANCH  13  14
ENDBRANCH  11  12
ENDBRANCH   1  11
TORSDOF 8
