REMARK  Name = =
REMARK  8 active torsions:
REMARK  status: ('A' for Active; 'I' for Inactive)
REMARK    1  A    between atoms: C_1  and  O_2
REMARK    2  A    between atoms: C_1  and  O_3
REMARK    3  A    between atoms: C_1  and  C_11
REMARK    4  A    between atoms: O_3  and  N_10
REMARK    5  A    between atoms: C_11  and  C_12
REMARK    6  A    between atoms: C_12  and  O_14
REMARK    7  A    between atoms: O_14  and  C_15
REMARK    8  A    between atoms: C_16  and  N_17
REMARK                            x       y       z     vdW  Elec       q    Type
REMARK                         _______ _______ _______ _____ _____    ______ ____
ROOT
ATOM      1  C   UNL     1      52.390 155.739  27.753  0.00  0.00    +0.269 C 
ENDROOT
BRANCH   1   2
ATOM      2  O   UNL     1      53.272 155.166  28.689  0.00  0.00    -0.358 OA
ATOM      3  H   UNL     1      53.464 154.250  28.434  0.00  0.00    +0.213 HD
ENDBRANCH   1   2
BRANCH   1   4
ATOM      4  O   UNL     1      52.062 157.037  28.034  0.00  0.00    -0.231 OA
BRANCH   4  11
ATOM      5  C   UNL     1      50.159 158.099  30.439  0.00  0.00    +0.137 C 
ATOM      6  N   UNL     1      49.369 159.058  30.981  0.00  0.00    -0.237 NA
ATOM      7  C   UNL     1      49.782 160.327  30.978  0.00  0.00    +0.120 C 
ATOM      8  C   UNL     1      50.999 160.657  30.431  0.00  0.00    +0.121 C 
ATOM      9  N   UNL     1      51.779 159.682  29.893  0.00  0.00    -0.222 NA
ATOM     10  C   UNL     1      51.383 158.397  29.883  0.00  0.00    +0.179 C 
ATOM     11  N   UNL     1      52.195 157.394  29.320  0.00  0.00    -0.243 N 
ATOM     12  H   UNL     1      52.871 156.948  29.879  0.00  0.00    +0.196 HD
ENDBRANCH   4  11
ENDBRANCH   1   4
BRANCH   1  13
ATOM     13  C   UNL     1      51.182 154.793  27.737  0.00  0.00    +0.173 C 
BRANCH  13  14
ATOM     14  C   UNL     1      51.566 153.669  28.670  0.00  0.00    +0.327 C 
ATOM     15  O   UNL     1      51.485 153.781  29.928  0.00  0.00    -0.250 OA
BRANCH  14  16
ATOM     16  O   UNL     1      52.022 152.461  28.169  0.00  0.00    -0.419 OA
BRANCH  16  17
ATOM     17  C   UNL     1      52.227 152.324  26.777  0.00  0.00    +0.199 C 
ATOM     18  C   UNL     1      53.291 152.783  26.192  0.00  0.00    +0.106 C 
BRANCH  18  19
ATOM     19  N   UNL     1      53.624 152.719  24.837  0.00  0.00    -0.273 N 
ATOM     20  C   UNL     1      54.330 153.712  24.136  0.00  0.00    +0.304 C 
ATOM     21  O   UNL     1      54.721 154.754  24.691  0.00  0.00    -0.265 OA
ATOM     22  H   UNL     1      53.344 151.919  24.336  0.00  0.00    +0.155 HD
ENDBRANCH  18  19
ENDBRANCH  16  17
ENDBRANCH  14  16
ENDBRANCH  13  14
ENDBRANCH   1  13
TORSDOF 8
