REMARK  Name = =
REMARK  10 active torsions:
REMARK  status: ('A' for Active; 'I' for Inactive)
REMARK    1  A    between atoms: N_1  and  S_9
REMARK    2  A    between atoms: N_8  and  O_13
REMARK    3  A    between atoms: S_9  and  N_12
REMARK    4  A    between atoms: O_13  and  C_14
REMARK    5  A    between atoms: C_14  and  O_15
REMARK    6  A    between atoms: C_14  and  C_16
REMARK    7  A    between atoms: C_16  and  C_17
REMARK    8  A    between atoms: C_17  and  O_19
REMARK    9  A    between atoms: O_19  and  C_20
REMARK   10  A    between atoms: C_21  and  N_22
REMARK                            x       y       z     vdW  Elec       q    Type
REMARK                         _______ _______ _______ _____ _____    ______ ____
ROOT
ATOM      1  N   UNL     1      53.697 160.338  30.109  0.00  0.00    -0.187 N 
ATOM      2  C   UNL     1      52.323 160.039  30.293  0.00  0.00    +0.184 C 
ATOM      3  N   UNL     1      51.526 160.898  30.983  0.00  0.00    -0.223 NA
ATOM      4  C   UNL     1      50.226 160.656  31.181  0.00  0.00    +0.121 C 
ATOM      5  C   UNL     1      49.697 159.499  30.664  0.00  0.00    +0.121 C 
ATOM      6  N   UNL     1      50.455 158.631  29.978  0.00  0.00    -0.221 NA
ATOM      7  C   UNL     1      51.785 158.888  29.782  0.00  0.00    +0.193 C 
ATOM      8  N   UNL     1      52.583 157.966  29.055  0.00  0.00    -0.242 N 
ATOM      9  H   UNL     1      54.296 159.734  29.614  0.00  0.00    +0.176 HD
ATOM     10  H   UNL     1      53.539 158.154  28.914  0.00  0.00    +0.196 HD
ENDROOT
BRANCH   1  11
ATOM     11  S   UNL     1      54.272 161.835  30.806  0.00  0.00    +0.108 S 
ATOM     12  O   UNL     1      53.287 162.895  30.450  0.00  0.00    -0.138 OA
ATOM     13  O   UNL     1      55.625 162.172  30.247  0.00  0.00    -0.138 OA
BRANCH  11  14
ATOM     14  N   UNL     1      54.297 161.634  32.499  0.00  0.00    -0.191 NA
ATOM     15  H   UNL     1      53.359 161.407  32.828  0.00  0.00    +0.146 HD
ATOM     16  H   UNL     1      54.612 162.498  32.939  0.00  0.00    +0.146 HD
ENDBRANCH  11  14
ENDBRANCH   1  11
BRANCH   8  17
ATOM     17  O   UNL     1      52.035 156.817  28.547  0.00  0.00    -0.231 OA
BRANCH  17  18
ATOM     18  C   UNL     1      51.478 156.042  29.553  0.00  0.00    +0.269 C 
BRANCH  18  19
ATOM     19  O   UNL     1      50.118 155.793  29.324  0.00  0.00    -0.358 OA
ATOM     20  H   UNL     1      49.633 156.633  29.315  0.00  0.00    +0.213 HD
ENDBRANCH  18  19
BRANCH  18  21
ATOM     21  C   UNL     1      52.167 154.694  29.553  0.00  0.00    +0.173 C 
BRANCH  21  22
ATOM     22  C   UNL     1      51.910 154.018  28.248  0.00  0.00    +0.327 C 
ATOM     23  O   UNL     1      51.326 154.635  27.321  0.00  0.00    -0.250 OA
BRANCH  22  24
ATOM     24  O   UNL     1      52.293 152.711  28.004  0.00  0.00    -0.419 OA
BRANCH  24  25
ATOM     25  C   UNL     1      51.995 152.132  26.753  0.00  0.00    +0.199 C 
ATOM     26  C   UNL     1      52.950 152.060  25.853  0.00  0.00    +0.106 C 
BRANCH  26  27
ATOM     27  N   UNL     1      54.263 152.536  26.086  0.00  0.00    -0.273 N 
ATOM     28  C   UNL     1      54.823 153.556  25.270  0.00  0.00    +0.304 C 
ATOM     29  O   UNL     1      54.138 154.049  24.319  0.00  0.00    -0.265 OA
ATOM     30  H   UNL     1      54.795 152.156  26.822  0.00  0.00    +0.155 HD
ENDBRANCH  26  27
ENDBRANCH  24  25
ENDBRANCH  22  24
ENDBRANCH  21  22
ENDBRANCH  18  21
ENDBRANCH  17  18
ENDBRANCH   8  17
TORSDOF 10
