REMARK  Name = =
REMARK  2 active torsions:
REMARK  status: ('A' for Active; 'I' for Inactive)
REMARK    1  A    between atoms: C_1  and  C_21
REMARK    2  A    between atoms: S_19  and  N_24
REMARK                            x       y       z     vdW  Elec       q    Type
REMARK                         _______ _______ _______ _____ _____    ______ ____
ROOT
ATOM      1  C   UNL     1      52.468 155.546  28.610  0.00  0.00    +0.103 C 
ATOM      2  C   UNL     1      51.574 156.531  29.168  0.00  0.00    -0.009 C 
ATOM      3  C   UNL     1      52.075 157.750  29.689  0.00  0.00    -0.024 C 
ATOM      4  C   UNL     1      53.517 158.199  29.706  0.00  0.00    +0.031 C 
ATOM      5  C   UNL     1      54.029 158.372  28.319  0.00  0.00    +0.032 C 
ATOM      6  C   UNL     1      53.693 157.335  27.340  0.00  0.00    -0.007 C 
ATOM      7  C   UNL     1      53.047 156.119  27.369  0.00  0.00    +0.064 C 
ATOM      8  N   UNL     1      52.867 155.333  26.290  0.00  0.00    -0.247 NA
ATOM      9  C   UNL     1      53.352 155.767  25.110  0.00  0.00    +0.105 C 
ATOM     10  C   UNL     1      54.008 156.966  24.997  0.00  0.00    +0.053 C 
ATOM     11  C   UNL     1      54.189 157.766  26.099  0.00  0.00    +0.005 C 
ATOM     12 BR   UNL     1      54.642 157.456  23.264  0.00  0.00    -0.047 Br
ATOM     13  C   UNL     1      51.204 158.662  30.212  0.00  0.00    +0.007 C 
ATOM     14  C   UNL     1      49.846 158.389  30.227  0.00  0.00    +0.058 C 
ATOM     15  C   UNL     1      49.358 157.222  29.728  0.00  0.00    +0.018 C 
ATOM     16  C   UNL     1      50.228 156.288  29.195  0.00  0.00    +0.032 C 
ATOM     17 BR   UNL     1      49.547 154.678  28.434  0.00  0.00    -0.049 Br
ATOM     18 CL   UNL     1      48.751 159.575  30.905  0.00  0.00    -0.082 Cl
ENDROOT
BRANCH   1  21
ATOM     19  S   UNL     1      51.528 151.939  27.668  0.00  0.00    +0.010 S 
ATOM     20  N   UNL     1      51.791 153.604  27.427  0.00  0.00    -0.214 NA
ATOM     21  C   UNL     1      52.129 154.135  28.547  0.00  0.00    +0.077 C 
ATOM     22  C   UNL     1      52.196 153.239  29.666  0.00  0.00    +0.024 C 
ATOM     23  C   UNL     1      51.918 151.993  29.465  0.00  0.00    +0.055 C 
ATOM     24  H   UNL     1      50.317 151.433  27.311  0.00  0.00    +0.136 HD
BRANCH  19  25
ATOM     25  N   UNL     1      52.338 150.858  26.698  0.00  0.00    +0.006 NA
ATOM     26  O   UNL     1      51.928 149.874  26.213  0.00  0.00    -0.136 OA
ENDBRANCH  19  25
ENDBRANCH   1  21
TORSDOF 2
