REMARK  Name = =
REMARK  5 active torsions:
REMARK  status: ('A' for Active; 'I' for Inactive)
REMARK    1  A    between atoms: C_4  and  O_26
REMARK    2  A    between atoms: C_6  and  O_25
REMARK    3  A    between atoms: C_10  and  N_19
REMARK    4  A    between atoms: C_11  and  C_12
REMARK    5  A    between atoms: C_15  and  O_18
REMARK                            x       y       z     vdW  Elec       q    Type
REMARK                         _______ _______ _______ _____ _____    ______ ____
ROOT
ATOM      1  O   UNL     1     -13.627 -42.489  31.179  0.00  0.00    -0.452 OA
ATOM      2  C   UNL     1     -13.616 -42.041  32.383  0.00  0.00    +0.154 A 
ATOM      3  C   UNL     1     -12.411 -42.083  33.086  0.00  0.00    +0.109 A 
ATOM      4  C   UNL     1     -12.354 -41.616  34.373  0.00  0.00    +0.143 C 
ATOM      5  C   UNL     1     -13.541 -41.111  34.918  0.00  0.00    +0.073 C 
ATOM      6  C   UNL     1     -14.716 -41.066  34.242  0.00  0.00    +0.140 C 
ATOM      7  C   UNL     1     -14.781 -41.533  32.952  0.00  0.00    +0.074 C 
ATOM      8  C   UNL     1     -11.285 -42.585  32.506  0.00  0.00    +0.218 A 
ATOM      9  O   UNL     1     -10.172 -42.661  33.058  0.00  0.00    -0.285 OA
ATOM     10  C   UNL     1     -11.358 -43.064  31.178  0.00  0.00    +0.123 A 
ATOM     11  C   UNL     1     -12.559 -42.998  30.543  0.00  0.00    +0.162 A 
ENDROOT
BRANCH  11  12
ATOM     12  C   UNL     1     -12.846 -43.438  29.186  0.00  0.00    +0.036 C 
ATOM     13  C   UNL     1     -14.158 -43.809  28.863  0.00  0.00    +0.006 C 
ATOM     14  C   UNL     1     -14.532 -44.223  27.607  0.00  0.00    +0.037 C 
ATOM     15  C   UNL     1     -13.592 -44.282  26.604  0.00  0.00    +0.134 C 
ATOM     16  C   UNL     1     -12.299 -43.933  26.860  0.00  0.00    +0.037 C 
ATOM     17  C   UNL     1     -11.962 -43.517  28.158  0.00  0.00    +0.006 C 
BRANCH  15  18
ATOM     18  O   UNL     1     -13.972 -44.695  25.355  0.00  0.00    -0.506 OA
ATOM     19  H   UNL     1     -13.341 -44.739  24.664  0.00  0.00    +0.292 HD
ENDBRANCH  15  18
ENDBRANCH  11  12
BRANCH  10  20
ATOM     20  N   UNL     1     -10.174 -43.602  30.655  0.00  0.00    -0.300 N 
ATOM     21  C   UNL     1      -9.865 -45.029  30.651  0.00  0.00    +0.110 C 
ATOM     22  C   UNL     1      -8.374 -45.238  30.885  0.00  0.00    +0.110 C 
ATOM     23  N   UNL     1      -7.788 -44.177  31.679  0.00  0.00    -0.214 NA
ATOM     24  C   UNL     1      -7.865 -42.898  31.062  0.00  0.00    +0.110 C 
ATOM     25  C   UNL     1      -9.087 -42.726  30.173  0.00  0.00    +0.110 C 
ENDBRANCH  10  20
BRANCH   6  26
ATOM     26  O   UNL     1     -15.886 -40.546  34.840  0.00  0.00    -0.505 OA
ATOM     27  H   UNL     1     -15.859 -40.223  35.719  0.00  0.00    +0.292 HD
ENDBRANCH   6  26
BRANCH   4  28
ATOM     28  O   UNL     1     -11.241 -41.610  35.142  0.00  0.00    -0.505 OA
ATOM     29  H   UNL     1     -10.434 -41.942  34.801  0.00  0.00    +0.292 HD
ENDBRANCH   4  28
TORSDOF 5
