REMARK  Name = =
REMARK  9 active torsions:
REMARK  status: ('A' for Active; 'I' for Inactive)
REMARK    1  A    between atoms: C_1  and  O_16
REMARK    2  A    between atoms: C_2  and  C_10
REMARK    3  A    between atoms: C_3  and  O_9
REMARK    4  A    between atoms: C_4  and  O_8
REMARK    5  A    between atoms: C_5  and  O_7
REMARK    6  A    between atoms: N_11  and  N_12
REMARK    7  A    between atoms: N_12  and  C_13
REMARK    8  A    between atoms: C_13  and  N_15
REMARK    9  A    between atoms: O_16  and  C_18
REMARK                            x       y       z     vdW  Elec       q    Type
REMARK                         _______ _______ _______ _____ _____    ______ ____
ROOT
ATOM      1  C   UNL     1     -20.120 -41.266  24.552  0.00  0.00    +0.153 C 
ATOM      2  C   UNL     1     -20.302 -41.459  25.923  0.00  0.00    +0.092 C 
ATOM      3  C   UNL     1     -19.248 -41.773  26.738  0.00  0.00    +0.175 C 
ATOM      4  C   UNL     1     -17.985 -41.888  26.125  0.00  0.00    +0.202 C 
ATOM      5  C   UNL     1     -17.835 -41.692  24.775  0.00  0.00    +0.174 C 
ATOM      6  C   UNL     1     -18.896 -41.376  23.951  0.00  0.00    +0.077 C 
ENDROOT
BRANCH   5   7
ATOM      7  O   UNL     1     -16.558 -41.815  24.196  0.00  0.00    -0.503 OA
ATOM      8  H   UNL     1     -15.819 -42.029  24.732  0.00  0.00    +0.292 HD
ENDBRANCH   5   7
BRANCH   4   9
ATOM      9  O   UNL     1     -16.918 -42.207  26.961  0.00  0.00    -0.501 OA
ATOM     10  H   UNL     1     -17.063 -42.333  27.878  0.00  0.00    +0.292 HD
ENDBRANCH   4   9
BRANCH   3  11
ATOM     11  O   UNL     1     -19.363 -41.975  28.088  0.00  0.00    -0.503 OA
ATOM     12  H   UNL     1     -20.200 -41.900  28.503  0.00  0.00    +0.292 HD
ENDBRANCH   3  11
BRANCH   2  13
ATOM     13  C   UNL     1     -21.656 -41.314  26.447  0.00  0.00    +0.124 C 
ATOM     14  N   UNL     1     -22.033 -40.432  27.277  0.00  0.00    -0.178 NA
BRANCH  14  15
ATOM     15  N   UNL     1     -23.340 -40.351  27.736  0.00  0.00    -0.218 N 
ATOM     16  H   UNL     1     -23.661 -39.522  28.159  0.00  0.00    +0.176 HD
BRANCH  15  17
ATOM     17  C   UNL     1     -24.211 -41.452  27.599  0.00  0.00    +0.147 C 
ATOM     18  S   UNL     1     -24.155 -42.725  28.618  0.00  0.00    -0.017 S 
BRANCH  17  19
ATOM     19  N   UNL     1     -25.182 -41.481  26.549  0.00  0.00    -0.339 N 
ATOM     20  H   UNL     1     -25.244 -40.730  25.915  0.00  0.00    +0.144 HD
ATOM     21  H   UNL     1     -25.788 -42.252  26.460  0.00  0.00    +0.144 HD
ENDBRANCH  17  19
ENDBRANCH  15  17
ENDBRANCH  14  15
ENDBRANCH   2  13
BRANCH   1  22
ATOM     22  O   UNL     1     -21.208 -40.951  23.760  0.00  0.00    -0.450 OA
BRANCH  22  24
ATOM     23  C   UNL     1     -23.111 -42.358  23.976  0.00  0.00    +0.083 C 
ATOM     24  C   UNL     1     -22.076 -41.942  23.278  0.00  0.00    +0.187 C 
ATOM     25  C   UNL     1     -21.839 -42.538  21.970  0.00  0.00    +0.230 C 
ATOM     26  O   UNL     1     -20.855 -42.159  21.276  0.00  0.00    -0.283 OA
ATOM     27  C   UNL     1     -22.705 -43.571  21.415  0.00  0.00    +0.045 C 
ATOM     28  C   UNL     1     -23.777 -43.980  22.176  0.00  0.00    +0.042 C 
ATOM     29  C   UNL     1     -24.600 -44.958  21.654  0.00  0.00    +0.003 C 
ATOM     30  C   UNL     1     -24.353 -45.505  20.414  0.00  0.00    +0.000 C 
ATOM     31  C   UNL     1     -23.281 -45.104  19.643  0.00  0.00    +0.000 C 
ATOM     32  C   UNL     1     -22.454 -44.126  20.156  0.00  0.00    +0.003 C 
ATOM     33  C   UNL     1     -24.009 -43.380  23.483  0.00  0.00    +0.199 C 
ATOM     34  O   UNL     1     -25.012 -43.796  24.139  0.00  0.00    -0.286 OA
ENDBRANCH  22  24
ENDBRANCH   1  22
TORSDOF 9
