MODEL 1
REMARK VINA RESULT:    -7.436      0.000      0.000
REMARK INTER + INTRA:         -10.392
REMARK INTER:                  -9.826
REMARK INTRA:                  -0.565
REMARK UNBOUND:                -0.565
REMARK  Name = =
REMARK  7 active torsions:
REMARK  status: ('A' for Active; 'I' for Inactive)
REMARK    1  A    between atoms: C_1  and  S_15
REMARK    2  A    between atoms: S_15  and  C_16
REMARK    3  A    between atoms: C_16  and  N_17
REMARK    4  A    between atoms: C_16  and  S_18
REMARK    5  A    between atoms: S_18  and  P_19
REMARK    6  A    between atoms: P_19  and  O_21
REMARK    7  A    between atoms: P_19  and  O_22
REMARK                            x       y       z     vdW  Elec       q    Type
REMARK                         _______ _______ _______ _____ _____    ______ ____
ROOT
ATOM      1  C   UNL     1      50.155 162.906  41.561  0.00  0.00    +0.018 A 
ATOM      2  C   UNL     1      48.992 163.636  41.449  0.00  0.00    +0.022 A 
ATOM      3  C   UNL     1      47.754 163.087  41.773  0.00  0.00    +0.082 A 
ATOM      4  N   UNL     1      47.676 161.819  42.205  0.00  0.00    -0.245 NA
ATOM      5  C   UNL     1      48.777 161.073  42.329  0.00  0.00    +0.082 A 
ATOM      6  C   UNL     1      50.033 161.607  42.008  0.00  0.00    +0.022 A 
ATOM      7  C   UNL     1      51.143 160.812  42.148  0.00  0.00    +0.002 C 
ATOM      8  C   UNL     1      51.023 159.520  42.593  0.00  0.00    +0.000 C 
ATOM      9  C   UNL     1      49.777 159.015  42.903  0.00  0.00    +0.002 C 
ATOM     10  C   UNL     1      48.638 159.780  42.776  0.00  0.00    +0.019 C 
ATOM     11  C   UNL     1      46.590 163.848  41.650  0.00  0.00    +0.019 C 
ATOM     12  C   UNL     1      46.659 165.152  41.207  0.00  0.00    +0.002 C 
ATOM     13  C   UNL     1      47.904 165.683  40.888  0.00  0.00    +0.000 C 
ATOM     14  C   UNL     1      49.047 164.924  41.012  0.00  0.00    +0.002 C 
ENDROOT
BRANCH   1  15
ATOM     15  S   UNL     1      51.758 163.573  41.156  0.00  0.00    -0.158 S 
ATOM     16  H   UNL     1      51.520 164.458  40.151  0.00  0.00    +0.099 HD
BRANCH  15  17
ATOM     17  C   UNL     1      52.772 164.323  42.126  0.00  0.00    +0.151 C 
BRANCH  17  18
ATOM     18  N   UNL     1      53.585 163.599  43.028  0.00  0.00    -0.305 NA
ATOM     19  H   UNL     1      52.995 163.052  43.654  0.00  0.00    +0.120 HD
ATOM     20  H   UNL     1      54.149 164.250  43.574  0.00  0.00    +0.120 HD
ENDBRANCH  17  18
BRANCH  17  21
ATOM     21  S   UNL     1      52.918 166.097  42.107  0.00  0.00    -0.006 S 
BRANCH  21  22
ATOM     22  P   UNL     1      52.856 166.890  40.172  0.00  0.00    +0.389 P 
ATOM     23  O   UNL     1      53.746 168.130  40.151  0.00  0.00    -0.246 OA
BRANCH  22  24
ATOM     24  O   UNL     1      51.325 167.371  39.704  0.00  0.00    -0.316 OA
ATOM     25  H   UNL     1      51.190 167.155  38.768  0.00  0.00    +0.221 HD
ENDBRANCH  22  24
BRANCH  22  26
ATOM     26  O   UNL     1      53.537 165.817  39.033  0.00  0.00    -0.316 OA
ATOM     27  H   UNL     1      54.156 166.300  38.463  0.00  0.00    +0.221 HD
ENDBRANCH  22  26
ENDBRANCH  21  22
ENDBRANCH  17  21
ENDBRANCH  15  17
ENDBRANCH   1  15
TORSDOF 7
ENDMDL
