REMARK  Name = =
REMARK  10 active torsions:
REMARK  status: ('A' for Active; 'I' for Inactive)
REMARK    1  A    between atoms: C_1  and  C_6
REMARK    2  A    between atoms: C_6  and  C_11
REMARK    3  A    between atoms: C_11  and  C_13
REMARK    4  A    between atoms: C_12  and  S_17
REMARK    5  A    between atoms: C_13  and  O_15
REMARK    6  A    between atoms: O_15  and  N_16
REMARK    7  A    between atoms: S_17  and  S_18
REMARK    8  A    between atoms: N_19  and  O_35
REMARK    9  A    between atoms: N_20  and  C_24
REMARK   10  A    between atoms: C_21  and  N_23
REMARK                            x       y       z     vdW  Elec       q    Type
REMARK                         _______ _______ _______ _____ _____    ______ ____
ROOT
ATOM      1  C   UNL     1      53.137 155.245  26.316  0.00  0.00    +0.149 C 
ATOM      2  O   UNL     1      52.357 155.140  27.353  0.00  0.00    -0.459 OA
ATOM      3  C   UNL     1      52.228 156.316  27.968  0.00  0.00    +0.295 C 
ATOM      4  C   UNL     1      52.976 157.239  27.279  0.00  0.00    +0.202 C 
ATOM      5  C   UNL     1      53.550 156.540  26.227  0.00  0.00    +0.044 C 
ATOM      6  N   UNL     1      51.442 156.495  29.109  0.00  0.00    -0.064 NA
ATOM      7  N   UNL     1      51.524 157.697  29.770  0.00  0.00    -0.141 NA
ATOM      8  C   UNL     1      52.633 158.553  29.590  0.00  0.00    +0.254 C 
ATOM      9  O   UNL     1      53.555 158.167  28.780  0.00  0.00    -0.320 OA
ENDROOT
BRANCH   7  10
ATOM     10  C   UNL     1      50.488 158.105  30.687  0.00  0.00    +0.220 C 
ATOM     11  C   UNL     1      50.834 159.543  31.058  0.00  0.00    +0.237 C 
ATOM     12  O   UNL     1      50.179 160.057  32.137  0.00  0.00    -0.446 OA
ATOM     13  C   UNL     1      49.240 160.982  32.383  0.00  0.00    +0.317 C 
ATOM     14  O   UNL     1      49.439 162.175  32.748  0.00  0.00    -0.250 OA
ATOM     15  C   UNL     1      47.792 160.609  32.224  0.00  0.00    +0.113 C 
ATOM     16  C   UNL     1      47.264 160.960  30.875  0.00  0.00    +0.059 C 
ATOM     17  C   UNL     1      47.917 160.082  29.824  0.00  0.00    +0.209 C 
ATOM     18  O   UNL     1      48.140 158.807  30.315  0.00  0.00    -0.447 OA
ATOM     19  C   UNL     1      49.144 157.920  30.149  0.00  0.00    +0.337 C 
ATOM     20  O   UNL     1      48.942 156.849  29.495  0.00  0.00    -0.248 OA
ENDBRANCH   7  10
BRANCH   1  21
ATOM     21  C   UNL     1      53.542 154.165  25.359  0.00  0.00    +0.193 C 
ATOM     22  N   UNL     1      52.981 154.429  24.046  0.00  0.00    -0.189 NA
ATOM     23  N   UNL     1      53.984 154.094  23.118  0.00  0.00    -0.039 NA
ATOM     24  N   UNL     1      55.099 153.989  23.716  0.00  0.00    -0.039 NA
ATOM     25  N   UNL     1      54.965 154.237  25.082  0.00  0.00    -0.189 NA
ATOM     26  H   UNL     1      52.733 155.415  23.959  0.00  0.00    +0.147 HD
ATOM     27  H   UNL     1      55.325 155.163  25.312  0.00  0.00    +0.147 HD
BRANCH  21  28
ATOM     28  C   UNL     1      53.210 152.810  25.842  0.00  0.00    +0.098 C 
ATOM     29  C   UNL     1      53.491 151.740  25.095  0.00  0.00    +0.047 C 
BRANCH  28  30
ATOM     30  C   UNL     1      52.572 152.639  27.124  0.00  0.00    +0.358 C 
ATOM     31  O   UNL     1      51.332 152.448  27.178  0.00  0.00    -0.243 OA
BRANCH  30  32
ATOM     32  O   UNL     1      53.313 152.686  28.282  0.00  0.00    -0.368 OA
BRANCH  32  33
ATOM     33  N   UNL     1      52.827 153.080  29.485  0.00  0.00    -0.165 NA
ATOM     34  H   UNL     1      53.568 153.028  30.184  0.00  0.00    +0.163 HD
ATOM     35  H   UNL     1      52.058 152.468  29.758  0.00  0.00    +0.163 HD
ENDBRANCH  32  33
ENDBRANCH  30  32
ENDBRANCH  28  30
BRANCH  29  36
ATOM     36  S   UNL     1      53.096 150.100  25.652  0.00  0.00    -0.059 S 
BRANCH  36  37
ATOM     37  S   UNL     1      54.248 148.688  24.566  0.00  0.00    -0.105 S 
ATOM     38  H   UNL     1      53.946 147.432  24.992  0.00  0.00    +0.114 HD
ENDBRANCH  36  37
ENDBRANCH  29  36
ENDBRANCH  21  28
ENDBRANCH   1  21
BRANCH   8  39
ATOM     39  N   UNL     1      52.851 159.797  30.200  0.00  0.00    -0.284 NA
ATOM     40  H   UNL     1      52.070 160.013  30.820  0.00  0.00    +0.122 HD
ATOM     41  H   UNL     1      52.926 160.519  29.483  0.00  0.00    +0.122 HD
ENDBRANCH   8  39
BRANCH   6  42
ATOM     42  O   UNL     1      51.537 155.437  29.965  0.00  0.00    -0.293 OA
ATOM     43  H   UNL     1      51.475 154.609  29.464  0.00  0.00    +0.238 HD
ENDBRANCH   6  42
TORSDOF 10
