REMARK  Name = =
REMARK  5 active torsions:
REMARK  status: ('A' for Active; 'I' for Inactive)
REMARK    1  A    between atoms: C_1  and  S_11
REMARK    2  A    between atoms: C_3  and  N_7
REMARK    3  A    between atoms: N_7  and  S_8
REMARK    4  A    between atoms: S_11  and  C_12
REMARK    5  A    between atoms: C_12  and  O_14
REMARK                            x       y       z     vdW  Elec       q    Type
REMARK                         _______ _______ _______ _____ _____    ______ ____
ROOT
ATOM      1  C   UNL     1      -9.538  -8.879  19.463  0.00  0.00    +0.034 C 
ATOM      2  C   UNL     1      -8.327  -8.868  20.177  0.00  0.00    +0.022 C 
ATOM      3  C   UNL     1      -7.575  -7.744  20.378  0.00  0.00    +0.065 C 
ATOM      4  C   UNL     1      -8.070  -6.574  19.833  0.00  0.00    +0.016 C 
ATOM      5  C   UNL     1      -9.252  -6.553  19.130  0.00  0.00    +0.002 C 
ATOM      6  C   UNL     1     -10.009  -7.709  18.932  0.00  0.00    +0.007 C 
ENDROOT
BRANCH   3   7
ATOM      7  N   UNL     1      -6.358  -7.711  21.091  0.00  0.00    -0.222 N 
ATOM      8  H   UNL     1      -5.535  -7.893  20.583  0.00  0.00    +0.173 HD
BRANCH   7   9
ATOM      9  S   UNL     1      -6.188  -7.383  22.755  0.00  0.00    +0.033 S 
ATOM     10  O   UNL     1      -7.049  -6.190  23.133  0.00  0.00    -0.158 OA
ATOM     11  O   UNL     1      -6.642  -8.587  23.530  0.00  0.00    -0.158 OA
ATOM     12  H   UNL     1      -4.888  -7.103  23.039  0.00  0.00    +0.233 HD
ENDBRANCH   7   9
ENDBRANCH   3   7
BRANCH   1  13
ATOM     13  S   UNL     1     -10.398 -10.420  19.287  0.00  0.00    -0.043 S 
BRANCH  13  14
ATOM     14  C   UNL     1     -12.134 -10.250  19.422  0.00  0.00    +0.203 C 
ATOM     15  S   UNL     1     -13.012 -10.532  18.036  0.00  0.00    -0.004 S 
BRANCH  14  16
ATOM     16  O   UNL     1     -12.888  -9.914  20.518  0.00  0.00    -0.496 OA
ATOM     17  H   UNL     1     -12.470  -9.739  21.338  0.00  0.00    +0.293 HD
ENDBRANCH  14  16
ENDBRANCH  13  14
ENDBRANCH   1  13
TORSDOF 5
