REMARK  Name = =
REMARK  0 active torsions:
REMARK  status: ('A' for Active; 'I' for Inactive)
REMARK                            x       y       z     vdW  Elec       q    Type
REMARK                         _______ _______ _______ _____ _____    ______ ____
ROOT
ATOM      1  C   UNL     1      52.487 156.538  28.249  0.00  0.00    +0.095 C 
ATOM      2  N   UNL     1      52.160 155.832  29.440  0.00  0.00    -0.293 NA
ATOM      3  C   UNL     1      51.403 154.630  29.129  0.00  0.00    +0.074 C 
ATOM      4  C   UNL     1      52.373 153.665  28.481  0.00  0.00    +0.043 C 
ATOM      5  C   UNL     1      52.722 154.269  27.163  0.00  0.00    -0.023 C 
ATOM      6  C   UNL     1      52.767 155.644  27.092  0.00  0.00    -0.010 C 
ATOM      7  C   UNL     1      53.088 156.197  25.876  0.00  0.00    -0.003 C 
ATOM      8  C   UNL     1      53.356 155.415  24.772  0.00  0.00    -0.000 C 
ATOM      9  C   UNL     1      53.307 154.028  24.864  0.00  0.00    -0.000 C 
ATOM     10  C   UNL     1      52.985 153.457  26.079  0.00  0.00    -0.004 C 
ATOM     11  H   UNL     1      51.600 156.434  30.044  0.00  0.00    +0.124 HD
ENDROOT
TORSDOF 0
