REMARK  Name = =
REMARK  1 active torsions:
REMARK  status: ('A' for Active; 'I' for Inactive)
REMARK    1  A    between atoms: C_1  and  C_17
REMARK                            x       y       z     vdW  Elec       q    Type
REMARK                         _______ _______ _______ _____ _____    ______ ____
ROOT
ATOM      1  C   UNL     1      51.580 156.787  27.985  0.00  0.00    +0.091 C 
ATOM      2  N   UNL     1      51.054 157.113  29.252  0.00  0.00    -0.294 NA
ATOM      3  C   UNL     1      50.323 156.154  29.995  0.00  0.00    +0.074 C 
ATOM      4  C   UNL     1      51.063 154.817  30.103  0.00  0.00    +0.043 C 
ATOM      5  C   UNL     1      51.391 154.402  28.685  0.00  0.00    -0.023 C 
ATOM      6  C   UNL     1      51.609 155.350  27.719  0.00  0.00    -0.011 C 
ATOM      7  C   UNL     1      51.888 154.934  26.409  0.00  0.00    -0.003 C 
ATOM      8  C   UNL     1      51.929 153.586  26.166  0.00  0.00    -0.000 C 
ATOM      9  C   UNL     1      51.710 152.624  27.137  0.00  0.00    -0.000 C 
ATOM     10  C   UNL     1      51.437 153.060  28.414  0.00  0.00    -0.004 C 
ATOM     11  H   UNL     1      50.434 157.911  29.114  0.00  0.00    +0.124 HD
ENDROOT
BRANCH   1  18
ATOM     12  N   UNL     1      53.890 156.557  27.142  0.00  0.00    -0.297 NA
ATOM     13  C   UNL     1      54.742 157.239  26.243  0.00  0.00    +0.069 C 
ATOM     14  C   UNL     1      55.134 158.613  26.579  0.00  0.00    +0.017 C 
ATOM     15  C   UNL     1      55.078 159.020  27.996  0.00  0.00    +0.001 C 
ATOM     16  C   UNL     1      55.086 157.918  28.999  0.00  0.00    +0.001 C 
ATOM     17  C   UNL     1      53.623 157.539  29.263  0.00  0.00    +0.017 C 
ATOM     18  C   UNL     1      52.989 157.397  27.892  0.00  0.00    +0.073 C 
ATOM     19  H   UNL     1      53.330 155.894  26.605  0.00  0.00    +0.123 HD
ENDBRANCH   1  18
TORSDOF 1
