REMARK  Name = =
REMARK  2 active torsions:
REMARK  status: ('A' for Active; 'I' for Inactive)
REMARK    1  A    between atoms: C_1  and  C_17
REMARK    2  A    between atoms: C_10  and  C_18
REMARK                            x       y       z     vdW  Elec       q    Type
REMARK                         _______ _______ _______ _____ _____    ______ ____
ROOT
ATOM      1  C   UNL     1      51.146 155.264  26.957  0.00  0.00    +0.091 C 
ATOM      2  N   UNL     1      51.619 153.842  27.142  0.00  0.00    -0.294 NA
ATOM      3  C   UNL     1      51.630 153.160  25.874  0.00  0.00    +0.074 C 
ATOM      4  C   UNL     1      52.530 153.837  24.896  0.00  0.00    +0.043 C 
ATOM      5  C   UNL     1      53.063 155.131  25.422  0.00  0.00    -0.025 C 
ATOM      6  C   UNL     1      52.356 155.871  26.348  0.00  0.00    -0.011 C 
ATOM      7  C   UNL     1      52.875 157.045  26.892  0.00  0.00    -0.003 C 
ATOM      8  C   UNL     1      54.139 157.414  26.444  0.00  0.00    -0.001 C 
ATOM      9  C   UNL     1      54.839 156.680  25.528  0.00  0.00    -0.002 C 
ATOM     10  C   UNL     1      54.330 155.526  24.993  0.00  0.00    +0.000 C 
ATOM     11  H   UNL     1      50.990 153.357  27.781  0.00  0.00    +0.124 HD
ENDROOT
BRANCH   1  18
ATOM     12  N   UNL     1      50.780 157.076  28.657  0.00  0.00    -0.297 NA
ATOM     13  C   UNL     1      49.942 157.108  29.896  0.00  0.00    +0.069 C 
ATOM     14  C   UNL     1      50.813 157.019  31.101  0.00  0.00    +0.017 C 
ATOM     15  C   UNL     1      50.981 155.625  31.654  0.00  0.00    +0.001 C 
ATOM     16  C   UNL     1      50.998 154.535  30.608  0.00  0.00    +0.001 C 
ATOM     17  C   UNL     1      51.773 155.030  29.390  0.00  0.00    +0.017 C 
ATOM     18  C   UNL     1      50.838 155.665  28.368  0.00  0.00    +0.073 C 
ATOM     19  H   UNL     1      51.710 157.457  28.829  0.00  0.00    +0.123 HD
ENDBRANCH   1  18
BRANCH  10  20
ATOM     20  C   UNL     1      54.965 154.787  23.928  0.00  0.00    +0.137 C 
ATOM     21  O   UNL     1      54.768 155.058  22.614  0.00  0.00    -0.352 OA
ATOM     22  C   UNL     1      55.516 154.062  21.945  0.00  0.00    +0.143 C 
ATOM     23  C   UNL     1      55.227 152.795  22.751  0.00  0.00    +0.035 C 
ATOM     24  C   UNL     1      55.242 153.318  24.195  0.00  0.00    +0.037 C 
ENDBRANCH  10  20
TORSDOF 2
