REMARK  Name = =
REMARK  3 active torsions:
REMARK  status: ('A' for Active; 'I' for Inactive)
REMARK    1  A    between atoms: P_1  and  S_3
REMARK    2  A    between atoms: P_1  and  O_4
REMARK    3  A    between atoms: P_1  and  O_5
REMARK                            x       y       z     vdW  Elec       q    Type
REMARK                         _______ _______ _______ _____ _____    ______ ____
ROOT
ATOM      1  P   UNL     1      50.786 155.773  29.545  0.00  0.00    +0.383 P 
ATOM      2  O   UNL     1      50.956 154.819  30.726  0.00  0.00    -0.246 OA
ENDROOT
BRANCH   1   3
ATOM      3  S   UNL     1      51.978 155.062  27.981  0.00  0.00    -0.059 S 
ATOM      4  H   UNL     1      53.284 155.085  28.360  0.00  0.00    +0.114 HD
ENDBRANCH   1   3
BRANCH   1   5
ATOM      5  O   UNL     1      51.217 157.319  30.044  0.00  0.00    -0.316 OA
ATOM      6  H   UNL     1      52.144 157.320  30.331  0.00  0.00    +0.221 HD
ENDBRANCH   1   5
BRANCH   1   7
ATOM      7  O   UNL     1      49.162 155.729  29.032  0.00  0.00    -0.316 OA
ATOM      8  H   UNL     1      48.589 156.055  29.744  0.00  0.00    +0.221 HD
ENDBRANCH   1   7
TORSDOF 3
