REMARK  Name = =
REMARK  1 active torsions:
REMARK  status: ('A' for Active; 'I' for Inactive)
REMARK    1  A    between atoms: C_2  and  C_3
REMARK                            x       y       z     vdW  Elec       q    Type
REMARK                         _______ _______ _______ _____ _____    ______ ____
ROOT
ATOM      1  C   UNL     1      41.938 161.085  24.640  0.00  0.00    +0.000 C 
ATOM      2  C   UNL     1      40.761 160.506  24.586  0.00  0.00    +0.000 C 
ENDROOT
BRANCH   2   3
ATOM      3  C   UNL     1      40.003 160.262  25.830  0.00  0.00    +0.000 C 
ATOM      4  C   UNL     1      38.893 160.898  26.098  0.00  0.00    +0.000 C 
ENDBRANCH   2   3
TORSDOF 1
