REMARK  Name = =
REMARK  2 active torsions:
REMARK  status: ('A' for Active; 'I' for Inactive)
REMARK    1  A    between atoms: C_1  and  N_10
REMARK    2  A    between atoms: C_4  and  C_7
REMARK                            x       y       z     vdW  Elec       q    Type
REMARK                         _______ _______ _______ _____ _____    ______ ____
ROOT
ATOM      1  C   UNL     1      52.780 155.771  27.056  0.00  0.00    +0.042 C 
ATOM      2  C   UNL     1      53.369 155.707  25.808  0.00  0.00    +0.014 C 
ATOM      3  C   UNL     1      53.616 154.487  25.208  0.00  0.00    +0.006 C 
ATOM      4  C   UNL     1      53.293 153.288  25.808  0.00  0.00    +0.053 C 
ATOM      5  C   UNL     1      52.705 153.356  27.054  0.00  0.00    +0.006 C 
ATOM      6  C   UNL     1      52.455 154.570  27.661  0.00  0.00    +0.014 C 
ENDROOT
BRANCH   4   7
ATOM      7  C   UNL     1      53.551 151.997  25.180  0.00  0.00    +0.243 C 
ATOM      8  O   UNL     1      53.197 150.953  25.740  0.00  0.00    -0.270 OA
ATOM      9  N   UNL     1      54.206 151.876  23.923  0.00  0.00    -0.325 N 
ATOM     10  H   UNL     1      54.361 150.986  23.533  0.00  0.00    +0.145 HD
ATOM     11  H   UNL     1      54.504 152.683  23.443  0.00  0.00    +0.145 HD
ENDBRANCH   4   7
BRANCH   1  12
ATOM     12  N   UNL     1      52.504 156.994  27.718  0.00  0.00    -0.357 N 
ATOM     13  H   UNL     1      52.083 156.988  28.608  0.00  0.00    +0.142 HD
ATOM     14  H   UNL     1      52.734 157.849  27.288  0.00  0.00    +0.142 HD
ENDBRANCH   1  12
TORSDOF 2
