REMARK  Name = =
REMARK  3 active torsions:
REMARK  status: ('A' for Active; 'I' for Inactive)
REMARK    1  A    between atoms: C_1  and  S_6
REMARK    2  A    between atoms: S_6  and  C_7
REMARK    3  A    between atoms: C_8  and  C_9
REMARK                            x       y       z     vdW  Elec       q    Type
REMARK                         _______ _______ _______ _____ _____    ______ ____
ROOT
ATOM      1  C   UNL     1      41.828 159.161  23.425  0.00  0.00    +0.212 A 
ATOM      2  N   UNL     1      42.468 158.423  24.332  0.00  0.00    -0.234 N 
ATOM      3  N   UNL     1      43.668 158.113  23.872  0.00  0.00    -0.046 NA
ATOM      4  N   UNL     1      43.770 158.663  22.669  0.00  0.00    -0.022 NA
ATOM      5  N   UNL     1      42.645 159.317  22.370  0.00  0.00    -0.101 NA
ATOM      6  H   UNL     1      42.105 158.152  25.206  0.00  0.00    +0.193 HD
ENDROOT
BRANCH   1   7
ATOM      7  S   UNL     1      40.179 159.842  23.542  0.00  0.00    -0.047 S 
BRANCH   7   8
ATOM      8  C   UNL     1      39.982 160.828  25.007  0.00  0.00    +0.038 C 
ATOM      9  C   UNL     1      38.923 161.576  25.216  0.00  0.00    +0.007 C 
BRANCH   9  10
ATOM     10  C   UNL     1      37.844 161.630  24.239  0.00  0.00    +0.001 C 
ATOM     11  C   UNL     1      36.690 162.214  24.474  0.00  0.00    +0.000 C 
ENDBRANCH   9  10
ENDBRANCH   7   8
ENDBRANCH   1   7
TORSDOF 3
