REMARK  Name = =
REMARK  3 active torsions:
REMARK  status: ('A' for Active; 'I' for Inactive)
REMARK    1  A    between atoms: N_1  and  C_2
REMARK    2  A    between atoms: N_1  and  C_12
REMARK    3  A    between atoms: C_15  and  C_18
REMARK                            x       y       z     vdW  Elec       q    Type
REMARK                         _______ _______ _______ _____ _____    ______ ____
ROOT
ATOM      1  N   UNL     1      53.588 155.639  26.904  0.00  0.00    -0.312 N 
ATOM      2  H   UNL     1      54.281 156.270  26.603  0.00  0.00    +0.152 HD
ENDROOT
BRANCH   1   3
ATOM      3  C   UNL     1      52.609 156.159  27.767  0.00  0.00    +0.050 C 
ATOM      4  C   UNL     1      52.823 157.434  28.308  0.00  0.00    +0.034 C 
ATOM      5  C   UNL     1      51.950 158.038  29.185  0.00  0.00    +0.083 C 
ATOM      6  N   UNL     1      52.202 159.275  29.681  0.00  0.00    -0.244 NA
ATOM      7  C   UNL     1      51.331 159.824  30.527  0.00  0.00    +0.099 C 
ATOM      8  C   UNL     1      50.170 159.203  30.937  0.00  0.00    +0.021 C 
ATOM      9  C   UNL     1      49.897 157.953  30.446  0.00  0.00    +0.003 C 
ATOM     10  C   UNL     1      50.810 157.391  29.567  0.00  0.00    +0.018 C 
ATOM     11  C   UNL     1      50.565 156.143  29.060  0.00  0.00    +0.003 C 
ATOM     12  C   UNL     1      51.461 155.540  28.170  0.00  0.00    +0.015 C 
ENDBRANCH   1   3
BRANCH   1  13
ATOM     13  C   UNL     1      53.696 154.318  26.417  0.00  0.00    +0.048 C 
ATOM     14  C   UNL     1      53.241 153.218  27.099  0.00  0.00    +0.015 C 
ATOM     15  C   UNL     1      53.386 151.923  26.601  0.00  0.00    +0.006 C 
ATOM     16  C   UNL     1      53.994 151.686  25.401  0.00  0.00    +0.053 C 
ATOM     17  C   UNL     1      54.463 152.783  24.692  0.00  0.00    +0.006 C 
ATOM     18  C   UNL     1      54.313 154.054  25.196  0.00  0.00    +0.015 C 
BRANCH  16  19
ATOM     19  C   UNL     1      54.136 150.330  24.900  0.00  0.00    +0.243 C 
ATOM     20  O   UNL     1      55.232 149.989  24.397  0.00  0.00    -0.270 OA
ATOM     21  N   UNL     1      53.031 149.452  25.000  0.00  0.00    -0.325 N 
ATOM     22  H   UNL     1      52.189 149.764  25.403  0.00  0.00    +0.145 HD
ATOM     23  H   UNL     1      53.104 148.529  24.666  0.00  0.00    +0.145 HD
ENDBRANCH  16  19
ENDBRANCH   1  13
TORSDOF 3
