REMARK  Name = =
REMARK  4 active torsions:
REMARK  status: ('A' for Active; 'I' for Inactive)
REMARK    1  A    between atoms: N_1  and  C_2
REMARK    2  A    between atoms: N_1  and  C_14
REMARK    3  A    between atoms: N_1  and  C_18
REMARK    4  A    between atoms: C_21  and  C_24
REMARK                            x       y       z     vdW  Elec       q    Type
REMARK                         _______ _______ _______ _____ _____    ______ ____
ROOT
ATOM      1  N   UNL     1      52.471 156.977  28.585  0.00  0.00    -0.250 N 
ENDROOT
BRANCH   1   2
ATOM      2  C   UNL     1      52.242 155.568  28.461  0.00  0.00    +0.058 C 
ATOM      3  C   UNL     1      52.571 154.862  27.327  0.00  0.00    +0.034 C 
ATOM      4  C   UNL     1      52.320 153.502  27.282  0.00  0.00    +0.083 C 
ATOM      5  N   UNL     1      52.622 152.777  26.203  0.00  0.00    -0.244 NA
ATOM      6  C   UNL     1      52.389 151.460  26.135  0.00  0.00    +0.099 C 
ATOM      7  C   UNL     1      51.818 150.790  27.196  0.00  0.00    +0.021 C 
ATOM      8  C   UNL     1      51.484 151.482  28.333  0.00  0.00    +0.003 C 
ATOM      9  C   UNL     1      51.744 152.845  28.361  0.00  0.00    +0.018 C 
ATOM     10  C   UNL     1      51.433 153.591  29.468  0.00  0.00    +0.003 C 
ATOM     11  C   UNL     1      51.669 154.936  29.544  0.00  0.00    +0.015 C 
ENDBRANCH   1   2
BRANCH   1  14
ATOM     12  C   UNL     1      54.922 157.824  26.067  0.00  0.00    +0.121 C 
ATOM     13  N   UNL     1      53.882 157.320  26.709  0.00  0.00    -0.225 NA
ATOM     14  C   UNL     1      53.623 157.561  28.016  0.00  0.00    +0.159 C 
ATOM     15  C   UNL     1      54.483 158.366  28.702  0.00  0.00    +0.134 C 
ATOM     16  N   UNL     1      55.554 158.891  28.060  0.00  0.00    -0.238 NA
ATOM     17  C   UNL     1      55.785 158.640  26.776  0.00  0.00    +0.120 C 
ENDBRANCH   1  14
BRANCH   1  18
ATOM     18  C   UNL     1      51.475 157.691  29.300  0.00  0.00    +0.057 C 
ATOM     19  C   UNL     1      50.230 157.104  29.546  0.00  0.00    +0.015 C 
ATOM     20  C   UNL     1      49.271 157.791  30.253  0.00  0.00    +0.006 C 
ATOM     21  C   UNL     1      49.462 159.060  30.753  0.00  0.00    +0.053 C 
ATOM     22  C   UNL     1      50.685 159.642  30.515  0.00  0.00    +0.006 C 
ATOM     23  C   UNL     1      51.667 158.961  29.800  0.00  0.00    +0.015 C 
BRANCH  21  24
ATOM     24  C   UNL     1      48.402 159.733  31.495  0.00  0.00    +0.243 C 
ATOM     25  O   UNL     1      47.343 159.116  31.781  0.00  0.00    -0.270 OA
ATOM     26  N   UNL     1      48.548 161.076  31.904  0.00  0.00    -0.325 N 
ATOM     27  H   UNL     1      49.371 161.570  31.687  0.00  0.00    +0.145 HD
ATOM     28  H   UNL     1      47.826 161.519  32.407  0.00  0.00    +0.145 HD
ENDBRANCH  21  24
ENDBRANCH   1  18
TORSDOF 4
