REMARK  Name = =
REMARK  7 active torsions:
REMARK  status: ('A' for Active; 'I' for Inactive)
REMARK    1  A    between atoms: S_1  and  C_2
REMARK    2  A    between atoms: S_1  and  C_7
REMARK    3  A    between atoms: S_1  and  O_11
REMARK    4  A    between atoms: C_8  and  C_9
REMARK    5  A    between atoms: O_11  and  C_13
REMARK    6  A    between atoms: C_12  and  O_18
REMARK    7  A    between atoms: C_16  and  O_19
REMARK                            x       y       z     vdW  Elec       q    Type
REMARK                         _______ _______ _______ _____ _____    ______ ____
ROOT
ATOM      1  S   UNL     1      43.117 158.865  24.762  0.00  0.00    -0.010 S 
ATOM      2  H   UNL     1      42.257 158.036  25.412  0.00  0.00    +0.135 HD
ENDROOT
BRANCH   1   3
ATOM      3  C   UNL     1      44.688 158.551  25.351  0.00  0.00    +0.223 A 
ATOM      4  N   UNL     1      44.998 157.751  26.377  0.00  0.00    -0.233 N 
ATOM      5  N   UNL     1      46.297 157.755  26.539  0.00  0.00    -0.046 NA
ATOM      6  N   UNL     1      46.828 158.541  25.635  0.00  0.00    -0.022 NA
ATOM      7  N   UNL     1      45.856 159.036  24.899  0.00  0.00    -0.100 NA
ATOM      8  H   UNL     1      44.354 157.242  26.921  0.00  0.00    +0.193 HD
ENDBRANCH   1   3
BRANCH   1   9
ATOM      9  C   UNL     1      42.717 160.528  24.987  0.00  0.00    +0.052 C 
ATOM     10  C   UNL     1      41.621 160.935  25.603  0.00  0.00    +0.008 C 
BRANCH  10  11
ATOM     11  C   UNL     1      40.702 159.932  26.119  0.00  0.00    +0.001 C 
ATOM     12  C   UNL     1      39.479 160.341  26.476  0.00  0.00    +0.000 C 
ENDBRANCH  10  11
ENDBRANCH   1   9
BRANCH   1  13
ATOM     13  O   UNL     1      43.111 158.663  23.090  0.00  0.00    -0.434 OA
BRANCH  13  15
ATOM     14  C   UNL     1      41.834 158.618  21.095  0.00  0.00    +0.172 C 
ATOM     15  C   UNL     1      41.906 158.810  22.443  0.00  0.00    +0.187 C 
ATOM     16  C   UNL     1      40.784 159.147  23.153  0.00  0.00    +0.045 C 
ATOM     17  C   UNL     1      39.541 159.307  22.548  0.00  0.00    +0.040 C 
ATOM     18  C   UNL     1      39.483 159.110  21.186  0.00  0.00    +0.137 C 
ATOM     19  C   UNL     1      40.607 158.769  20.462  0.00  0.00    +0.076 C 
BRANCH  14  20
ATOM     20  O   UNL     1      42.948 158.276  20.344  0.00  0.00    -0.503 OA
ATOM     21  H   UNL     1      43.780 158.172  20.761  0.00  0.00    +0.292 HD
ENDBRANCH  14  20
BRANCH  18  22
ATOM     22  O   UNL     1      38.263 159.258  20.534  0.00  0.00    -0.505 OA
ATOM     23  H   UNL     1      37.497 159.489  21.021  0.00  0.00    +0.292 HD
ENDBRANCH  18  22
ENDBRANCH  13  15
ENDBRANCH   1  13
TORSDOF 7
