REMARK  Name = =
REMARK  5 active torsions:
REMARK  status: ('A' for Active; 'I' for Inactive)
REMARK    1  A    between atoms: N_1  and  C_2
REMARK    2  A    between atoms: N_1  and  C_14
REMARK    3  A    between atoms: N_1  and  C_23
REMARK    4  A    between atoms: C_12  and  C_18
REMARK    5  A    between atoms: C_26  and  C_29
REMARK                            x       y       z     vdW  Elec       q    Type
REMARK                         _______ _______ _______ _____ _____    ______ ____
ROOT
ATOM      1  N   UNL     1      52.870 156.545  27.569  0.00  0.00    -0.250 N 
ENDROOT
BRANCH   1   2
ATOM      2  C   UNL     1      52.228 157.410  28.463  0.00  0.00    +0.058 C 
ATOM      3  C   UNL     1      50.984 156.971  28.992  0.00  0.00    +0.034 C 
ATOM      4  C   UNL     1      50.288 157.740  29.899  0.00  0.00    +0.083 C 
ATOM      5  N   UNL     1      49.104 157.306  30.397  0.00  0.00    -0.244 NA
ATOM      6  C   UNL     1      48.388 158.004  31.278  0.00  0.00    +0.099 C 
ATOM      7  C   UNL     1      48.845 159.240  31.728  0.00  0.00    +0.021 C 
ATOM      8  C   UNL     1      50.039 159.731  31.257  0.00  0.00    +0.003 C 
ATOM      9  C   UNL     1      50.733 158.956  30.345  0.00  0.00    +0.018 C 
ATOM     10  C   UNL     1      51.938 159.402  29.844  0.00  0.00    +0.003 C 
ATOM     11  C   UNL     1      52.646 158.621  28.924  0.00  0.00    +0.015 C 
ENDBRANCH   1   2
BRANCH   1  14
ATOM     12  C   UNL     1      52.377 152.931  27.177  0.00  0.00    +0.079 C 
ATOM     13  N   UNL     1      52.489 154.228  26.864  0.00  0.00    -0.231 NA
ATOM     14  C   UNL     1      52.723 155.131  27.815  0.00  0.00    +0.158 C 
ATOM     15  C   UNL     1      52.856 154.762  29.136  0.00  0.00    +0.134 C 
ATOM     16  N   UNL     1      52.748 153.460  29.483  0.00  0.00    -0.238 NA
ATOM     17  C   UNL     1      52.510 152.564  28.498  0.00  0.00    +0.114 C 
BRANCH  12  18
ATOM     18  C   UNL     1      52.104 151.860  26.180  0.00  0.00    +0.042 C 
ATOM     19  C   UNL     1      52.208 150.527  26.824  0.00  0.00    +0.006 C 
ATOM     20  C   UNL     1      52.995 149.707  26.145  0.00  0.00    +0.000 C 
ATOM     21  C   UNL     1      53.550 150.356  24.931  0.00  0.00    +0.000 C 
ATOM     22  C   UNL     1      53.181 151.808  25.114  0.00  0.00    +0.006 C 
ENDBRANCH  12  18
ENDBRANCH   1  14
BRANCH   1  23
ATOM     23  C   UNL     1      53.572 156.883  26.406  0.00  0.00    +0.057 C 
ATOM     24  C   UNL     1      54.235 158.044  26.217  0.00  0.00    +0.015 C 
ATOM     25  C   UNL     1      54.907 158.304  25.010  0.00  0.00    +0.006 C 
ATOM     26  C   UNL     1      54.935 157.414  23.970  0.00  0.00    +0.053 C 
ATOM     27  C   UNL     1      54.256 156.224  24.161  0.00  0.00    +0.006 C 
ATOM     28  C   UNL     1      53.603 155.970  25.331  0.00  0.00    +0.015 C 
BRANCH  26  29
ATOM     29  C   UNL     1      55.647 157.682  22.731  0.00  0.00    +0.243 C 
ATOM     30  O   UNL     1      55.961 156.735  21.936  0.00  0.00    -0.270 OA
ATOM     31  N   UNL     1      56.008 158.997  22.380  0.00  0.00    -0.325 N 
ATOM     32  H   UNL     1      55.778 159.746  22.976  0.00  0.00    +0.145 HD
ATOM     33  H   UNL     1      56.491 159.167  21.539  0.00  0.00    +0.145 HD
ENDBRANCH  26  29
ENDBRANCH   1  23
TORSDOF 5
