REMARK  Name = =
REMARK  6 active torsions:
REMARK  status: ('A' for Active; 'I' for Inactive)
REMARK    1  A    between atoms: N_1  and  C_2
REMARK    2  A    between atoms: N_1  and  C_14
REMARK    3  A    between atoms: N_1  and  C_32
REMARK    4  A    between atoms: C_12  and  C_18
REMARK    5  A    between atoms: C_18  and  N_23
REMARK    6  A    between atoms: C_35  and  C_38
REMARK                            x       y       z     vdW  Elec       q    Type
REMARK                         _______ _______ _______ _____ _____    ______ ____
ROOT
ATOM      1  N   UNL     1      51.753 155.731  28.527  0.00  0.00    -0.250 N 
ENDROOT
BRANCH   1   2
ATOM      2  C   UNL     1      52.684 156.269  27.610  0.00  0.00    +0.058 C 
ATOM      3  C   UNL     1      52.901 155.669  26.388  0.00  0.00    +0.034 C 
ATOM      4  C   UNL     1      53.820 156.165  25.472  0.00  0.00    +0.083 C 
ATOM      5  N   UNL     1      54.003 155.538  24.277  0.00  0.00    -0.244 NA
ATOM      6  C   UNL     1      54.893 155.992  23.360  0.00  0.00    +0.099 C 
ATOM      7  C   UNL     1      55.627 157.117  23.653  0.00  0.00    +0.021 C 
ATOM      8  C   UNL     1      55.479 157.787  24.846  0.00  0.00    +0.003 C 
ATOM      9  C   UNL     1      54.551 157.289  25.767  0.00  0.00    +0.018 C 
ATOM     10  C   UNL     1      54.353 157.905  26.980  0.00  0.00    +0.003 C 
ATOM     11  C   UNL     1      53.430 157.403  27.893  0.00  0.00    +0.015 C 
ENDBRANCH   1   2
BRANCH   1  14
ATOM     12  C   UNL     1      50.495 158.615  30.403  0.00  0.00    +0.096 C 
ATOM     13  N   UNL     1      51.304 157.829  29.678  0.00  0.00    -0.230 NA
ATOM     14  C   UNL     1      50.943 156.570  29.301  0.00  0.00    +0.158 C 
ATOM     15  C   UNL     1      49.693 156.099  29.687  0.00  0.00    +0.134 C 
ATOM     16  N   UNL     1      48.899 156.889  30.406  0.00  0.00    -0.238 NA
ATOM     17  C   UNL     1      49.270 158.153  30.780  0.00  0.00    +0.115 C 
BRANCH  12  18
ATOM     18  C   UNL     1      50.943 159.977  30.783  0.00  0.00    +0.100 C 
ATOM     19  C   UNL     1      52.166 159.904  31.620  0.00  0.00    +0.024 C 
ATOM     20  C   UNL     1      52.988 160.890  31.304  0.00  0.00    +0.002 C 
ATOM     21  C   UNL     1      52.372 161.716  30.207  0.00  0.00    +0.002 C 
ATOM     22  C   UNL     1      51.545 160.605  29.511  0.00  0.00    +0.024 C 
BRANCH  18  23
ATOM     23  N   UNL     1      49.921 160.852  31.234  0.00  0.00    -0.267 N 
ATOM     24  C   UNL     1      49.173 161.632  30.441  0.00  0.00    +0.168 C 
ATOM     25  N   UNL     1      48.284 162.356  31.138  0.00  0.00    -0.226 NA
ATOM     26  C   UNL     1      48.471 162.025  32.438  0.00  0.00    +0.096 C 
ATOM     27  C   UNL     1      49.504 161.075  32.504  0.00  0.00    +0.071 C 
ATOM     28  C   UNL     1      49.893 160.572  33.729  0.00  0.00    +0.016 C 
ATOM     29  C   UNL     1      49.255 161.018  34.863  0.00  0.00    +0.001 C 
ATOM     30  C   UNL     1      48.242 161.949  34.790  0.00  0.00    +0.002 C 
ATOM     31  C   UNL     1      47.841 162.458  33.587  0.00  0.00    +0.020 C 
ENDBRANCH  18  23
ENDBRANCH  12  18
ENDBRANCH   1  14
BRANCH   1  32
ATOM     32  C   UNL     1      51.686 154.322  28.627  0.00  0.00    +0.057 C 
ATOM     33  C   UNL     1      51.269 153.624  29.744  0.00  0.00    +0.015 C 
ATOM     34  C   UNL     1      51.215 152.250  29.785  0.00  0.00    +0.006 C 
ATOM     35  C   UNL     1      51.580 151.492  28.693  0.00  0.00    +0.053 C 
ATOM     36  C   UNL     1      52.000 152.155  27.565  0.00  0.00    +0.006 C 
ATOM     37  C   UNL     1      52.054 153.523  27.527  0.00  0.00    +0.015 C 
BRANCH  35  38
ATOM     38  C   UNL     1      51.546 150.041  28.678  0.00  0.00    +0.243 C 
ATOM     39  O   UNL     1      51.408 149.424  29.769  0.00  0.00    -0.270 OA
ATOM     40  N   UNL     1      51.670 149.361  27.448  0.00  0.00    -0.325 N 
ATOM     41  H   UNL     1      51.777 149.871  26.612  0.00  0.00    +0.145 HD
ATOM     42  H   UNL     1      51.650 148.377  27.425  0.00  0.00    +0.145 HD
ENDBRANCH  35  38
ENDBRANCH   1  32
TORSDOF 6
