REMARK  Name = =
REMARK  4 active torsions:
REMARK  status: ('A' for Active; 'I' for Inactive)
REMARK    1  A    between atoms: C_1  and  C_17
REMARK    2  A    between atoms: N_2  and  N_24
REMARK    3  A    between atoms: C_35  and  O_37
REMARK    4  A    between atoms: O_37  and  S_38
REMARK                            x       y       z     vdW  Elec       q    Type
REMARK                         _______ _______ _______ _____ _____    ______ ____
ROOT
ATOM      1  C   UNL     1      52.297 156.471  29.359  0.00  0.00    +0.112 C 
ATOM      2  N   UNL     1      51.356 157.450  28.821  0.00  0.00    -0.198 NA
ATOM      3  C   UNL     1      52.092 158.558  28.307  0.00  0.00    +0.160 C 
ATOM      4  N   UNL     1      53.130 159.070  29.136  0.00  0.00    -0.283 NA
ATOM      5  C   UNL     1      54.082 158.106  29.586  0.00  0.00    +0.071 C 
ATOM      6  C   UNL     1      53.689 156.777  28.921  0.00  0.00    +0.040 C 
ATOM      7  H   UNL     1      52.698 159.493  29.957  0.00  0.00    +0.125 HD
ENDROOT
BRANCH   1  18
ATOM      8  N   UNL     1      51.789 155.842  26.084  0.00  0.00    -0.210 NA
ATOM      9  C   UNL     1      52.532 155.090  26.915  0.00  0.00    +0.232 C 
ATOM     10  N   UNL     1      53.857 154.987  26.602  0.00  0.00    -0.193 NA
ATOM     11  C   UNL     1      54.403 155.592  25.533  0.00  0.00    +0.182 C 
ATOM     12  C   UNL     1      53.629 156.360  24.689  0.00  0.00    +0.105 C 
ATOM     13  C   UNL     1      52.286 156.470  24.999  0.00  0.00    +0.120 C 
ATOM     14  N   UNL     1      54.376 156.869  23.688  0.00  0.00    -0.292 N 
ATOM     15  C   UNL     1      55.630 156.416  23.905  0.00  0.00    +0.166 C 
ATOM     16  N   UNL     1      55.652 155.650  25.010  0.00  0.00    -0.208 NA
ATOM     17  N   UNL     1      51.988 154.429  28.048  0.00  0.00    -0.192 N 
ATOM     18  C   UNL     1      51.888 155.085  29.197  0.00  0.00    +0.058 C 
ATOM     19  C   UNL     1      51.354 154.392  30.292  0.00  0.00    +0.044 C 
ATOM     20  C   UNL     1      50.950 153.081  30.179  0.00  0.00    +0.120 C 
ATOM     21  N   UNL     1      51.070 152.453  28.993  0.00  0.00    -0.147 NA
ATOM     22  C   UNL     1      51.582 153.126  27.950  0.00  0.00    +0.338 C 
ATOM     23  O   UNL     1      51.707 152.565  26.828  0.00  0.00    -0.250 OA
ATOM     24  N   UNL     1      50.406 152.345  31.265  0.00  0.00    -0.344 N 
ATOM     25  H   UNL     1      54.071 157.449  22.953  0.00  0.00    +0.154 HD
ATOM     26  H   UNL     1      50.303 152.771  32.146  0.00  0.00    +0.144 HD
ATOM     27  H   UNL     1      50.131 151.408  31.136  0.00  0.00    +0.144 HD
ENDBRANCH   1  18
BRANCH   2  28
ATOM     28  N   UNL     1      50.394 157.793  29.743  0.00  0.00    -0.218 NA
ATOM     29  C   UNL     1      49.209 156.997  29.754  0.00  0.00    +0.089 C 
ATOM     30  C   UNL     1      48.312 157.508  30.862  0.00  0.00    +0.023 C 
ATOM     31  C   UNL     1      47.761 158.883  30.571  0.00  0.00    +0.025 C 
ATOM     32  C   UNL     1      48.611 159.440  29.413  0.00  0.00    +0.022 C 
ATOM     33  C   UNL     1      50.052 159.200  29.777  0.00  0.00    +0.077 C 
ATOM     34  C   UNL     1      50.410 159.720  31.135  0.00  0.00    +0.044 C 
ATOM     35  C   UNL     1      49.303 160.218  31.941  0.00  0.00    -0.022 C 
ATOM     36  C   UNL     1      48.009 159.821  31.694  0.00  0.00    -0.026 C 
ATOM     37  C   UNL     1      46.973 160.281  32.453  0.00  0.00    -0.001 C 
ATOM     38  C   UNL     1      47.270 161.169  33.488  0.00  0.00    +0.039 C 
ATOM     39  C   UNL     1      48.557 161.584  33.758  0.00  0.00    +0.171 C 
ATOM     40  C   UNL     1      49.585 161.110  32.986  0.00  0.00    +0.035 C 
BRANCH  39  41
ATOM     41  O   UNL     1      48.818 162.478  34.809  0.00  0.00    -0.363 OA
BRANCH  41  42
ATOM     42  S   UNL     1      47.503 163.141  35.661  0.00  0.00    +0.009 S 
ATOM     43  O   UNL     1      47.961 163.492  37.047  0.00  0.00    -0.065 OA
ATOM     44  O   UNL     1      46.378 162.140  35.747  0.00  0.00    -0.065 OA
ATOM     45  H   UNL     1      47.054 164.249  35.013  0.00  0.00    +0.227 HD
ENDBRANCH  41  42
ENDBRANCH  39  41
ENDBRANCH   2  28
TORSDOF 4
