REMARK  Name = =
REMARK  0 active torsions:
REMARK  status: ('A' for Active; 'I' for Inactive)
REMARK                            x       y       z     vdW  Elec       q    Type
REMARK                         _______ _______ _______ _____ _____    ______ ____
ROOT
ATOM      1  N   UNL     1      -3.315  -4.295  30.782  0.00  0.00    -0.255 N 
ATOM      2  C   UNL     1      -3.670  -5.475  31.511  0.00  0.00    +0.228 C 
ATOM      3  O   UNL     1      -3.262  -6.588  31.102  0.00  0.00    -0.275 OA
ATOM      4  C   UNL     1      -4.509  -5.419  32.739  0.00  0.00    +0.086 C 
ATOM      5  C   UNL     1      -4.449  -3.986  33.243  0.00  0.00    +0.019 C 
ATOM      6  C   UNL     1      -5.056  -3.144  32.137  0.00  0.00    +0.086 C 
ATOM      7  C   UNL     1      -4.068  -3.125  31.038  0.00  0.00    +0.228 C 
ATOM      8  O   UNL     1      -3.921  -2.084  30.364  0.00  0.00    -0.275 OA
ATOM      9  H   UNL     1      -2.578  -4.298  30.130  0.00  0.00    +0.158 HD
ENDROOT
TORSDOF 0
