REMARK  Name = =
REMARK  1 active torsions:
REMARK  status: ('A' for Active; 'I' for Inactive)
REMARK    1  A    between atoms: C_1  and  N_8
REMARK                            x       y       z     vdW  Elec       q    Type
REMARK                         _______ _______ _______ _____ _____    ______ ____
ROOT
ATOM      1  C   UNL     1      -2.052  -4.832  30.212  0.00  0.00    +0.111 C 
ATOM      2  C   UNL     1      -2.554  -3.826  29.415  0.00  0.00    +0.144 C 
ATOM      3  N   UNL     1      -3.721  -3.237  29.750  0.00  0.00    -0.198 NA
ATOM      4  C   UNL     1      -4.448  -3.566  30.832  0.00  0.00    +0.215 C 
ATOM      5  N   UNL     1      -3.963  -4.549  31.614  0.00  0.00    -0.211 NA
ATOM      6  C   UNL     1      -2.794  -5.175  31.324  0.00  0.00    +0.120 C 
ATOM      7  N   UNL     1      -5.681  -2.911  31.144  0.00  0.00    -0.327 N 
ATOM      8  N   UNL     1      -1.819  -3.445  28.267  0.00  0.00    -0.342 N 
ATOM      9  H   UNL     1      -6.019  -2.194  30.560  0.00  0.00    +0.145 HD
ATOM     10  H   UNL     1      -6.191  -3.177  31.943  0.00  0.00    +0.145 HD
ATOM     11  H   UNL     1      -2.157  -2.729  27.682  0.00  0.00    +0.144 HD
ATOM     12  H   UNL     1      -0.970  -3.896  28.054  0.00  0.00    +0.144 HD
ENDROOT
BRANCH   1  13
ATOM     13  N   UNL     1      -0.827  -5.437  29.841  0.00  0.00    -0.204 N 
ATOM     14  C   UNL     1      -0.707  -6.818  29.517  0.00  0.00    +0.235 C 
ATOM     15  O   UNL     1      -1.731  -7.445  29.178  0.00  0.00    -0.274 OA
ATOM     16  C   UNL     1       0.592  -7.524  29.571  0.00  0.00    +0.087 C 
ATOM     17  C   UNL     1       1.745  -6.675  29.162  0.00  0.00    +0.019 C 
ATOM     18  C   UNL     1       1.443  -5.245  28.889  0.00  0.00    +0.087 C 
ATOM     19  C   UNL     1       0.402  -4.681  29.762  0.00  0.00    +0.235 C 
ATOM     20  O   UNL     1       0.498  -3.622  30.428  0.00  0.00    -0.274 OA
ENDBRANCH   1  13
TORSDOF 1
