REMARK  Name = =
REMARK  0 active torsions:
REMARK  status: ('A' for Active; 'I' for Inactive)
REMARK                            x       y       z     vdW  Elec       q    Type
REMARK                         _______ _______ _______ _____ _____    ______ ____
ROOT
ATOM      1  C   UNL     1      -3.958  -3.730  31.054  0.00  0.00    +0.142 C 
ATOM      2  N   UNL     1      -3.565  -3.096  32.320  0.00  0.00    -0.283 NA
ATOM      3  C   UNL     1      -4.843  -3.227  33.041  0.00  0.00    +0.087 C 
ATOM      4  C   UNL     1      -5.891  -3.088  31.966  0.00  0.00    +0.087 C 
ATOM      5  N   UNL     1      -5.110  -2.871  30.734  0.00  0.00    -0.283 NA
ATOM      6  H   UNL     1      -3.294  -2.121  32.193  0.00  0.00    +0.125 HD
ATOM      7  H   UNL     1      -5.608  -3.189  29.902  0.00  0.00    +0.125 HD
ENDROOT
TORSDOF 0
