REMARK  Name = =
REMARK  1 active torsions:
REMARK  status: ('A' for Active; 'I' for Inactive)
REMARK    1  A    between atoms: C_1  and  C_14
REMARK                            x       y       z     vdW  Elec       q    Type
REMARK                         _______ _______ _______ _____ _____    ______ ____
ROOT
ATOM      1  C   UNL     1      -8.017  -0.162  32.344  0.00  0.00    +0.045 C 
ATOM      2  C   UNL     1      -9.223  -1.041  32.547  0.00  0.00    +0.053 C 
ATOM      3  C   UNL     1      -8.938  -2.490  32.727  0.00  0.00    +0.206 C 
ATOM      4  O   UNL     1      -8.082  -2.891  31.642  0.00  0.00    -0.476 OA
ATOM      5  C   UNL     1      -6.856  -2.179  31.552  0.00  0.00    +0.135 C 
ATOM      6  C   UNL     1      -6.826  -0.842  31.908  0.00  0.00    +0.013 C 
ATOM      7  C   UNL     1      -5.606  -0.207  31.805  0.00  0.00    -0.001 C 
ATOM      8  C   UNL     1      -4.496  -0.914  31.361  0.00  0.00    -0.000 C 
ATOM      9  C   UNL     1      -4.539  -2.245  31.008  0.00  0.00    +0.003 C 
ATOM     10  C   UNL     1      -5.775  -2.898  31.111  0.00  0.00    +0.037 C 
ENDROOT
BRANCH   1  14
ATOM     11  C   UNL     1      -9.613   2.103  29.972  0.00  0.00    +0.142 C 
ATOM     12  N   UNL     1      -8.389   2.838  30.247  0.00  0.00    -0.283 NA
ATOM     13  C   UNL     1      -7.476   1.831  30.845  0.00  0.00    +0.086 C 
ATOM     14  C   UNL     1      -8.472   1.009  31.555  0.00  0.00    +0.075 C 
ATOM     15  N   UNL     1      -9.442   0.761  30.528  0.00  0.00    -0.283 NA
ATOM     16  H   UNL     1      -8.565   3.599  30.903  0.00  0.00    +0.125 HD
ATOM     17  H   UNL     1      -9.088   0.109  29.829  0.00  0.00    +0.125 HD
ENDBRANCH   1  14
TORSDOF 1
