REMARK  Name = =
REMARK  5 active torsions:
REMARK  status: ('A' for Active; 'I' for Inactive)
REMARK    1  A    between atoms: C_1  and  C_8
REMARK    2  A    between atoms: C_2  and  O_13
REMARK    3  A    between atoms: C_3  and  O_12
REMARK    4  A    between atoms: N_7  and  C_10
REMARK    5  A    between atoms: C_10  and  N_11
REMARK                            x       y       z     vdW  Elec       q    Type
REMARK                         _______ _______ _______ _____ _____    ______ ____
ROOT
ATOM      1  C   UNL     1      -0.095  -2.323  27.935  0.00  0.00    +0.090 C 
ATOM      2  C   UNL     1       0.652  -3.256  27.303  0.00  0.00    +0.172 C 
ATOM      3  C   UNL     1       2.034  -3.032  27.019  0.00  0.00    +0.168 C 
ATOM      4  C   UNL     1       2.606  -1.871  27.381  0.00  0.00    +0.040 C 
ATOM      5  C   UNL     1       1.872  -0.907  28.015  0.00  0.00    +0.003 C 
ATOM      6  C   UNL     1       0.556  -1.112  28.291  0.00  0.00    +0.008 C 
ENDROOT
BRANCH   1   8
ATOM      7  N   UNL     1      -2.073  -3.570  28.775  0.00  0.00    -0.286 N 
ATOM      8  C   UNL     1      -1.349  -2.419  28.602  0.00  0.00    +0.250 C 
ATOM      9  O   UNL     1      -1.945  -1.436  29.151  0.00  0.00    -0.270 OA
ATOM     10  H   UNL     1      -1.725  -4.418  28.416  0.00  0.00    +0.151 HD
BRANCH   7  11
ATOM     11  C   UNL     1      -3.288  -3.562  29.448  0.00  0.00    +0.178 C 
BRANCH  11  12
ATOM     12  N   UNL     1      -3.640  -4.790  29.543  0.00  0.00    -0.226 NA
ATOM     13  H   UNL     1      -4.533  -4.851  30.032  0.00  0.00    +0.143 HD
ENDBRANCH  11  12
ENDBRANCH   7  11
ENDBRANCH   1   8
BRANCH   3  14
ATOM     14  O   UNL     1       2.730  -4.043  26.372  0.00  0.00    -0.503 OA
ATOM     15  H   UNL     1       2.292  -4.837  26.137  0.00  0.00    +0.292 HD
ENDBRANCH   3  14
BRANCH   2  16
ATOM     16  O   UNL     1       0.133  -4.436  26.889  0.00  0.00    -0.503 OA
ATOM     17  H   UNL     1      -0.769  -4.633  27.050  0.00  0.00    +0.292 HD
ENDBRANCH   2  16
TORSDOF 5
