REMARK  Name = =
REMARK  4 active torsions:
REMARK  status: ('A' for Active; 'I' for Inactive)
REMARK    1  A    between atoms: N_1  and  C_6
REMARK    2  A    between atoms: C_2  and  C_17
REMARK    3  A    between atoms: C_18  and  O_24
REMARK    4  A    between atoms: C_19  and  O_23
REMARK                            x       y       z     vdW  Elec       q    Type
REMARK                         _______ _______ _______ _____ _____    ______ ____
ROOT
ATOM      1  N   UNL     1       2.236  -2.922  26.364  0.00  0.00    -0.215 N 
ATOM      2  C   UNL     1       0.857  -2.807  26.608  0.00  0.00    +0.261 C 
ATOM      3  O   UNL     1       0.141  -2.324  25.657  0.00  0.00    -0.269 OA
ATOM      4  C   UNL     1       3.102  -3.671  27.177  0.00  0.00    +0.166 C 
ATOM      5  N   UNL     1       2.941  -4.940  27.291  0.00  0.00    -0.282 NA
ATOM      6  H   UNL     1       3.549  -5.464  27.861  0.00  0.00    +0.188 HD
ENDROOT
BRANCH   1   7
ATOM      7  C   UNL     1       2.813  -2.306  25.184  0.00  0.00    +0.076 C 
ATOM      8  C   UNL     1       3.125  -0.984  24.982  0.00  0.00    +0.088 C 
ATOM      9  N   UNL     1       3.644  -0.844  23.741  0.00  0.00    -0.228 N 
ATOM     10  C   UNL     1       3.681  -2.037  23.123  0.00  0.00    +0.060 C 
ATOM     11  C   UNL     1       3.158  -2.971  24.027  0.00  0.00    +0.029 C 
ATOM     12  C   UNL     1       3.092  -4.276  23.622  0.00  0.00    +0.003 C 
ATOM     13  C   UNL     1       3.512  -4.693  22.383  0.00  0.00    +0.000 C 
ATOM     14  C   UNL     1       4.028  -3.782  21.486  0.00  0.00    +0.001 C 
ATOM     15  C   UNL     1       4.100  -2.462  21.885  0.00  0.00    +0.015 C 
ATOM     16  C   UNL     1       4.083   0.384  23.175  0.00  0.00    +0.311 C 
ATOM     17  O   UNL     1       4.559   0.456  22.015  0.00  0.00    -0.264 OA
ENDBRANCH   1   7
BRANCH   2  18
ATOM     18  C   UNL     1       0.135  -3.170  27.811  0.00  0.00    +0.091 C 
ATOM     19  C   UNL     1      -1.259  -3.215  27.861  0.00  0.00    +0.172 C 
ATOM     20  C   UNL     1      -1.932  -3.502  29.044  0.00  0.00    +0.168 C 
ATOM     21  C   UNL     1      -1.249  -3.749  30.194  0.00  0.00    +0.040 C 
ATOM     22  C   UNL     1       0.122  -3.708  30.160  0.00  0.00    +0.003 C 
ATOM     23  C   UNL     1       0.817  -3.424  28.993  0.00  0.00    +0.008 C 
BRANCH  20  24
ATOM     24  O   UNL     1      -3.319  -3.544  29.084  0.00  0.00    -0.503 OA
ATOM     25  H   UNL     1      -3.815  -3.378  28.307  0.00  0.00    +0.292 HD
ENDBRANCH  20  24
BRANCH  19  26
ATOM     26  O   UNL     1      -2.043  -2.989  26.778  0.00  0.00    -0.503 OA
ATOM     27  H   UNL     1      -1.652  -2.790  25.950  0.00  0.00    +0.292 HD
ENDBRANCH  19  26
ENDBRANCH   2  18
TORSDOF 4
