REMARK  Name = =
REMARK  2 active torsions:
REMARK  status: ('A' for Active; 'I' for Inactive)
REMARK    1  A    between atoms: N_2  and  N_16
REMARK    2  A    between atoms: C_4  and  C_6
REMARK                            x       y       z     vdW  Elec       q    Type
REMARK                         _______ _______ _______ _____ _____    ______ ____
ROOT
ATOM      1  C   UNL     1     -10.552  -2.338  31.289  0.00  0.00    +0.164 C 
ATOM      2  N   UNL     1     -10.745  -2.540  32.705  0.00  0.00    -0.180 NA
ATOM      3  C   UNL     1      -9.609  -1.917  33.358  0.00  0.00    +0.110 C 
ATOM      4  C   UNL     1      -8.692  -1.480  32.207  0.00  0.00    +0.077 C 
ATOM      5  N   UNL     1      -9.081  -2.455  31.204  0.00  0.00    -0.282 NA
ATOM      6  H   UNL     1      -8.734  -2.204  30.278  0.00  0.00    +0.125 HD
ENDROOT
BRANCH   4   7
ATOM      7  C   UNL     1      -7.252  -1.540  32.607  0.00  0.00    +0.045 C 
ATOM      8  C   UNL     1      -6.689  -2.914  32.491  0.00  0.00    +0.053 C 
ATOM      9  C   UNL     1      -5.161  -2.933  32.652  0.00  0.00    +0.206 C 
ATOM     10  O   UNL     1      -4.711  -2.243  31.468  0.00  0.00    -0.476 OA
ATOM     11  C   UNL     1      -5.176  -0.936  31.383  0.00  0.00    +0.135 C 
ATOM     12  C   UNL     1      -6.390  -0.544  31.908  0.00  0.00    +0.013 C 
ATOM     13  C   UNL     1      -6.802   0.786  31.792  0.00  0.00    -0.001 C 
ATOM     14  C   UNL     1      -6.041   1.750  31.167  0.00  0.00    -0.000 C 
ATOM     15  C   UNL     1      -4.826   1.362  30.640  0.00  0.00    +0.003 C 
ATOM     16  C   UNL     1      -4.417   0.049  30.753  0.00  0.00    +0.037 C 
ENDBRANCH   4   7
BRANCH   2  17
ATOM     17  N   UNL     1     -11.814  -3.216  33.293  0.00  0.00    -0.180 N 
ATOM     18  C   UNL     1     -11.753  -4.446  33.889  0.00  0.00    +0.102 C 
ATOM     19  C   UNL     1     -13.021  -4.749  34.331  0.00  0.00    +0.083 C 
ATOM     20  N   UNL     1     -13.803  -3.688  33.985  0.00  0.00    -0.265 N 
ATOM     21  C   UNL     1     -13.075  -2.754  33.352  0.00  0.00    +0.325 C 
ATOM     22  O   UNL     1     -13.539  -1.663  32.920  0.00  0.00    -0.251 OA
ATOM     23  H   UNL     1     -14.767  -3.616  34.173  0.00  0.00    +0.157 HD
ENDBRANCH   2  17
TORSDOF 2
