REMARK  Name = =
REMARK  4 active torsions:
REMARK  status: ('A' for Active; 'I' for Inactive)
REMARK    1  A    between atoms: N_2  and  N_16
REMARK    2  A    between atoms: C_4  and  C_6
REMARK    3  A    between atoms: C_17  and  N_22
REMARK    4  A    between atoms: N_22  and  O_25
REMARK                            x       y       z     vdW  Elec       q    Type
REMARK                         _______ _______ _______ _____ _____    ______ ____
ROOT
ATOM      1  C   UNL     1      -8.224  -3.147  32.272  0.00  0.00    +0.164 C 
ATOM      2  N   UNL     1      -7.000  -2.345  32.089  0.00  0.00    -0.179 NA
ATOM      3  C   UNL     1      -7.411  -1.137  31.413  0.00  0.00    +0.110 C 
ATOM      4  C   UNL     1      -8.930  -1.131  31.413  0.00  0.00    +0.077 C 
ATOM      5  N   UNL     1      -9.165  -2.590  31.309  0.00  0.00    -0.282 NA
ATOM      6  H   UNL     1      -8.967  -2.926  30.367  0.00  0.00    +0.125 HD
ENDROOT
BRANCH   4   7
ATOM      7  C   UNL     1      -9.527  -0.508  30.204  0.00  0.00    +0.045 C 
ATOM      8  C   UNL     1      -9.339   0.998  30.146  0.00  0.00    +0.053 C 
ATOM      9  C   UNL     1      -9.781   1.446  28.770  0.00  0.00    +0.206 C 
ATOM     10  O   UNL     1     -11.031   0.858  28.394  0.00  0.00    -0.476 OA
ATOM     11  C   UNL     1     -11.703  -0.009  29.244  0.00  0.00    +0.135 C 
ATOM     12  C   UNL     1     -10.993  -0.744  30.196  0.00  0.00    +0.013 C 
ATOM     13  C   UNL     1     -11.651  -1.602  31.039  0.00  0.00    -0.001 C 
ATOM     14  C   UNL     1     -13.015  -1.782  30.992  0.00  0.00    -0.000 C 
ATOM     15  C   UNL     1     -13.730  -1.068  30.063  0.00  0.00    +0.003 C 
ATOM     16  C   UNL     1     -13.081  -0.191  29.197  0.00  0.00    +0.037 C 
ENDBRANCH   4   7
BRANCH   2  17
ATOM     17  N   UNL     1      -5.755  -2.786  32.539  0.00  0.00    -0.165 N 
ATOM     18  C   UNL     1      -4.565  -2.684  31.924  0.00  0.00    +0.167 C 
ATOM     19  C   UNL     1      -3.601  -3.259  32.765  0.00  0.00    +0.100 C 
ATOM     20  N   UNL     1      -4.219  -3.689  33.853  0.00  0.00    -0.264 N 
ATOM     21  C   UNL     1      -5.507  -3.413  33.731  0.00  0.00    +0.326 C 
ATOM     22  O   UNL     1      -6.376  -3.691  34.597  0.00  0.00    -0.251 OA
ATOM     23  H   UNL     1      -3.794  -4.137  34.620  0.00  0.00    +0.157 HD
BRANCH  18  24
ATOM     24  N   UNL     1      -4.290  -2.115  30.639  0.00  0.00    -0.125 N 
ATOM     25  C   UNL     1      -4.000  -2.981  29.569  0.00  0.00    +0.332 C 
ATOM     26  O   UNL     1      -3.969  -4.211  29.732  0.00  0.00    -0.262 OA
BRANCH  24  27
ATOM     27  O   UNL     1      -4.295  -0.790  30.453  0.00  0.00    -0.286 OA
ATOM     28  H   UNL     1      -4.513  -0.347  31.288  0.00  0.00    +0.242 HD
ENDBRANCH  24  27
ENDBRANCH  18  24
ENDBRANCH   2  17
TORSDOF 4
