REMARK  Name = =
REMARK  5 active torsions:
REMARK  status: ('A' for Active; 'I' for Inactive)
REMARK    1  A    between atoms: N_2  and  N_21
REMARK    2  A    between atoms: C_4  and  C_6
REMARK    3  A    between atoms: C_6  and  N_16
REMARK    4  A    between atoms: C_22  and  N_27
REMARK    5  A    between atoms: N_27  and  O_30
REMARK                            x       y       z     vdW  Elec       q    Type
REMARK                         _______ _______ _______ _____ _____    ______ ____
ROOT
ATOM      1  C   UNL     1     -13.224   3.443  24.848  0.00  0.00    +0.164 C 
ATOM      2  N   UNL     1     -14.203   3.786  25.861  0.00  0.00    -0.178 NA
ATOM      3  C   UNL     1     -14.376   5.247  25.819  0.00  0.00    +0.112 C 
ATOM      4  C   UNL     1     -14.059   5.468  24.348  0.00  0.00    +0.096 C 
ATOM      5  N   UNL     1     -12.832   4.705  24.233  0.00  0.00    -0.281 NA
ATOM      6  H   UNL     1     -12.068   5.148  24.743  0.00  0.00    +0.125 HD
ENDROOT
BRANCH   4   7
ATOM      7  C   UNL     1     -13.914   6.915  24.009  0.00  0.00    +0.121 C 
ATOM      8  C   UNL     1     -12.733   7.578  24.631  0.00  0.00    +0.073 C 
ATOM      9  C   UNL     1     -12.767   9.060  24.394  0.00  0.00    +0.208 C 
ATOM     10  O   UNL     1     -13.314   9.435  23.146  0.00  0.00    -0.476 OA
ATOM     11  C   UNL     1     -13.537   8.443  22.167  0.00  0.00    +0.136 C 
ATOM     12  C   UNL     1     -13.845   7.148  22.551  0.00  0.00    +0.031 C 
ATOM     13  C   UNL     1     -14.071   6.143  21.637  0.00  0.00    +0.000 C 
ATOM     14  C   UNL     1     -13.981   6.470  20.299  0.00  0.00    -0.000 C 
ATOM     15  C   UNL     1     -13.678   7.745  19.854  0.00  0.00    +0.003 C 
ATOM     16  C   UNL     1     -13.461   8.711  20.822  0.00  0.00    +0.037 C 
BRANCH   7  17
ATOM     17  N   UNL     1     -15.113   7.616  24.486  0.00  0.00    -0.189 N 
ATOM     18  N   UNL     1     -15.205   8.251  25.635  0.00  0.00    -0.154 NA
ATOM     19  C   UNL     1     -16.426   8.781  25.772  0.00  0.00    +0.218 C 
ATOM     20  N   UNL     1     -17.113   8.461  24.664  0.00  0.00    -0.203 NA
ATOM     21  C   UNL     1     -16.287   7.742  23.882  0.00  0.00    +0.186 C 
ENDBRANCH   7  17
ENDBRANCH   4   7
BRANCH   2  22
ATOM     22  N   UNL     1     -14.831   2.858  26.689  0.00  0.00    -0.165 N 
ATOM     23  C   UNL     1     -14.399   2.564  27.930  0.00  0.00    +0.167 C 
ATOM     24  C   UNL     1     -15.283   1.607  28.404  0.00  0.00    +0.100 C 
ATOM     25  N   UNL     1     -16.194   1.371  27.440  0.00  0.00    -0.264 N 
ATOM     26  C   UNL     1     -15.914   2.149  26.368  0.00  0.00    +0.326 C 
ATOM     27  O   UNL     1     -16.535   2.218  25.265  0.00  0.00    -0.251 OA
ATOM     28  H   UNL     1     -16.943   0.735  27.505  0.00  0.00    +0.157 HD
BRANCH  23  29
ATOM     29  N   UNL     1     -13.308   3.068  28.657  0.00  0.00    -0.125 N 
ATOM     30  C   UNL     1     -12.162   2.267  28.875  0.00  0.00    +0.332 C 
ATOM     31  O   UNL     1     -11.163   2.689  29.524  0.00  0.00    -0.262 OA
BRANCH  29  32
ATOM     32  O   UNL     1     -13.340   4.314  29.155  0.00  0.00    -0.286 OA
ATOM     33  H   UNL     1     -14.184   4.733  28.924  0.00  0.00    +0.242 HD
ENDBRANCH  29  32
ENDBRANCH  23  29
ENDBRANCH   2  22
TORSDOF 5
