REMARK  Name = =
REMARK  6 active torsions:
REMARK  status: ('A' for Active; 'I' for Inactive)
REMARK    1  A    between atoms: C_1  and  C_8
REMARK    2  A    between atoms: C_2  and  O_23
REMARK    3  A    between atoms: C_3  and  O_24
REMARK    4  A    between atoms: N_7  and  C_12
REMARK    5  A    between atoms: O_24  and  N_25
REMARK    6  A    between atoms: C_32  and  C_34
REMARK                            x       y       z     vdW  Elec       q    Type
REMARK                         _______ _______ _______ _____ _____    ______ ____
ROOT
ATOM      1  C   UNL     1       2.173  -7.546  27.166  0.00  0.00    +0.091 C 
ATOM      2  C   UNL     1       2.258  -6.745  26.039  0.00  0.00    +0.175 C 
ATOM      3  C   UNL     1       3.273  -6.939  25.048  0.00  0.00    +0.199 C 
ATOM      4  C   UNL     1       4.169  -7.955  25.248  0.00  0.00    +0.043 C 
ATOM      5  C   UNL     1       4.121  -8.775  26.354  0.00  0.00    +0.004 C 
ATOM      6  C   UNL     1       3.127  -8.550  27.284  0.00  0.00    +0.008 C 
ENDROOT
BRANCH   1   8
ATOM      7  N   UNL     1       0.299  -8.241  28.693  0.00  0.00    -0.215 N 
ATOM      8  C   UNL     1       1.194  -7.294  28.202  0.00  0.00    +0.261 C 
ATOM      9  O   UNL     1       1.113  -6.123  28.734  0.00  0.00    -0.269 OA
ATOM     10  C   UNL     1       0.025  -9.465  28.070  0.00  0.00    +0.166 C 
ATOM     11  N   UNL     1      -0.493  -9.437  26.871  0.00  0.00    -0.282 NA
ATOM     12  H   UNL     1      -0.698 -10.279  26.404  0.00  0.00    +0.188 HD
BRANCH   7  13
ATOM     13  C   UNL     1      -0.495  -7.983  29.883  0.00  0.00    +0.076 C 
ATOM     14  C   UNL     1      -1.862  -8.080  30.003  0.00  0.00    +0.088 C 
ATOM     15  N   UNL     1      -2.205  -7.762  31.264  0.00  0.00    -0.228 N 
ATOM     16  C   UNL     1      -1.099  -7.454  31.985  0.00  0.00    +0.060 C 
ATOM     17  C   UNL     1      -0.030  -7.593  31.119  0.00  0.00    +0.029 C 
ATOM     18  C   UNL     1       1.246  -7.344  31.572  0.00  0.00    +0.003 C 
ATOM     19  C   UNL     1       1.403  -6.958  32.900  0.00  0.00    +0.000 C 
ATOM     20  C   UNL     1       0.354  -6.816  33.771  0.00  0.00    +0.001 C 
ATOM     21  C   UNL     1      -0.924  -7.071  33.297  0.00  0.00    +0.015 C 
ATOM     22  C   UNL     1      -3.532  -7.744  31.785  0.00  0.00    +0.311 C 
ATOM     23  O   UNL     1      -4.505  -8.041  31.055  0.00  0.00    -0.264 OA
ENDBRANCH   7  13
ENDBRANCH   1   8
BRANCH   2  24
ATOM     24  O   UNL     1       1.361  -5.734  25.836  0.00  0.00    -0.503 OA
ATOM     25  H   UNL     1       0.683  -5.577  26.463  0.00  0.00    +0.292 HD
ENDBRANCH   2  24
BRANCH   3  26
ATOM     26  O   UNL     1       3.252  -6.097  24.002  0.00  0.00    -0.398 OA
BRANCH  26  27
ATOM     27  N   UNL     1       2.787  -6.012  22.844  0.00  0.00    -0.112 NA
ATOM     28  C   UNL     1       1.622  -6.679  22.402  0.00  0.00    +0.140 C 
ATOM     29  C   UNL     1       1.388  -5.993  21.068  0.00  0.00    -0.006 C 
ATOM     30  C   UNL     1       2.567  -5.428  20.645  0.00  0.00    -0.005 C 
ATOM     31  C   UNL     1       3.573  -5.737  21.688  0.00  0.00    +0.140 C 
ATOM     32  C   UNL     1       2.589  -4.743  19.436  0.00  0.00    -0.003 C 
ATOM     33  C   UNL     1       1.439  -4.637  18.682  0.00  0.00    -0.005 C 
ATOM     34  C   UNL     1       0.258  -5.194  19.091  0.00  0.00    -0.022 C 
ATOM     35  C   UNL     1       0.261  -5.881  20.314  0.00  0.00    -0.007 C 
BRANCH  34  36
ATOM     36  C   UNL     1      -1.002  -5.112  18.317  0.00  0.00    +0.026 C 
ATOM     37  C   UNL     1      -0.937  -6.178  17.247  0.00  0.00    +0.005 C 
ENDBRANCH  34  36
ENDBRANCH  26  27
ENDBRANCH   3  26
TORSDOF 6
