REMARK  Name = =
REMARK  0 active torsions:
REMARK  status: ('A' for Active; 'I' for Inactive)
REMARK                            x       y       z     vdW  Elec       q    Type
REMARK                         _______ _______ _______ _____ _____    ______ ____
ROOT
ATOM      1  N   UNL     1     -14.429 -43.041  27.121  0.00  0.00    -0.268 NA
ATOM      2  C   UNL     1     -13.784 -43.434  25.932  0.00  0.00    +0.099 C 
ATOM      3  C   UNL     1     -14.413 -43.016  24.657  0.00  0.00    +0.188 C 
ATOM      4  O   UNL     1     -15.219 -41.894  24.748  0.00  0.00    -0.345 OA
ATOM      5  C   UNL     1     -16.239 -42.230  25.664  0.00  0.00    +0.169 C 
ATOM      6  C   UNL     1     -15.593 -42.251  27.013  0.00  0.00    +0.157 C 
ENDROOT
TORSDOF 0
