REMARK  Name = =
REMARK  5 active torsions:
REMARK  status: ('A' for Active; 'I' for Inactive)
REMARK    1  A    between atoms: C_2  and  N_13
REMARK    2  A    between atoms: C_9  and  C_10
REMARK    3  A    between atoms: C_10  and  O_12
REMARK    4  A    between atoms: N_13  and  N_14
REMARK    5  A    between atoms: C_15  and  O_17
REMARK                            x       y       z     vdW  Elec       q    Type
REMARK                         _______ _______ _______ _____ _____    ______ ____
ROOT
ATOM      1  N   UNL     1     -12.100 -43.231  29.766  0.00  0.00    -0.234 N 
ATOM      2  C   UNL     1     -12.908 -44.387  29.373  0.00  0.00    +0.173 C 
ATOM      3  C   UNL     1     -13.829 -43.931  30.481  0.00  0.00    +0.132 C 
ATOM      4  C   UNL     1     -12.569 -43.434  31.086  0.00  0.00    +0.235 C 
ATOM      5  O   UNL     1     -12.145 -43.278  32.262  0.00  0.00    -0.274 OA
ATOM      6  S   UNL     1     -13.554 -44.212  27.716  0.00  0.00    -0.102 S 
ATOM      7  C   UNL     1     -13.069 -42.593  27.087  0.00  0.00    +0.088 C 
ATOM      8  C   UNL     1     -11.763 -42.210  27.623  0.00  0.00    +0.007 C 
ATOM      9  C   UNL     1     -11.323 -42.505  28.855  0.00  0.00    +0.128 C 
ENDROOT
BRANCH   9  10
ATOM     10  C   UNL     1     -10.005 -42.041  29.249  0.00  0.00    +0.352 C 
ATOM     11  O   UNL     1      -9.444 -41.102  28.620  0.00  0.00    -0.244 OA
BRANCH  10  12
ATOM     12  O   UNL     1      -9.320 -42.601  30.313  0.00  0.00    -0.476 OA
ATOM     13  H   UNL     1      -9.706 -43.300  30.803  0.00  0.00    +0.295 HD
ENDBRANCH  10  12
ENDBRANCH   9  10
BRANCH   2  14
ATOM     14  N   UNL     1     -12.276 -45.677  29.642  0.00  0.00    -0.204 NA
ATOM     15  H   UNL     1     -12.113 -46.153  28.755  0.00  0.00    +0.148 HD
BRANCH  14  16
ATOM     16  N   UNL     1     -11.058 -45.546  30.310  0.00  0.00    -0.214 N 
ATOM     17  C   UNL     1      -9.834 -45.878  29.665  0.00  0.00    +0.412 C 
ATOM     18  O   UNL     1      -9.899 -46.288  28.485  0.00  0.00    -0.225 OA
ATOM     19  H   UNL     1     -11.045 -45.220  31.239  0.00  0.00    +0.172 HD
BRANCH  17  20
ATOM     20  O   UNL     1      -8.595 -45.760  30.297  0.00  0.00    -0.465 OA
ATOM     21  H   UNL     1      -8.547 -45.453  31.181  0.00  0.00    +0.297 HD
ENDBRANCH  17  20
ENDBRANCH  14  16
ENDBRANCH   2  14
TORSDOF 5
