REMARK  Name = =
REMARK  10 active torsions:
REMARK  status: ('A' for Active; 'I' for Inactive)
REMARK    1  A    between atoms: N_1  and  C_3
REMARK    2  A    between atoms: N_1  and  N_14
REMARK    3  A    between atoms: N_1  and  C_18
REMARK    4  A    between atoms: C_10  and  C_11
REMARK    5  A    between atoms: C_11  and  O_13
REMARK    6  A    between atoms: C_15  and  O_17
REMARK    7  A    between atoms: C_18  and  C_20
REMARK    8  A    between atoms: N_21  and  N_22
REMARK    9  A    between atoms: N_22  and  C_23
REMARK   10  A    between atoms: C_23  and  N_25
REMARK                            x       y       z     vdW  Elec       q    Type
REMARK                         _______ _______ _______ _____ _____    ______ ____
ROOT
ATOM      1  N   UNL     1     -10.780 -43.181  32.316  0.00  0.00    -0.175 NA
ENDROOT
BRANCH   1   3
ATOM      2  N   UNL     1      -9.265 -44.027  30.532  0.00  0.00    -0.234 N 
ATOM      3  C   UNL     1     -10.517 -43.566  31.019  0.00  0.00    +0.176 C 
ATOM      4  C   UNL     1     -10.428 -42.523  29.936  0.00  0.00    +0.132 C 
ATOM      5  C   UNL     1      -8.960 -42.693  30.185  0.00  0.00    +0.235 C 
ATOM      6  O   UNL     1      -7.951 -41.963  30.111  0.00  0.00    -0.274 OA
ATOM      7  S   UNL     1     -11.832 -44.794  30.525  0.00  0.00    -0.101 S 
ATOM      8  C   UNL     1     -11.037 -46.046  29.526  0.00  0.00    +0.088 C 
ATOM      9  C   UNL     1      -9.667 -46.332  30.049  0.00  0.00    +0.007 C 
ATOM     10  C   UNL     1      -8.841 -45.377  30.517  0.00  0.00    +0.128 C 
BRANCH  10  11
ATOM     11  C   UNL     1      -7.517 -45.795  30.949  0.00  0.00    +0.352 C 
ATOM     12  O   UNL     1      -7.325 -46.879  31.540  0.00  0.00    -0.244 OA
BRANCH  11  13
ATOM     13  O   UNL     1      -6.370 -45.004  30.722  0.00  0.00    -0.476 OA
ATOM     14  H   UNL     1      -6.449 -44.180  30.283  0.00  0.00    +0.295 HD
ENDBRANCH  11  13
ENDBRANCH  10  11
ENDBRANCH   1   3
BRANCH   1  15
ATOM     15  N   UNL     1     -12.069 -42.893  32.675  0.00  0.00    -0.210 N 
ATOM     16  C   UNL     1     -12.671 -41.707  32.145  0.00  0.00    +0.412 C 
ATOM     17  O   UNL     1     -12.003 -40.977  31.382  0.00  0.00    -0.225 OA
ATOM     18  H   UNL     1     -12.569 -43.486  33.282  0.00  0.00    +0.173 HD
BRANCH  16  19
ATOM     19  O   UNL     1     -13.963 -41.344  32.453  0.00  0.00    -0.465 OA
ATOM     20  H   UNL     1     -14.477 -41.881  33.024  0.00  0.00    +0.297 HD
ENDBRANCH  16  19
ENDBRANCH   1  15
BRANCH   1  21
ATOM     21  C   UNL     1      -9.789 -42.982  33.285  0.00  0.00    +0.121 C 
ATOM     22  C   UNL     1      -8.499 -42.533  32.564  0.00  0.00    +0.026 C 
BRANCH  21  23
ATOM     23  C   UNL     1     -10.068 -41.964  34.318  0.00  0.00    +0.109 C 
ATOM     24  N   UNL     1     -11.307 -41.546  34.406  0.00  0.00    -0.182 NA
BRANCH  24  25
ATOM     25  N   UNL     1     -11.685 -40.594  35.335  0.00  0.00    -0.218 N 
ATOM     26  H   UNL     1     -12.442 -40.008  35.105  0.00  0.00    +0.176 HD
BRANCH  25  27
ATOM     27  C   UNL     1     -11.064 -40.398  36.594  0.00  0.00    +0.147 C 
ATOM     28  S   UNL     1      -9.475 -40.683  36.780  0.00  0.00    -0.017 S 
BRANCH  27  29
ATOM     29  N   UNL     1     -11.849 -39.964  37.683  0.00  0.00    -0.339 N 
ATOM     30  H   UNL     1     -12.811 -39.794  37.560  0.00  0.00    +0.144 HD
ATOM     31  H   UNL     1     -11.435 -39.831  38.566  0.00  0.00    +0.144 HD
ENDBRANCH  27  29
ENDBRANCH  25  27
ENDBRANCH  24  25
ENDBRANCH  21  23
ENDBRANCH   1  21
TORSDOF 10
