REMARK  Name = =
REMARK  13 active torsions:
REMARK  status: ('A' for Active; 'I' for Inactive)
REMARK    1  A    between atoms: N_1  and  C_3
REMARK    2  A    between atoms: N_1  and  N_14
REMARK    3  A    between atoms: N_1  and  C_18
REMARK    4  A    between atoms: C_10  and  C_11
REMARK    5  A    between atoms: C_11  and  O_13
REMARK    6  A    between atoms: C_15  and  O_17
REMARK    7  A    between atoms: C_18  and  C_20
REMARK    8  A    between atoms: C_20  and  N_21
REMARK    9  A    between atoms: C_20  and  C_26
REMARK   10  A    between atoms: N_21  and  N_22
REMARK   11  A    between atoms: N_22  and  C_23
REMARK   12  A    between atoms: C_23  and  N_25
REMARK   13  A    between atoms: C_26  and  N_28
REMARK                            x       y       z     vdW  Elec       q    Type
REMARK                         _______ _______ _______ _____ _____    ______ ____
ROOT
ATOM      1  N   UNL     1     -11.389 -42.860  30.783  0.00  0.00    -0.179 NA
ENDROOT
BRANCH   1   3
ATOM      2  N   UNL     1      -9.334 -43.993  31.481  0.00  0.00    -0.234 N 
ATOM      3  C   UNL     1     -10.766 -43.769  31.625  0.00  0.00    +0.176 C 
ATOM      4  C   UNL     1     -11.057 -45.231  31.465  0.00  0.00    +0.132 C 
ATOM      5  C   UNL     1      -9.663 -45.248  30.950  0.00  0.00    +0.235 C 
ATOM      6  O   UNL     1      -9.091 -46.163  30.269  0.00  0.00    -0.274 OA
ATOM      7  S   UNL     1     -10.952 -43.263  33.356  0.00  0.00    -0.101 S 
ATOM      8  C   UNL     1      -9.762 -41.917  33.543  0.00  0.00    +0.088 C 
ATOM      9  C   UNL     1      -8.536 -42.153  32.776  0.00  0.00    +0.007 C 
ATOM     10  C   UNL     1      -8.334 -43.076  31.852  0.00  0.00    +0.128 C 
BRANCH  10  11
ATOM     11  C   UNL     1      -6.990 -43.104  31.225  0.00  0.00    +0.352 C 
ATOM     12  O   UNL     1      -6.655 -44.067  30.496  0.00  0.00    -0.244 OA
BRANCH  11  13
ATOM     13  O   UNL     1      -6.063 -42.092  31.412  0.00  0.00    -0.476 OA
ATOM     14  H   UNL     1      -6.276 -41.355  31.950  0.00  0.00    +0.295 HD
ENDBRANCH  11  13
ENDBRANCH  10  11
ENDBRANCH   1   3
BRANCH   1  15
ATOM     15  N   UNL     1     -12.083 -41.858  31.385  0.00  0.00    -0.210 N 
ATOM     16  C   UNL     1     -13.380 -42.047  31.922  0.00  0.00    +0.412 C 
ATOM     17  O   UNL     1     -13.981 -43.159  31.876  0.00  0.00    -0.225 OA
ATOM     18  H   UNL     1     -11.668 -40.967  31.450  0.00  0.00    +0.173 HD
BRANCH  16  19
ATOM     19  O   UNL     1     -14.106 -41.022  32.549  0.00  0.00    -0.465 OA
ATOM     20  H   UNL     1     -13.735 -40.165  32.627  0.00  0.00    +0.297 HD
ENDBRANCH  16  19
ENDBRANCH   1  15
BRANCH   1  21
ATOM     21  C   UNL     1     -11.011 -42.733  29.440  0.00  0.00    +0.102 C 
ATOM     22  C   UNL     1     -10.602 -41.343  29.023  0.00  0.00    +0.021 C 
BRANCH  21  23
ATOM     23  C   UNL     1     -12.194 -43.103  28.561  0.00  0.00    +0.152 C 
BRANCH  23  24
ATOM     24  C   UNL     1     -12.690 -44.503  28.705  0.00  0.00    +0.074 C 
ATOM     25  S   UNL     1     -11.904 -45.752  28.016  0.00  0.00    -0.038 S 
BRANCH  24  26
ATOM     26  N   UNL     1     -13.859 -44.815  29.446  0.00  0.00    -0.354 N 
ATOM     27  H   UNL     1     -14.371 -44.097  29.883  0.00  0.00    +0.143 HD
ATOM     28  H   UNL     1     -14.158 -45.750  29.524  0.00  0.00    +0.143 HD
ENDBRANCH  24  26
ENDBRANCH  23  24
BRANCH  23  29
ATOM     29  N   UNL     1     -12.726 -42.334  27.824  0.00  0.00    -0.126 NA
BRANCH  29  30
ATOM     30  N   UNL     1     -13.413 -41.621  26.974  0.00  0.00    -0.244 N 
ATOM     31  H   UNL     1     -13.439 -40.644  27.093  0.00  0.00    +0.170 HD
BRANCH  30  32
ATOM     32  C   UNL     1     -14.139 -42.202  25.863  0.00  0.00    +0.143 C 
ATOM     33  S   UNL     1     -14.484 -43.787  25.948  0.00  0.00    -0.018 S 
BRANCH  32  34
ATOM     34  N   UNL     1     -14.548 -41.467  24.732  0.00  0.00    -0.340 N 
ATOM     35  H   UNL     1     -15.039 -41.914  24.006  0.00  0.00    +0.144 HD
ATOM     36  H   UNL     1     -14.342 -40.506  24.668  0.00  0.00    +0.144 HD
ENDBRANCH  32  34
ENDBRANCH  30  32
ENDBRANCH  29  30
ENDBRANCH  23  29
ENDBRANCH  21  23
ENDBRANCH   1  21
TORSDOF 13
