REMARK  Name = =
REMARK  0 active torsions:
REMARK  status: ('A' for Active; 'I' for Inactive)
REMARK                            x       y       z     vdW  Elec       q    Type
REMARK                         _______ _______ _______ _____ _____    ______ ____
ROOT
ATOM      1  C   UNL     1      -4.389  -3.935  30.675  0.00  0.00    +0.035 C 
ATOM      2  C   UNL     1      -3.428  -3.364  29.961  0.00  0.00    +0.035 C 
ATOM      3  C   UNL     1      -2.165  -4.036  30.337  0.00  0.00    +0.142 C 
ATOM      4  O   UNL     1      -2.614  -5.282  30.763  0.00  0.00    -0.354 OA
ATOM      5  C   UNL     1      -3.759  -5.004  31.540  0.00  0.00    +0.142 C 
ENDROOT
TORSDOF 0
