REMARK  Name = =
REMARK  0 active torsions:
REMARK  status: ('A' for Active; 'I' for Inactive)
REMARK                            x       y       z     vdW  Elec       q    Type
REMARK                         _______ _______ _______ _____ _____    ______ ____
ROOT
ATOM      1  C   UNL     1      -4.160  -3.278  32.121  0.00  0.00    +0.145 C 
ATOM      2  O   UNL     1      -3.768  -2.573  31.011  0.00  0.00    -0.351 OA
ATOM      3  C   UNL     1      -3.956  -3.240  29.825  0.00  0.00    +0.174 C 
ATOM      4  C   UNL     1      -3.273  -4.570  29.753  0.00  0.00    +0.174 C 
ATOM      5  O   UNL     1      -1.999  -4.428  29.288  0.00  0.00    -0.326 OA
ATOM      6  C   UNL     1      -1.163  -5.486  29.493  0.00  0.00    +0.264 C 
ATOM      7  O   UNL     1      -1.195  -6.396  28.462  0.00  0.00    -0.321 OA
ATOM      8  C   UNL     1      -0.136  -7.297  28.516  0.00  0.00    +0.209 C 
ATOM      9  C   UNL     1       0.450  -7.385  29.875  0.00  0.00    +0.183 C 
ATOM     10  O   UNL     1       1.624  -7.531  30.035  0.00  0.00    -0.293 OA
ATOM     11  C   UNL     1      -0.447  -7.288  31.047  0.00  0.00    +0.102 C 
ATOM     12  C   UNL     1      -1.335  -6.092  30.854  0.00  0.00    +0.179 C 
ATOM     13  O   UNL     1      -2.652  -6.480  31.044  0.00  0.00    -0.350 OA
ATOM     14  C   UNL     1      -3.444  -5.359  30.985  0.00  0.00    +0.147 C 
ATOM     15  C   UNL     1      -3.417  -4.563  32.261  0.00  0.00    +0.064 C 
ENDROOT
TORSDOF 0
