REMARK  Name = =
REMARK  5 active torsions:
REMARK  status: ('A' for Active; 'I' for Inactive)
REMARK    1  A    between atoms: C_1  and  O_16
REMARK    2  A    between atoms: O_16  and  P_17
REMARK    3  A    between atoms: P_17  and  O_19
REMARK    4  A    between atoms: P_17  and  O_20
REMARK    5  A    between atoms: O_20  and  S_21
REMARK                            x       y       z     vdW  Elec       q    Type
REMARK                         _______ _______ _______ _____ _____    ______ ____
ROOT
ATOM      1  C   UNL     1       1.835  -6.505  27.724  0.00  0.00    +0.245 C 
ATOM      2  O   UNL     1       0.640  -6.043  27.180  0.00  0.00    -0.327 OA
ATOM      3  C   UNL     1       0.237  -4.948  27.925  0.00  0.00    +0.177 C 
ATOM      4  C   UNL     1      -0.147  -5.367  29.303  0.00  0.00    +0.174 C 
ATOM      5  O   UNL     1      -1.307  -6.152  29.334  0.00  0.00    -0.326 OA
ATOM      6  C   UNL     1      -1.647  -6.335  30.646  0.00  0.00    +0.264 C 
ATOM      7  O   UNL     1      -2.886  -6.839  30.875  0.00  0.00    -0.321 OA
ATOM      8  C   UNL     1      -3.000  -8.212  30.767  0.00  0.00    +0.209 C 
ATOM      9  C   UNL     1      -2.122  -8.824  31.788  0.00  0.00    +0.183 C 
ATOM     10  O   UNL     1      -2.536  -9.715  32.489  0.00  0.00    -0.293 OA
ATOM     11  C   UNL     1      -0.743  -8.308  31.914  0.00  0.00    +0.102 C 
ATOM     12  C   UNL     1      -0.600  -6.881  31.527  0.00  0.00    +0.179 C 
ATOM     13  O   UNL     1       0.678  -6.542  31.235  0.00  0.00    -0.350 OA
ATOM     14  C   UNL     1       0.941  -6.148  29.959  0.00  0.00    +0.150 C 
ATOM     15  C   UNL     1       1.585  -7.167  29.084  0.00  0.00    +0.094 C 
ENDROOT
BRANCH   1  16
ATOM     16  O   UNL     1       2.714  -5.449  27.962  0.00  0.00    -0.271 OA
BRANCH  16  17
ATOM     17  P   UNL     1       4.113  -5.638  27.051  0.00  0.00    +0.320 P 
ATOM     18  S   UNL     1       4.365  -7.250  26.540  0.00  0.00    +0.023 S 
BRANCH  17  19
ATOM     19  O   UNL     1       5.421  -5.143  28.034  0.00  0.00    -0.326 OA
ATOM     20  H   UNL     1       5.495  -5.737  28.797  0.00  0.00    +0.219 HD
ENDBRANCH  17  19
BRANCH  17  21
ATOM     21  O   UNL     1       4.051  -4.563  25.753  0.00  0.00    -0.236 OA
BRANCH  21  22
ATOM     22  S   UNL     1       5.116  -3.307  25.889  0.00  0.00    +0.015 S 
ATOM     23  O   UNL     1       5.640  -2.955  24.497  0.00  0.00    -0.149 OA
ATOM     24  C   UNL     1       4.314  -1.976  26.242  0.00  0.00    +0.105 C 
ATOM     25  H   UNL     1       6.063  -3.666  26.797  0.00  0.00    +0.141 HD
ENDBRANCH  21  22
ENDBRANCH  17  21
ENDBRANCH  16  17
ENDBRANCH   1  16
TORSDOF 5
