REMARK  Name = =
REMARK  6 active torsions:
REMARK  status: ('A' for Active; 'I' for Inactive)
REMARK    1  A    between atoms: C_1  and  O_22
REMARK    2  A    between atoms: C_11  and  C_16
REMARK    3  A    between atoms: O_22  and  P_23
REMARK    4  A    between atoms: P_23  and  O_25
REMARK    5  A    between atoms: P_23  and  O_26
REMARK    6  A    between atoms: O_26  and  S_27
REMARK                            x       y       z     vdW  Elec       q    Type
REMARK                         _______ _______ _______ _____ _____    ______ ____
ROOT
ATOM      1  C   UNL     1      -0.224  -5.059  29.834  0.00  0.00    +0.245 C 
ATOM      2  O   UNL     1       0.790  -4.657  30.700  0.00  0.00    -0.327 OA
ATOM      3  C   UNL     1       1.967  -5.261  30.324  0.00  0.00    +0.177 C 
ATOM      4  C   UNL     1       2.515  -4.508  29.130  0.00  0.00    +0.174 C 
ATOM      5  O   UNL     1       3.484  -5.263  28.541  0.00  0.00    -0.326 OA
ATOM      6  C   UNL     1       3.460  -5.332  27.181  0.00  0.00    +0.265 C 
ATOM      7  O   UNL     1       3.124  -6.545  26.644  0.00  0.00    -0.321 OA
ATOM      8  C   UNL     1       3.816  -6.669  25.423  0.00  0.00    +0.209 C 
ATOM      9  C   UNL     1       3.848  -5.396  24.670  0.00  0.00    +0.188 C 
ATOM     10  O   UNL     1       4.670  -5.248  23.795  0.00  0.00    -0.293 OA
ATOM     11  C   UNL     1       2.872  -4.337  25.007  0.00  0.00    +0.130 C 
ATOM     12  C   UNL     1       2.893  -4.144  26.498  0.00  0.00    +0.183 C 
ATOM     13  O   UNL     1       1.720  -3.665  27.013  0.00  0.00    -0.350 OA
ATOM     14  C   UNL     1       1.408  -4.058  28.271  0.00  0.00    +0.150 C 
ATOM     15  C   UNL     1       0.133  -4.812  28.390  0.00  0.00    +0.094 C 
ENDROOT
BRANCH  11  16
ATOM     16  C   UNL     1       3.217  -3.027  24.388  0.00  0.00    +0.063 C 
ATOM     17  N   UNL     1       2.704  -2.703  23.244  0.00  0.00    -0.194 NA
ATOM     18  N   UNL     1       3.016  -1.462  22.630  0.00  0.00    -0.258 N 
ATOM     19  C   UNL     1       3.433  -0.412  23.572  0.00  0.00    +0.107 C 
ATOM     20  C   UNL     1       4.650  -0.994  24.297  0.00  0.00    +0.029 C 
ATOM     21  C   UNL     1       4.151  -2.147  25.136  0.00  0.00    +0.045 C 
ATOM     22  H   UNL     1       2.958  -1.317  21.658  0.00  0.00    +0.169 HD
ENDBRANCH  11  16
BRANCH   1  23
ATOM     23  O   UNL     1      -1.373  -4.384  30.218  0.00  0.00    -0.271 OA
BRANCH  23  24
ATOM     24  P   UNL     1      -2.575  -5.518  30.555  0.00  0.00    +0.320 P 
ATOM     25  S   UNL     1      -2.991  -5.524  32.231  0.00  0.00    +0.023 S 
BRANCH  24  26
ATOM     26  O   UNL     1      -4.007  -5.140  29.703  0.00  0.00    -0.326 OA
ATOM     27  H   UNL     1      -4.335  -4.274  29.990  0.00  0.00    +0.219 HD
ENDBRANCH  24  26
BRANCH  24  28
ATOM     28  O   UNL     1      -2.061  -7.017  30.017  0.00  0.00    -0.236 OA
BRANCH  28  29
ATOM     29  S   UNL     1      -1.483  -7.987  31.231  0.00  0.00    +0.015 S 
ATOM     30  O   UNL     1      -0.816  -7.180  32.346  0.00  0.00    -0.149 OA
ATOM     31  C   UNL     1      -2.722  -8.602  32.021  0.00  0.00    +0.105 C 
ATOM     32  H   UNL     1      -0.642  -8.872  30.631  0.00  0.00    +0.141 HD
ENDBRANCH  28  29
ENDBRANCH  24  28
ENDBRANCH  23  24
ENDBRANCH   1  23
TORSDOF 6
