REMARK  Name = =
REMARK  12 active torsions:
REMARK  status: ('A' for Active; 'I' for Inactive)
REMARK    1  A    between atoms: C_1  and  C_9
REMARK    2  A    between atoms: C_1  and  C_24
REMARK    3  A    between atoms: C_4  and  N_19
REMARK    4  A    between atoms: C_11  and  O_14
REMARK    5  A    between atoms: C_12  and  N_15
REMARK    6  A    between atoms: N_15  and  C_16
REMARK    7  A    between atoms: C_16  and  C_17
REMARK    8  A    between atoms: C_17  and  O_18
REMARK    9  A    between atoms: C_28  and  S_29
REMARK   10  A    between atoms: S_29  and  P_30
REMARK   11  A    between atoms: P_30  and  O_32
REMARK   12  A    between atoms: P_30  and  O_33
REMARK                            x       y       z     vdW  Elec       q    Type
REMARK                         _______ _______ _______ _____ _____    ______ ____
ROOT
ATOM      1  C   UNL     1       4.031  -4.245  21.466  0.00  0.00    +0.037 C 
ATOM      2  C   UNL     1       4.488  -5.694  21.490  0.00  0.00    +0.010 C 
ATOM      3  C   UNL     1       5.987  -5.786  21.720  0.00  0.00    +0.023 C 
ATOM      4  C   UNL     1       6.807  -5.234  20.604  0.00  0.00    +0.102 C 
ATOM      5  C   UNL     1       6.102  -4.043  20.006  0.00  0.00    +0.044 C 
ATOM      6  C   UNL     1       5.226  -3.477  21.058  0.00  0.00    -0.039 C 
ATOM      7  C   UNL     1       5.551  -2.321  21.583  0.00  0.00    -0.009 C 
ENDROOT
BRANCH   1   9
ATOM      8  C   UNL     1       2.591  -2.742  22.750  0.00  0.00    -0.002 C 
ATOM      9  C   UNL     1       3.457  -3.813  22.760  0.00  0.00    -0.016 C 
ATOM     10  C   UNL     1       3.751  -4.432  23.944  0.00  0.00    +0.034 C 
ATOM     11  C   UNL     1       3.164  -3.961  25.115  0.00  0.00    +0.148 C 
ATOM     12  C   UNL     1       2.294  -2.891  25.125  0.00  0.00    +0.099 C 
ATOM     13  C   UNL     1       2.012  -2.284  23.930  0.00  0.00    +0.019 C 
BRANCH  11  14
ATOM     14  O   UNL     1       3.453  -4.576  26.316  0.00  0.00    -0.504 OA
ATOM     15  H   UNL     1       4.041  -5.305  26.339  0.00  0.00    +0.292 HD
ENDBRANCH  11  14
BRANCH  12  16
ATOM     16  N   UNL     1       1.686  -2.397  26.318  0.00  0.00    -0.232 NA
BRANCH  16  17
ATOM     17  C   UNL     1       2.448  -1.226  26.728  0.00  0.00    +0.144 C 
BRANCH  17  18
ATOM     18  C   UNL     1       1.872  -0.659  28.026  0.00  0.00    +0.160 C 
BRANCH  18  19
ATOM     19  O   UNL     1       1.962  -1.623  29.019  0.00  0.00    -0.380 OA
ATOM     20  H   UNL     1       1.598  -1.270  29.846  0.00  0.00    +0.211 HD
ENDBRANCH  18  19
ENDBRANCH  17  18
ENDBRANCH  16  17
ENDBRANCH  12  16
ENDBRANCH   1   9
BRANCH   4  21
ATOM     21  N   UNL     1       7.159  -6.221  19.611  0.00  0.00    -0.192 N 
ATOM     22  N   UNL     1       7.169  -6.151  18.291  0.00  0.00    -0.154 NA
ATOM     23  C   UNL     1       7.569  -7.325  17.772  0.00  0.00    +0.218 C 
ATOM     24  N   UNL     1       7.816  -8.150  18.804  0.00  0.00    -0.203 NA
ATOM     25  C   UNL     1       7.561  -7.467  19.918  0.00  0.00    +0.186 C 
ENDBRANCH   4  21
BRANCH   1  26
ATOM     26  C   UNL     1       2.961  -4.127  20.400  0.00  0.00    +0.047 C 
ATOM     27  C   UNL     1       2.980  -3.347  19.326  0.00  0.00    +0.036 C 
ATOM     28  C   UNL     1       1.694  -3.580  18.569  0.00  0.00    +0.143 C 
ATOM     29  O   UNL     1       0.859  -3.959  19.644  0.00  0.00    -0.346 OA
ATOM     30  C   UNL     1       1.662  -4.847  20.334  0.00  0.00    +0.161 C 
BRANCH  30  31
ATOM     31  S   UNL     1       1.826  -6.319  19.274  0.00  0.00    -0.079 S 
ATOM     32  H   UNL     1       2.717  -7.199  19.805  0.00  0.00    +0.105 HD
BRANCH  31  33
ATOM     33  P   UNL     1       0.050  -7.079  19.239  0.00  0.00    +0.377 P 
ATOM     34  O   UNL     1      -0.295  -7.201  20.728  0.00  0.00    -0.247 OA
BRANCH  33  35
ATOM     35  O   UNL     1      -0.976  -6.009  18.465  0.00  0.00    -0.317 OA
ATOM     36  H   UNL     1      -0.978  -5.163  18.939  0.00  0.00    +0.221 HD
ENDBRANCH  33  35
BRANCH  33  37
ATOM     37  O   UNL     1       0.135  -8.581  18.507  0.00  0.00    -0.317 OA
ATOM     38  H   UNL     1       0.744  -9.149  19.004  0.00  0.00    +0.221 HD
ENDBRANCH  33  37
ENDBRANCH  31  33
ENDBRANCH  30  31
ENDBRANCH   1  26
TORSDOF 12
