REMARK  Name = =
REMARK  0 active torsions:
REMARK  status: ('A' for Active; 'I' for Inactive)
REMARK                            x       y       z     vdW  Elec       q    Type
REMARK                         _______ _______ _______ _____ _____    ______ ____
ROOT
ATOM      1  N   UNL     1     -13.104 -43.197  26.921  0.00  0.00    -0.255 N 
ATOM      2  C   UNL     1     -13.389 -43.937  28.104  0.00  0.00    +0.229 C 
ATOM      3  O   UNL     1     -12.690 -44.876  28.557  0.00  0.00    -0.275 OA
ATOM      4  C   UNL     1     -14.652 -43.348  28.631  0.00  0.00    +0.095 C 
ATOM      5  C   UNL     1     -15.363 -43.023  27.332  0.00  0.00    +0.095 C 
ATOM      6  C   UNL     1     -14.243 -42.396  26.577  0.00  0.00    +0.229 C 
ATOM      7  O   UNL     1     -14.243 -41.401  25.807  0.00  0.00    -0.275 OA
ATOM      8  H   UNL     1     -12.258 -43.230  26.418  0.00  0.00    +0.158 HD
ENDROOT
TORSDOF 0
