MODEL 1
REMARK VINA RESULT:    -7.059      0.000      0.000
REMARK INTER + INTRA:          -8.081
REMARK INTER:                  -7.885
REMARK INTRA:                  -0.196
REMARK UNBOUND:                -0.196
REMARK  Name = =
REMARK  2 active torsions:
REMARK  status: ('A' for Active; 'I' for Inactive)
REMARK    1  A    between atoms: S_1  and  C_26
REMARK    2  A    between atoms: C_26  and  N_29
REMARK                            x       y       z     vdW  Elec       q    Type
REMARK                         _______ _______ _______ _____ _____    ______ ____
ROOT
ATOM      1  S   UNL     1      62.115 164.803  37.189  0.00  0.00    -0.147 S 
ATOM      2  S   UNL     1      64.000 164.342  37.689  0.00  0.00    -0.100 S 
ATOM      3  C   UNL     1      64.170 165.034  39.355  0.00  0.00    +0.077 C 
ATOM      4  C   UNL     1      64.764 164.038  40.308  0.00  0.00    +0.097 C 
ATOM      5  C   UNL     1      65.387 162.889  39.610  0.00  0.00    +0.224 C 
ATOM      6  O   UNL     1      66.171 163.152  38.637  0.00  0.00    -0.275 OA
ATOM      7  N   UNL     1      65.119 161.562  40.012  0.00  0.00    -0.297 N 
ATOM      8  C   UNL     1      63.837 161.101  40.490  0.00  0.00    +0.176 C 
ATOM      9  C   UNL     1      63.964 160.447  41.815  0.00  0.00    +0.243 C 
ATOM     10  O   UNL     1      65.128 160.282  42.281  0.00  0.00    -0.273 OA
ATOM     11  N   UNL     1      62.889 160.001  42.586  0.00  0.00    -0.295 N 
ATOM     12  C   UNL     1      61.617 159.536  42.086  0.00  0.00    +0.176 C 
ATOM     13  C   UNL     1      60.610 160.583  42.385  0.00  0.00    +0.243 C 
ATOM     14  O   UNL     1      61.011 161.795  42.296  0.00  0.00    -0.273 OA
ATOM     15  N   UNL     1      59.283 160.360  42.751  0.00  0.00    -0.295 N 
ATOM     16  C   UNL     1      58.376 159.386  42.208  0.00  0.00    +0.176 C 
ATOM     17  C   UNL     1      58.787 158.847  40.895  0.00  0.00    +0.243 C 
ATOM     18  O   UNL     1      59.392 157.721  40.918  0.00  0.00    -0.273 OA
ATOM     19  N   UNL     1      58.559 159.482  39.647  0.00  0.00    -0.295 N 
ATOM     20  C   UNL     1      58.775 160.892  39.398  0.00  0.00    +0.176 C 
ATOM     21  C   UNL     1      60.006 161.106  38.594  0.00  0.00    +0.243 C 
ATOM     22  O   UNL     1      60.818 160.148  38.573  0.00  0.00    -0.273 OA
ATOM     23  N   UNL     1      60.274 162.308  37.887  0.00  0.00    -0.302 N 
ATOM     24  C   UNL     1      59.967 163.639  38.372  0.00  0.00    +0.100 C 
ATOM     25  C   UNL     1      61.312 164.326  38.631  0.00  0.00    +0.070 C 
ATOM     26  H   UNL     1      61.569 164.183  36.108  0.00  0.00    +0.097 HD
ATOM     27  H   UNL     1      65.855 160.909  39.964  0.00  0.00    +0.150 HD
ATOM     28  H   UNL     1      63.010 160.004  43.563  0.00  0.00    +0.150 HD
ATOM     29  H   UNL     1      58.926 160.937  43.464  0.00  0.00    +0.150 HD
ATOM     30  H   UNL     1      58.234 158.927  38.901  0.00  0.00    +0.150 HD
ATOM     31  H   UNL     1      60.699 162.232  37.002  0.00  0.00    +0.150 HD
ENDROOT
BRANCH   1  32
ATOM     32  C   UNL     1      61.944 166.426  36.585  0.00  0.00    +0.201 C 
ATOM     33  C   UNL     1      60.892 167.236  37.193  0.00  0.00    +0.197 C 
ATOM     34  O   UNL     1      62.222 167.427  37.593  0.00  0.00    -0.329 OA
BRANCH  32  35
ATOM     35  N   UNL     1      62.534 166.828  35.339  0.00  0.00    -0.236 NA
ATOM     36  C   UNL     1      62.965 165.709  34.518  0.00  0.00    +0.102 C 
ATOM     37  C   UNL     1      64.117 166.240  33.768  0.00  0.00    -0.009 C 
ATOM     38  C   UNL     1      64.582 167.347  34.410  0.00  0.00    -0.009 C 
ATOM     39  C   UNL     1      63.750 167.575  35.612  0.00  0.00    +0.102 C 
ATOM     40  C   UNL     1      65.678 168.058  33.907  0.00  0.00    -0.003 C 
ATOM     41  C   UNL     1      66.308 167.655  32.756  0.00  0.00    -0.000 C 
ATOM     42  C   UNL     1      65.836 166.532  32.107  0.00  0.00    -0.000 C 
ATOM     43  C   UNL     1      64.753 165.838  32.613  0.00  0.00    -0.003 C 
ENDBRANCH  32  35
ENDBRANCH   1  32
TORSDOF 2
ENDMDL
