REMARK  Name = =
REMARK  0 active torsions:
REMARK  status: ('A' for Active; 'I' for Inactive)
REMARK                            x       y       z     vdW  Elec       q    Type
REMARK                         _______ _______ _______ _____ _____    ______ ____
ROOT
ATOM      1  C   UNL     1      52.528 157.281  28.742  0.00  0.00    -0.000 C 
ATOM      2  C   UNL     1      52.561 155.972  29.188  0.00  0.00    -0.005 C 
ATOM      3  C   UNL     1      52.586 154.936  28.265  0.00  0.00    -0.026 C 
ATOM      4  C   UNL     1      52.579 155.188  26.909  0.00  0.00    -0.026 C 
ATOM      5  C   UNL     1      52.547 156.504  26.503  0.00  0.00    -0.005 C 
ATOM      6  C   UNL     1      52.521 157.567  27.390  0.00  0.00    -0.000 C 
ATOM      7  C   UNL     1      52.604 154.143  25.889  0.00  0.00    +0.022 C 
ATOM      8  C   UNL     1      53.834 154.147  25.037  0.00  0.00    +0.004 C 
ATOM      9  C   UNL     1      54.961 153.342  25.595  0.00  0.00    +0.000 C 
ATOM     10  C   UNL     1      54.574 152.045  26.198  0.00  0.00    +0.000 C 
ATOM     11  C   UNL     1      53.132 151.694  26.087  0.00  0.00    +0.000 C 
ATOM     12  C   UNL     1      52.181 152.794  26.358  0.00  0.00    +0.004 C 
ATOM     13  C   UNL     1      51.709 152.752  27.782  0.00  0.00    +0.005 C 
ATOM     14  C   UNL     1      52.621 153.518  28.709  0.00  0.00    +0.026 C 
ATOM     15  C   UNL     1      52.912 150.978  24.791  0.00  0.00    +0.000 C 
ATOM     16  C   UNL     1      54.299 150.780  24.233  0.00  0.00    +0.000 C 
ATOM     17  C   UNL     1      55.218 150.903  25.426  0.00  0.00    +0.000 C 
ENDROOT
TORSDOF 0
