REMARK  Name = =
REMARK  1 active torsions:
REMARK  status: ('A' for Active; 'I' for Inactive)
REMARK    1  A    between atoms: C_4  and  O_8
REMARK                            x       y       z     vdW  Elec       q    Type
REMARK                         _______ _______ _______ _____ _____    ______ ____
ROOT
ATOM      1  C   UNL     1      51.932 155.624  28.323  0.00  0.00    +0.030 C 
ATOM      2  C   UNL     1      51.860 154.404  27.665  0.00  0.00    +0.143 C 
ATOM      3  C   UNL     1      52.483 154.264  26.443  0.00  0.00    +0.066 C 
ATOM      4  C   UNL     1      53.180 155.293  25.843  0.00  0.00    +0.136 C 
ATOM      5  C   UNL     1      53.228 156.490  26.526  0.00  0.00    +0.037 C 
ATOM      6  C   UNL     1      52.622 156.673  27.745  0.00  0.00    +0.005 C 
ATOM      7  F   UNL     1      51.176 153.386  28.249  0.00  0.00    -0.204 F 
ENDROOT
BRANCH   4   8
ATOM      8  O   UNL     1      53.801 155.132  24.611  0.00  0.00    -0.505 OA
ATOM      9  H   UNL     1      53.754 154.308  24.167  0.00  0.00    +0.292 HD
ENDBRANCH   4   8
TORSDOF 1
