REMARK  Name = =
REMARK  0 active torsions:
REMARK  status: ('A' for Active; 'I' for Inactive)
REMARK                            x       y       z     vdW  Elec       q    Type
REMARK                         _______ _______ _______ _____ _____    ______ ____
ROOT
ATOM      1  C   UNL     1      50.432 158.395  30.292  0.00  0.00    +0.083 C 
ATOM      2  C   UNL     1      51.194 157.520  29.522  0.00  0.00    +0.035 C 
ATOM      3  C   UNL     1      50.713 156.292  29.120  0.00  0.00    +0.083 C 
ATOM      4  C   UNL     1      49.442 155.886  29.472  0.00  0.00    +0.019 C 
ATOM      5  C   UNL     1      48.690 156.754  30.235  0.00  0.00    +0.003 C 
ATOM      6  C   UNL     1      49.164 157.981  30.640  0.00  0.00    +0.018 C 
ATOM      7  C   UNL     1      48.393 158.845  31.409  0.00  0.00    +0.003 C 
ATOM      8  C   UNL     1      48.936 160.057  31.777  0.00  0.00    +0.018 C 
ATOM      9  C   UNL     1      50.210 160.446  31.413  0.00  0.00    +0.081 C 
ATOM     10  N   UNL     1      50.928 159.596  30.675  0.00  0.00    -0.245 NA
ATOM     11  C   UNL     1      50.741 161.659  31.787  0.00  0.00    +0.019 C 
ATOM     12  C   UNL     1      50.002 162.545  32.553  0.00  0.00    +0.002 C 
ATOM     13  C   UNL     1      48.723 162.176  32.928  0.00  0.00    +0.000 C 
ATOM     14  C   UNL     1      48.211 160.952  32.541  0.00  0.00    +0.001 C 
ATOM     15  N   UNL     1      51.509 155.503  28.378  0.00  0.00    -0.244 NA
ATOM     16  C   UNL     1      52.754 155.873  28.019  0.00  0.00    +0.099 C 
ATOM     17  C   UNL     1      53.279 157.094  28.398  0.00  0.00    +0.021 C 
ATOM     18  C   UNL     1      52.477 157.918  29.161  0.00  0.00    +0.005 C 
ENDROOT
TORSDOF 0
