REMARK  Name = =
REMARK  1 active torsions:
REMARK  status: ('A' for Active; 'I' for Inactive)
REMARK    1  A    between atoms: C_16  and  N_19
REMARK                            x       y       z     vdW  Elec       q    Type
REMARK                         _______ _______ _______ _____ _____    ______ ____
ROOT
ATOM      1  C   UNL     1      50.472 158.372  30.263  0.00  0.00    +0.083 C 
ATOM      2  C   UNL     1      51.202 157.523  29.466  0.00  0.00    +0.035 C 
ATOM      3  C   UNL     1      50.696 156.304  29.054  0.00  0.00    +0.084 C 
ATOM      4  C   UNL     1      49.424 155.994  29.491  0.00  0.00    +0.019 C 
ATOM      5  C   UNL     1      48.684 156.827  30.285  0.00  0.00    +0.003 C 
ATOM      6  C   UNL     1      49.209 158.037  30.683  0.00  0.00    +0.018 C 
ATOM      7  C   UNL     1      48.463 158.895  31.493  0.00  0.00    +0.003 C 
ATOM      8  C   UNL     1      49.051 160.088  31.851  0.00  0.00    +0.018 C 
ATOM      9  C   UNL     1      50.320 160.428  31.431  0.00  0.00    +0.081 C 
ATOM     10  N   UNL     1      50.990 159.560  30.652  0.00  0.00    -0.245 NA
ATOM     11  C   UNL     1      50.864 161.641  31.822  0.00  0.00    +0.019 C 
ATOM     12  C   UNL     1      50.183 162.533  32.620  0.00  0.00    +0.002 C 
ATOM     13  C   UNL     1      48.909 162.163  33.025  0.00  0.00    +0.000 C 
ATOM     14  C   UNL     1      48.343 160.976  32.660  0.00  0.00    +0.001 C 
ATOM     15  N   UNL     1      51.430 155.476  28.265  0.00  0.00    -0.227 NA
ATOM     16  C   UNL     1      52.663 155.795  27.852  0.00  0.00    +0.162 C 
ATOM     17  C   UNL     1      53.194 157.003  28.246  0.00  0.00    +0.039 C 
ATOM     18  C   UNL     1      52.481 157.885  29.054  0.00  0.00    +0.006 C 
ENDROOT
BRANCH  16  19
ATOM     19  N   UNL     1      53.436 154.935  27.029  0.00  0.00    -0.223 NA
ATOM     20  C   UNL     1      53.198 154.852  25.755  0.00  0.00    +0.121 C 
ENDBRANCH  16  19
TORSDOF 1
