REMARK  Name = =
REMARK  2 active torsions:
REMARK  status: ('A' for Active; 'I' for Inactive)
REMARK    1  A    between atoms: C_1  and  C_19
REMARK    2  A    between atoms: C_18  and  C_21
REMARK                            x       y       z     vdW  Elec       q    Type
REMARK                         _______ _______ _______ _____ _____    ______ ____
ROOT
ATOM      1  C   UNL     1      52.997 157.419  27.902  0.00  0.00    +0.042 C 
ATOM      2  C   UNL     1      52.298 156.277  28.488  0.00  0.00    +0.004 C 
ATOM      3  C   UNL     1      52.086 155.229  27.643  0.00  0.00    -0.026 C 
ATOM      4  C   UNL     1      52.544 155.273  26.302  0.00  0.00    -0.026 C 
ATOM      5  C   UNL     1      53.200 156.327  25.733  0.00  0.00    -0.004 C 
ATOM      6  C   UNL     1      53.344 157.429  26.821  0.00  0.00    +0.008 C 
ATOM      7  C   UNL     1      52.333 153.996  25.516  0.00  0.00    +0.022 C 
ATOM      8  C   UNL     1      53.136 154.160  24.232  0.00  0.00    +0.004 C 
ATOM      9  C   UNL     1      54.620 154.232  24.436  0.00  0.00    +0.000 C 
ATOM     10  C   UNL     1      55.007 154.029  25.893  0.00  0.00    +0.000 C 
ATOM     11  C   UNL     1      54.331 152.730  26.399  0.00  0.00    +0.000 C 
ATOM     12  C   UNL     1      52.860 152.839  26.364  0.00  0.00    +0.004 C 
ATOM     13  C   UNL     1      52.335 152.905  27.792  0.00  0.00    +0.005 C 
ATOM     14  C   UNL     1      51.296 154.006  27.885  0.00  0.00    +0.026 C 
ATOM     15  C   UNL     1      54.964 151.708  25.479  0.00  0.00    +0.000 C 
ATOM     16  C   UNL     1      56.397 152.142  25.479  0.00  0.00    +0.000 C 
ATOM     17  C   UNL     1      56.443 153.567  25.937  0.00  0.00    +0.000 C 
ENDROOT
BRANCH   1  19
ATOM     18  C   UNL     1      52.959 159.148  29.763  0.00  0.00    -0.009 C 
ATOM     19  C   UNL     1      52.977 158.508  29.061  0.00  0.00    -0.051 C 
BRANCH  18  21
ATOM     20  C   UNL     1      52.944 160.858  31.664  0.00  0.00    -0.000 C 
ATOM     21  C   UNL     1      52.956 160.112  30.830  0.00  0.00    -0.001 C 
ENDBRANCH  18  21
ENDBRANCH   1  19
TORSDOF 2
