REMARK  Name = =
REMARK  3 active torsions:
REMARK  status: ('A' for Active; 'I' for Inactive)
REMARK    1  A    between atoms: C_14  and  C_21
REMARK    2  A    between atoms: C_16  and  N_19
REMARK    3  A    between atoms: C_21  and  N_22
REMARK                            x       y       z     vdW  Elec       q    Type
REMARK                         _______ _______ _______ _____ _____    ______ ____
ROOT
ATOM      1  C   UNL     1      51.230 158.128  29.687  0.00  0.00    +0.083 C 
ATOM      2  C   UNL     1      51.646 157.058  28.914  0.00  0.00    +0.035 C 
ATOM      3  C   UNL     1      50.878 155.884  28.814  0.00  0.00    +0.084 C 
ATOM      4  C   UNL     1      49.675 155.848  29.520  0.00  0.00    +0.019 C 
ATOM      5  C   UNL     1      49.263 156.900  30.274  0.00  0.00    +0.003 C 
ATOM      6  C   UNL     1      50.014 158.045  30.373  0.00  0.00    +0.018 C 
ATOM      7  C   UNL     1      49.604 159.089  31.180  0.00  0.00    +0.003 C 
ATOM      8  C   UNL     1      50.414 160.171  31.289  0.00  0.00    +0.015 C 
ATOM      9  C   UNL     1      51.640 160.248  30.611  0.00  0.00    +0.081 C 
ATOM     10  N   UNL     1      52.003 159.201  29.823  0.00  0.00    -0.245 NA
ATOM     11  C   UNL     1      52.452 161.401  30.684  0.00  0.00    +0.019 C 
ATOM     12  C   UNL     1      52.011 162.495  31.442  0.00  0.00    +0.001 C 
ATOM     13  C   UNL     1      50.780 162.445  32.116  0.00  0.00    -0.003 C 
ATOM     14  C   UNL     1      50.060 161.294  31.996  0.00  0.00    -0.005 C 
ATOM     15  N   UNL     1      51.282 154.914  28.069  0.00  0.00    -0.229 NA
ATOM     16  C   UNL     1      52.394 154.828  27.340  0.00  0.00    +0.148 C 
ATOM     17  C   UNL     1      53.187 155.979  27.430  0.00  0.00    +0.036 C 
ATOM     18  C   UNL     1      52.853 157.080  28.188  0.00  0.00    +0.006 C 
ENDROOT
BRANCH  16  19
ATOM     19  N   UNL     1      52.744 153.701  26.544  0.00  0.00    -0.218 NA
ATOM     20  C   UNL     1      52.824 153.946  25.226  0.00  0.00    +0.137 C 
ENDBRANCH  16  19
BRANCH  14  21
ATOM     21  C   UNL     1      48.686 161.210  32.686  0.00  0.00    +0.092 C 
BRANCH  21  22
ATOM     22  N   UNL     1      47.969 162.347  31.983  0.00  0.00    -0.317 NA
ATOM     23  H   UNL     1      47.017 162.422  32.341  0.00  0.00    +0.119 HD
ATOM     24  H   UNL     1      47.941 162.163  30.980  0.00  0.00    +0.119 HD
ENDBRANCH  21  22
ENDBRANCH  14  21
TORSDOF 3
