REMARK  Name = =
REMARK  4 active torsions:
REMARK  status: ('A' for Active; 'I' for Inactive)
REMARK    1  A    between atoms: C_1  and  C_28
REMARK    2  A    between atoms: C_6  and  N_18
REMARK    3  A    between atoms: C_19  and  C_21
REMARK    4  A    between atoms: C_27  and  C_30
REMARK                            x       y       z     vdW  Elec       q    Type
REMARK                         _______ _______ _______ _____ _____    ______ ____
ROOT
ATOM      1  C   UNL     1      48.256 161.613  30.949  0.00  0.00    +0.056 C 
ATOM      2  C   UNL     1      49.186 161.687  29.949  0.00  0.00    +0.005 C 
ATOM      3  C   UNL     1      50.525 161.478  30.206  0.00  0.00    -0.025 C 
ATOM      4  C   UNL     1      50.911 161.195  31.491  0.00  0.00    -0.021 C 
ATOM      5  C   UNL     1      49.935 161.125  32.490  0.00  0.00    +0.011 C 
ATOM      6  C   UNL     1      48.599 161.327  32.268  0.00  0.00    +0.058 C 
ATOM      7  C   UNL     1      52.337 160.968  31.867  0.00  0.00    +0.044 C 
ATOM      8  C   UNL     1      52.673 161.324  33.255  0.00  0.00    -0.027 C 
ATOM      9  C   UNL     1      54.000 161.890  33.549  0.00  0.00    -0.031 C 
ATOM     10  C   UNL     1      54.811 162.350  32.406  0.00  0.00    +0.022 C 
ATOM     11  C   UNL     1      54.647 161.702  31.120  0.00  0.00    +0.005 C 
ATOM     12  C   UNL     1      53.278 161.308  30.802  0.00  0.00    +0.009 C 
ATOM     13  C   UNL     1      52.741 162.234  29.735  0.00  0.00    +0.005 C 
ATOM     14  C   UNL     1      51.538 161.552  29.104  0.00  0.00    +0.026 C 
ATOM     15  C   UNL     1      55.748 160.776  30.888  0.00  0.00    +0.000 C 
ATOM     16  C   UNL     1      56.705 160.955  32.027  0.00  0.00    +0.000 C 
ATOM     17  C   UNL     1      56.284 162.262  32.706  0.00  0.00    +0.004 C 
ENDROOT
BRANCH   6  18
ATOM     18  N   UNL     1      47.572 161.258  33.225  0.00  0.00    -0.279 N 
ATOM     19  C   UNL     1      46.584 160.264  33.366  0.00  0.00    +0.267 C 
ATOM     20  O   UNL     1      46.566 159.304  32.584  0.00  0.00    -0.268 OA
ATOM     21  H   UNL     1      47.539 161.995  33.877  0.00  0.00    +0.155 HD
BRANCH  19  22
ATOM     22  C   UNL     1      45.612 160.418  34.451  0.00  0.00    +0.135 C 
ATOM     23  C   UNL     1      45.798 161.429  35.397  0.00  0.00    +0.024 C 
ATOM     24  C   UNL     1      44.897 161.586  36.434  0.00  0.00    +0.003 C 
ATOM     25  C   UNL     1      43.807 160.754  36.554  0.00  0.00    +0.021 C 
ATOM     26  C   UNL     1      43.640 159.753  35.600  0.00  0.00    +0.099 C 
ATOM     27  N   UNL     1      44.542 159.645  34.615  0.00  0.00    -0.239 NA
ENDBRANCH  19  22
ENDBRANCH   6  18
BRANCH   1  29
ATOM     28  C   UNL     1      45.685 162.046  30.395  0.00  0.00    -0.009 C 
ATOM     29  C   UNL     1      46.862 161.851  30.659  0.00  0.00    -0.050 C 
BRANCH  28  31
ATOM     30  C   UNL     1      43.176 162.489  29.818  0.00  0.00    -0.000 C 
ATOM     31  C   UNL     1      44.322 162.289  30.087  0.00  0.00    -0.001 C 
ENDBRANCH  28  31
ENDBRANCH   1  29
TORSDOF 4
