REMARK  Name = =
REMARK  0 active torsions:
REMARK  status: ('A' for Active; 'I' for Inactive)
REMARK                            x       y       z     vdW  Elec       q    Type
REMARK                         _______ _______ _______ _____ _____    ______ ____
ROOT
ATOM      1  N   UNL     1      52.606 156.235  28.700  0.00  0.00    -0.222 NA
ATOM      2  C   UNL     1      51.535 155.525  29.097  0.00  0.00    +0.102 C 
ATOM      3  C   UNL     1      50.483 156.141  29.742  0.00  0.00    +0.041 C 
ATOM      4  C   UNL     1      50.598 157.502  29.948  0.00  0.00    +0.102 C 
ATOM      5  N   UNL     1      51.688 158.165  29.532  0.00  0.00    -0.222 NA
ATOM      6  C   UNL     1      52.712 157.560  28.902  0.00  0.00    +0.199 C 
ENDROOT
TORSDOF 0
