REMARK  Name = =
REMARK  1 active torsions:
REMARK  status: ('A' for Active; 'I' for Inactive)
REMARK    1  A    between atoms: C_2  and  O_8
REMARK                            x       y       z     vdW  Elec       q    Type
REMARK                         _______ _______ _______ _____ _____    ______ ____
ROOT
ATOM      1  O   UNL     1      52.289 156.388  28.041  0.00  0.00    -0.421 OA
ATOM      2  C   UNL     1      52.777 155.799  26.975  0.00  0.00    +0.297 C 
ATOM      3  C   UNL     1      52.753 154.440  26.856  0.00  0.00    +0.120 C 
ATOM      4  C   UNL     1      52.202 153.706  27.887  0.00  0.00    +0.205 C 
ATOM      5  O   UNL     1      52.144 152.440  27.848  0.00  0.00    -0.286 OA
ATOM      6  C   UNL     1      51.694 154.347  28.998  0.00  0.00    +0.083 C 
ATOM      7  C   UNL     1      51.754 155.727  29.047  0.00  0.00    +0.186 C 
ENDROOT
BRANCH   2   8
ATOM      8  O   UNL     1      53.336 156.536  25.933  0.00  0.00    -0.479 OA
ATOM      9  H   UNL     1      53.367 157.471  25.985  0.00  0.00    +0.295 HD
ENDBRANCH   2   8
TORSDOF 1
