REMARK  Name = =
REMARK  2 active torsions:
REMARK  status: ('A' for Active; 'I' for Inactive)
REMARK    1  A    between atoms: C_2  and  N_7
REMARK    2  A    between atoms: C_8  and  O_10
REMARK                            x       y       z     vdW  Elec       q    Type
REMARK                         _______ _______ _______ _____ _____    ______ ____
ROOT
ATOM      1  N   UNL     1      52.884 156.483  28.290  0.00  0.00    -0.209 NA
ATOM      2  C   UNL     1      52.454 155.189  28.169  0.00  0.00    +0.140 C 
ATOM      3  C   UNL     1      51.312 154.867  28.850  0.00  0.00    +0.055 C 
ATOM      4  C   UNL     1      50.659 155.851  29.614  0.00  0.00    +0.104 C 
ATOM      5  N   UNL     1      51.153 157.093  29.673  0.00  0.00    -0.222 NA
ATOM      6  C   UNL     1      52.270 157.416  29.010  0.00  0.00    +0.200 C 
ENDROOT
BRANCH   2   7
ATOM      7  N   UNL     1      53.193 154.304  27.378  0.00  0.00    -0.235 N 
ATOM      8  C   UNL     1      52.921 152.961  27.134  0.00  0.00    +0.403 C 
ATOM      9  O   UNL     1      51.922 152.414  27.643  0.00  0.00    -0.226 OA
ATOM     10  H   UNL     1      53.997 154.672  26.945  0.00  0.00    +0.160 HD
BRANCH   8  11
ATOM     11  O   UNL     1      53.718 152.144  26.324  0.00  0.00    -0.466 OA
ATOM     12  H   UNL     1      54.483 152.496  25.913  0.00  0.00    +0.297 HD
ENDBRANCH   8  11
ENDBRANCH   2   7
TORSDOF 2
