REMARK  Name = =
REMARK  2 active torsions:
REMARK  status: ('A' for Active; 'I' for Inactive)
REMARK    1  A    between atoms: O_1  and  C_3
REMARK    2  A    between atoms: O_1  and  C_9
REMARK                            x       y       z     vdW  Elec       q    Type
REMARK                         _______ _______ _______ _____ _____    ______ ____
ROOT
ATOM      1  O   UNL     1      51.790 153.526  25.798  0.00  0.00    -0.413 OA
ENDROOT
BRANCH   1   3
ATOM      2  O   UNL     1      53.000 155.425  25.313  0.00  0.00    -0.420 OA
ATOM      3  C   UNL     1      52.322 154.733  26.173  0.00  0.00    +0.302 C 
ATOM      4  C   UNL     1      52.134 155.190  27.444  0.00  0.00    +0.120 C 
ATOM      5  C   UNL     1      52.669 156.401  27.820  0.00  0.00    +0.205 C 
ATOM      6  O   UNL     1      52.495 156.823  28.994  0.00  0.00    -0.286 OA
ATOM      7  C   UNL     1      53.382 157.106  26.878  0.00  0.00    +0.083 C 
ATOM      8  C   UNL     1      53.533 156.587  25.616  0.00  0.00    +0.186 C 
ENDBRANCH   1   3
BRANCH   1   9
ATOM      9  C   UNL     1      52.505 152.487  25.180  0.00  0.00    +0.345 C 
ATOM     10  O   UNL     1      53.839 152.934  25.015  0.00  0.00    -0.414 OA
ATOM     11  C   UNL     1      54.861 152.004  25.137  0.00  0.00    +0.319 C 
ATOM     12  O   UNL     1      55.992 152.318  25.590  0.00  0.00    -0.250 OA
ATOM     13  C   UNL     1      54.576 150.609  24.710  0.00  0.00    +0.110 C 
ATOM     14  C   UNL     1      53.222 150.163  25.213  0.00  0.00    +0.019 C 
ATOM     15  C   UNL     1      52.567 151.242  26.043  0.00  0.00    +0.092 C 
ENDBRANCH   1   9
TORSDOF 2
