REMARK  Name = =
REMARK  5 active torsions:
REMARK  status: ('A' for Active; 'I' for Inactive)
REMARK    1  A    between atoms: N_1  and  S_19
REMARK    2  A    between atoms: S_19  and  C_22
REMARK    3  A    between atoms: S_19  and  C_28
REMARK    4  A    between atoms: C_24  and  O_27
REMARK    5  A    between atoms: C_28  and  O_30
REMARK                            x       y       z     vdW  Elec       q    Type
REMARK                         _______ _______ _______ _____ _____    ______ ____
ROOT
ATOM      1  N   UNL     1      51.133 159.536  30.092  0.00  0.00    -0.215 N 
ATOM      2  C   UNL     1      51.881 158.614  29.283  0.00  0.00    +0.096 C 
ATOM      3  C   UNL     1      53.258 158.600  29.100  0.00  0.00    +0.156 C 
ATOM      4  N   UNL     1      53.780 157.647  28.325  0.00  0.00    -0.227 NA
ATOM      5  C   UNL     1      52.983 156.710  27.729  0.00  0.00    +0.100 C 
ATOM      6  C   UNL     1      51.617 156.699  27.890  0.00  0.00    +0.022 C 
ATOM      7  C   UNL     1      51.057 157.681  28.691  0.00  0.00    +0.020 C 
ATOM      8  N   UNL     1      54.264 159.497  29.623  0.00  0.00    -0.214 N 
ATOM      9  C   UNL     1      54.058 160.883  29.840  0.00  0.00    +0.064 C 
ATOM     10  C   UNL     1      52.854 161.510  30.164  0.00  0.00    +0.069 C 
ATOM     11  C   UNL     1      52.883 162.874  30.336  0.00  0.00    +0.006 C 
ATOM     12  C   UNL     1      54.046 163.596  30.193  0.00  0.00    +0.000 C 
ATOM     13  C   UNL     1      55.218 162.953  29.872  0.00  0.00    +0.001 C 
ATOM     14  C   UNL     1      55.224 161.596  29.694  0.00  0.00    +0.015 C 
ATOM     15  C   UNL     1      51.547 160.893  30.314  0.00  0.00    +0.262 C 
ATOM     16  O   UNL     1      50.652 161.662  30.691  0.00  0.00    -0.269 OA
ATOM     17  C   UNL     1      55.509 158.945  29.901  0.00  0.00    +0.312 C 
ATOM     18  O   UNL     1      56.516 159.437  30.414  0.00  0.00    -0.264 OA
ENDROOT
BRANCH   1  19
ATOM     19  S   UNL     1      49.742 158.931  30.760  0.00  0.00    -0.081 S 
ATOM     20  H   UNL     1      49.942 157.647  31.161  0.00  0.00    +0.114 HD
BRANCH  19  23
ATOM     21 CL   UNL     1      46.698 159.871  31.327  0.00  0.00    -0.082 Cl
ATOM     22  C   UNL     1      48.016 160.445  32.348  0.00  0.00    +0.064 C 
ATOM     23  C   UNL     1      49.304 160.065  32.140  0.00  0.00    +0.041 C 
ATOM     24  C   UNL     1      50.272 160.520  32.977  0.00  0.00    +0.044 C 
ATOM     25  C   UNL     1      49.946 161.371  34.039  0.00  0.00    +0.134 C 
ATOM     26  C   UNL     1      48.646 161.742  34.229  0.00  0.00    +0.038 C 
ATOM     27  C   UNL     1      47.669 161.288  33.395  0.00  0.00    +0.015 C 
BRANCH  25  28
ATOM     28  O   UNL     1      50.974 161.827  34.889  0.00  0.00    -0.505 OA
ATOM     29  H   UNL     1      51.859 161.559  34.739  0.00  0.00    +0.292 HD
ENDBRANCH  25  28
ENDBRANCH  19  23
BRANCH  19  30
ATOM     30  C   UNL     1      48.477 158.941  29.662  0.00  0.00    +0.198 C 
ATOM     31  S   UNL     1      47.534 157.599  29.441  0.00  0.00    -0.004 S 
BRANCH  30  32
ATOM     32  O   UNL     1      48.116 160.020  28.866  0.00  0.00    -0.496 OA
ATOM     33  H   UNL     1      48.594 160.824  28.922  0.00  0.00    +0.293 HD
ENDBRANCH  30  32
ENDBRANCH  19  30
ENDBRANCH   1  19
TORSDOF 5
