REMARK  Name = =
REMARK  2 active torsions:
REMARK  status: ('A' for Active; 'I' for Inactive)
REMARK    1  A    between atoms: C_1  and  C_19
REMARK    2  A    between atoms: C_21  and  O_23
REMARK                            x       y       z     vdW  Elec       q    Type
REMARK                         _______ _______ _______ _____ _____    ______ ____
ROOT
ATOM      1  C   UNL     1      54.354 153.777  26.634  0.00  0.00    +0.103 C 
ATOM      2  C   UNL     1      53.308 154.312  27.538  0.00  0.00    -0.011 C 
ATOM      3  C   UNL     1      52.935 155.539  27.050  0.00  0.00    -0.004 C 
ATOM      4  C   UNL     1      53.706 155.831  25.848  0.00  0.00    -0.004 C 
ATOM      5  C   UNL     1      54.545 154.777  25.610  0.00  0.00    -0.011 C 
ATOM      6  C   UNL     1      55.376 154.875  24.485  0.00  0.00    -0.004 C 
ATOM      7  C   UNL     1      55.363 155.966  23.648  0.00  0.00    -0.000 C 
ATOM      8  C   UNL     1      54.501 157.018  23.916  0.00  0.00    -0.000 C 
ATOM      9  C   UNL     1      53.669 156.955  25.017  0.00  0.00    -0.000 C 
ATOM     10  C   UNL     1      51.950 156.305  27.697  0.00  0.00    -0.000 C 
ATOM     11  C   UNL     1      51.375 155.785  28.831  0.00  0.00    -0.000 C 
ATOM     12  C   UNL     1      51.750 154.555  29.319  0.00  0.00    -0.000 C 
ATOM     13  C   UNL     1      52.709 153.807  28.690  0.00  0.00    -0.004 C 
ENDROOT
BRANCH   1  19
ATOM     14  N   UNL     1      53.108 151.626  26.658  0.00  0.00    -0.215 NA
ATOM     15  C   UNL     1      52.843 150.410  26.148  0.00  0.00    +0.140 C 
ATOM     16  C   UNL     1      53.531 149.974  25.034  0.00  0.00    +0.055 C 
ATOM     17  C   UNL     1      54.472 150.807  24.477  0.00  0.00    +0.103 C 
ATOM     18  N   UNL     1      54.686 152.002  25.034  0.00  0.00    -0.228 NA
ATOM     19  C   UNL     1      54.013 152.429  26.126  0.00  0.00    +0.148 C 
ATOM     20  N   UNL     1      51.859 149.550  26.737  0.00  0.00    -0.235 N 
ATOM     21  C   UNL     1      51.142 149.984  27.886  0.00  0.00    +0.403 C 
ATOM     22  O   UNL     1      51.408 151.134  28.350  0.00  0.00    -0.226 OA
ATOM     23  H   UNL     1      51.680 148.663  26.348  0.00  0.00    +0.160 HD
BRANCH  21  24
ATOM     24  O   UNL     1      50.183 149.220  28.509  0.00  0.00    -0.466 OA
ATOM     25  H   UNL     1      49.975 148.368  28.178  0.00  0.00    +0.297 HD
ENDBRANCH  21  24
ENDBRANCH   1  19
TORSDOF 2
