REMARK  Name = =
REMARK  4 active torsions:
REMARK  status: ('A' for Active; 'I' for Inactive)
REMARK    1  A    between atoms: C_6  and  C_10
REMARK    2  A    between atoms: N_7  and  N_24
REMARK    3  A    between atoms: C_8  and  O_23
REMARK    4  A    between atoms: N_24  and  N_25
REMARK                            x       y       z     vdW  Elec       q    Type
REMARK                         _______ _______ _______ _____ _____    ______ ____
ROOT
ATOM      1  N   UNL     1      50.993 156.820  28.329  0.00  0.00    -0.214 NA
ATOM      2  C   UNL     1      51.177 157.475  29.504  0.00  0.00    +0.158 C 
ATOM      3  C   UNL     1      52.374 157.384  30.185  0.00  0.00    +0.057 C 
ATOM      4  C   UNL     1      53.383 156.630  29.672  0.00  0.00    +0.103 C 
ATOM      5  N   UNL     1      53.166 155.993  28.501  0.00  0.00    -0.228 NA
ATOM      6  C   UNL     1      52.002 156.081  27.840  0.00  0.00    +0.148 C 
ATOM      7  N   UNL     1      50.167 158.281  30.073  0.00  0.00    -0.139 N 
ATOM      8  C   UNL     1      49.688 159.404  29.380  0.00  0.00    +0.421 C 
ATOM      9  O   UNL     1      50.179 159.674  28.238  0.00  0.00    -0.225 OA
ENDROOT
BRANCH   6  10
ATOM     10  C   UNL     1      51.889 155.316  26.567  0.00  0.00    +0.103 C 
ATOM     11  C   UNL     1      52.997 155.732  25.709  0.00  0.00    -0.011 C 
ATOM     12  C   UNL     1      53.747 154.629  25.408  0.00  0.00    -0.004 C 
ATOM     13  C   UNL     1      53.152 153.459  26.060  0.00  0.00    -0.004 C 
ATOM     14  C   UNL     1      52.050 153.888  26.742  0.00  0.00    -0.011 C 
ATOM     15  C   UNL     1      51.325 152.915  27.448  0.00  0.00    -0.004 C 
ATOM     16  C   UNL     1      51.694 151.606  27.461  0.00  0.00    -0.000 C 
ATOM     17  C   UNL     1      52.816 151.223  26.755  0.00  0.00    -0.000 C 
ATOM     18  C   UNL     1      53.564 152.141  26.043  0.00  0.00    -0.000 C 
ATOM     19  C   UNL     1      54.873 154.772  24.593  0.00  0.00    -0.000 C 
ATOM     20  C   UNL     1      55.256 155.987  24.078  0.00  0.00    -0.000 C 
ATOM     21  C   UNL     1      54.478 157.069  24.402  0.00  0.00    -0.000 C 
ATOM     22  C   UNL     1      53.366 156.989  25.194  0.00  0.00    -0.004 C 
ENDBRANCH   6  10
BRANCH   8  23
ATOM     23  O   UNL     1      48.699 160.222  29.903  0.00  0.00    -0.465 OA
ATOM     24  H   UNL     1      48.330 160.033  30.743  0.00  0.00    +0.297 HD
ENDBRANCH   8  23
BRANCH   7  25
ATOM     25  N   UNL     1      49.654 157.960  31.314  0.00  0.00    -0.167 NA
ATOM     26  H   UNL     1      50.358 158.173  32.021  0.00  0.00    +0.164 HD
BRANCH  25  27
ATOM     27  N   UNL     1      48.483 158.663  31.625  0.00  0.00    -0.254 NA
ATOM     28  H   UNL     1      47.769 158.460  30.926  0.00  0.00    +0.138 HD
ATOM     29  H   UNL     1      48.679 159.664  31.630  0.00  0.00    +0.138 HD
ENDBRANCH  25  27
ENDBRANCH   7  25
TORSDOF 4
