REMARK  Name = =
REMARK  4 active torsions:
REMARK  status: ('A' for Active; 'I' for Inactive)
REMARK    1  A    between atoms: S_1  and  C_22
REMARK    2  A    between atoms: C_24  and  O_34
REMARK    3  A    between atoms: C_25  and  C_27
REMARK    4  A    between atoms: C_35  and  O_37
REMARK                            x       y       z     vdW  Elec       q    Type
REMARK                         _______ _______ _______ _____ _____    ______ ____
ROOT
ATOM      1  S   UNL     1      53.160 158.672  30.172  0.00  0.00    -0.104 S 
ATOM      2  N   UNL     1      51.751 159.498  30.386  0.00  0.00    -0.219 N 
ATOM      3  C   UNL     1      51.881 160.788  30.984  0.00  0.00    +0.101 C 
ATOM      4  C   UNL     1      50.933 161.548  31.665  0.00  0.00    +0.157 C 
ATOM      5  N   UNL     1      51.250 162.747  32.172  0.00  0.00    -0.227 NA
ATOM      6  C   UNL     1      52.513 163.224  32.019  0.00  0.00    +0.101 C 
ATOM      7  C   UNL     1      53.497 162.505  31.347  0.00  0.00    +0.028 C 
ATOM      8  C   UNL     1      53.166 161.276  30.829  0.00  0.00    +0.047 C 
ATOM      9  N   UNL     1      49.561 161.201  31.918  0.00  0.00    -0.214 N 
ATOM     10  C   UNL     1      48.727 160.405  31.091  0.00  0.00    +0.064 C 
ATOM     11  C   UNL     1      49.132 159.371  30.235  0.00  0.00    +0.069 C 
ATOM     12  C   UNL     1      48.180 158.699  29.514  0.00  0.00    +0.006 C 
ATOM     13  C   UNL     1      46.822 158.992  29.586  0.00  0.00    +0.000 C 
ATOM     14  C   UNL     1      46.462 160.013  30.436  0.00  0.00    +0.001 C 
ATOM     15  C   UNL     1      47.393 160.723  31.188  0.00  0.00    +0.015 C 
ATOM     16  C   UNL     1      50.501 158.913  29.987  0.00  0.00    +0.262 C 
ATOM     17  O   UNL     1      50.615 157.867  29.339  0.00  0.00    -0.269 OA
ATOM     18  C   UNL     1      48.989 161.697  33.087  0.00  0.00    +0.312 C 
ATOM     19  O   UNL     1      49.710 162.460  33.815  0.00  0.00    -0.264 OA
ATOM     20  C   UNL     1      54.452 159.632  29.720  0.00  0.00    +0.213 C 
ATOM     21  S   UNL     1      54.266 161.259  29.517  0.00  0.00    -0.073 S 
ATOM     22  H   UNL     1      53.458 158.108  31.373  0.00  0.00    +0.110 HD
ENDROOT
BRANCH   1  25
ATOM     23 CL   UNL     1      51.521 156.018  30.707  0.00  0.00    -0.082 Cl
ATOM     24  C   UNL     1      52.217 156.358  29.102  0.00  0.00    +0.063 C 
ATOM     25  C   UNL     1      52.922 157.499  28.873  0.00  0.00    +0.037 C 
ATOM     26  C   UNL     1      53.452 157.761  27.648  0.00  0.00    +0.043 C 
ATOM     27  C   UNL     1      53.297 156.872  26.571  0.00  0.00    +0.132 C 
ATOM     28  C   UNL     1      52.587 155.731  26.815  0.00  0.00    +0.039 C 
ATOM     29  C   UNL     1      52.042 155.466  28.077  0.00  0.00    +0.013 C 
BRANCH  28  30
ATOM     30  C   UNL     1      52.388 154.737  25.723  0.00  0.00    +0.176 C 
ATOM     31  N   UNL     1      51.520 153.652  26.201  0.00  0.00    -0.279 N 
ATOM     32  C   UNL     1      52.382 152.748  26.848  0.00  0.00    +0.307 C 
ATOM     33  O   UNL     1      52.052 151.866  27.696  0.00  0.00    -0.252 OA
ATOM     34  N   UNL     1      53.729 152.983  26.390  0.00  0.00    -0.238 N 
ATOM     35  C   UNL     1      53.673 154.061  25.437  0.00  0.00    +0.252 C 
ATOM     36  O   UNL     1      54.545 154.329  24.570  0.00  0.00    -0.273 OA
ATOM     37  H   UNL     1      50.545 153.574  26.092  0.00  0.00    +0.152 HD
ATOM     38  H   UNL     1      54.536 152.497  26.676  0.00  0.00    +0.159 HD
ENDBRANCH  28  30
BRANCH  27  39
ATOM     39  O   UNL     1      53.855 157.182  25.340  0.00  0.00    -0.506 OA
ATOM     40  H   UNL     1      53.755 156.593  24.618  0.00  0.00    +0.292 HD
ENDBRANCH  27  39
ENDBRANCH   1  25
BRANCH  20  41
ATOM     41  O   UNL     1      55.720 159.120  29.497  0.00  0.00    -0.366 OA
ATOM     42  H   UNL     1      55.712 158.161  29.644  0.00  0.00    +0.212 HD
ENDBRANCH  20  41
TORSDOF 4
