REMARK  Name = =
REMARK  5 active torsions:
REMARK  status: ('A' for Active; 'I' for Inactive)
REMARK    1  A    between atoms: C_6  and  C_10
REMARK    2  A    between atoms: N_7  and  N_24
REMARK    3  A    between atoms: C_8  and  O_23
REMARK    4  A    between atoms: N_24  and  N_25
REMARK    5  A    between atoms: O_27  and  O_29
REMARK                            x       y       z     vdW  Elec       q    Type
REMARK                         _______ _______ _______ _____ _____    ______ ____
ROOT
ATOM      1  N   UNL     1      51.399 157.995  29.384  0.00  0.00    -0.214 NA
ATOM      2  C   UNL     1      51.071 159.171  29.940  0.00  0.00    +0.160 C 
ATOM      3  C   UNL     1      52.054 160.099  30.205  0.00  0.00    +0.057 C 
ATOM      4  C   UNL     1      53.377 159.801  29.885  0.00  0.00    +0.103 C 
ATOM      5  N   UNL     1      53.590 158.616  29.341  0.00  0.00    -0.228 NA
ATOM      6  C   UNL     1      52.678 157.664  29.057  0.00  0.00    +0.148 C 
ATOM      7  N   UNL     1      49.739 159.560  30.297  0.00  0.00    -0.119 N 
ATOM      8  C   UNL     1      48.966 160.310  29.369  0.00  0.00    +0.423 C 
ATOM      9  O   UNL     1      47.813 160.675  29.606  0.00  0.00    -0.225 OA
ENDROOT
BRANCH   6  10
ATOM     10  C   UNL     1      53.123 156.429  28.449  0.00  0.00    +0.103 C 
ATOM     11  C   UNL     1      52.360 155.219  28.753  0.00  0.00    -0.011 C 
ATOM     12  C   UNL     1      52.225 154.472  27.616  0.00  0.00    -0.004 C 
ATOM     13  C   UNL     1      52.835 155.231  26.524  0.00  0.00    -0.004 C 
ATOM     14  C   UNL     1      53.329 156.416  26.997  0.00  0.00    -0.011 C 
ATOM     15  C   UNL     1      53.924 157.271  26.079  0.00  0.00    -0.004 C 
ATOM     16  C   UNL     1      54.017 156.947  24.747  0.00  0.00    -0.000 C 
ATOM     17  C   UNL     1      53.517 155.749  24.264  0.00  0.00    -0.000 C 
ATOM     18  C   UNL     1      52.932 154.911  25.171  0.00  0.00    -0.000 C 
ATOM     19  C   UNL     1      51.582 153.224  27.589  0.00  0.00    -0.000 C 
ATOM     20  C   UNL     1      51.059 152.724  28.757  0.00  0.00    -0.000 C 
ATOM     21  C   UNL     1      51.178 153.462  29.928  0.00  0.00    -0.000 C 
ATOM     22  C   UNL     1      51.815 154.684  29.927  0.00  0.00    -0.004 C 
ENDBRANCH   6  10
BRANCH   8  23
ATOM     23  O   UNL     1      49.507 160.665  28.115  0.00  0.00    -0.465 OA
ATOM     24  H   UNL     1      50.380 160.409  27.892  0.00  0.00    +0.297 HD
ENDBRANCH   8  23
BRANCH   7  25
ATOM     25  N   UNL     1      49.174 159.230  31.521  0.00  0.00    -0.048 NA
BRANCH  25  26
ATOM     26  N   UNL     1      47.960 158.578  31.333  0.00  0.00    -0.234 NA
ATOM     27  H   UNL     1      47.557 158.342  32.240  0.00  0.00    +0.140 HD
ATOM     28  H   UNL     1      48.112 157.724  30.796  0.00  0.00    +0.140 HD
ENDBRANCH  25  26
ENDBRANCH   7  25
TORSDOF 4
REMARK  Name = =
REMARK  5 active torsions:
REMARK  status: ('A' for Active; 'I' for Inactive)
REMARK    1  A    between atoms: C_6  and  C_10
REMARK    2  A    between atoms: N_7  and  N_24
REMARK    3  A    between atoms: C_8  and  O_23
REMARK    4  A    between atoms: N_24  and  N_25
REMARK    5  A    between atoms: O_27  and  O_29
REMARK                            x       y       z     vdW  Elec       q    Type
REMARK                         _______ _______ _______ _____ _____    ______ ____
ROOT
ATOM      1  P   UNL     1      48.860 160.618  32.527  0.00  0.00    +0.000 P 
ENDROOT
TORSDOF 0
REMARK  Name = =
REMARK  5 active torsions:
REMARK  status: ('A' for Active; 'I' for Inactive)
REMARK    1  A    between atoms: C_6  and  C_10
REMARK    2  A    between atoms: N_7  and  N_24
REMARK    3  A    between atoms: C_8  and  O_23
REMARK    4  A    between atoms: N_24  and  N_25
REMARK    5  A    between atoms: O_27  and  O_29
REMARK                            x       y       z     vdW  Elec       q    Type
REMARK                         _______ _______ _______ _____ _____    ______ ____
ROOT
ATOM      1  O   UNL     1      48.173 161.784  31.818  0.00  0.00    -0.253 OA
ATOM      2  H   UNL     1      47.521 161.451  32.454  0.00  0.00    +0.253 HD
ENDROOT
BRANCH   1   3
ATOM      3  O   UNL     1      49.408 162.210  32.546  0.00  0.00    -0.253 OA
ATOM      4  H   UNL     1      50.060 162.543  31.910  0.00  0.00    +0.253 HD
ENDBRANCH   1   3
TORSDOF 1
REMARK  Name = =
REMARK  5 active torsions:
REMARK  status: ('A' for Active; 'I' for Inactive)
REMARK    1  A    between atoms: C_6  and  C_10
REMARK    2  A    between atoms: N_7  and  N_24
REMARK    3  A    between atoms: C_8  and  O_23
REMARK    4  A    between atoms: N_24  and  N_25
REMARK    5  A    between atoms: O_27  and  O_29
REMARK                            x       y       z     vdW  Elec       q    Type
REMARK                         _______ _______ _______ _____ _____    ______ ____
ROOT
ATOM      1  S   UNL     1      46.798 160.686  33.061  0.00  0.00    -0.114 S 
ATOM      2  H   UNL     1      48.158 160.686  33.061  0.00  0.00    +0.114 HD
ENDROOT
TORSDOF 0
REMARK  Name = =
REMARK  5 active torsions:
REMARK  status: ('A' for Active; 'I' for Inactive)
REMARK    1  A    between atoms: C_6  and  C_10
REMARK    2  A    between atoms: N_7  and  N_24
REMARK    3  A    between atoms: C_8  and  O_23
REMARK    4  A    between atoms: N_24  and  N_25
REMARK    5  A    between atoms: O_27  and  O_29
REMARK                            x       y       z     vdW  Elec       q    Type
REMARK                         _______ _______ _______ _____ _____    ______ ____
ROOT
ATOM      1  O   HOH     1      49.862 159.931  33.719  0.00  0.00    -0.253 OA
ATOM      2  H   HOH     0      50.832 159.931  33.719  0.00  0.00    +0.253 HD
ENDROOT
TORSDOF 0
