REMARK  Name = =
REMARK  0 active torsions:
REMARK  status: ('A' for Active; 'I' for Inactive)
REMARK                            x       y       z     vdW  Elec       q    Type
REMARK                         _______ _______ _______ _____ _____    ______ ____
ROOT
ATOM      1  S   UNL     1      -0.024  -3.577  29.560  0.00  0.00    -0.064 S 
ATOM      2  C   UNL     1       1.845  -3.905  29.354  0.00  0.00    +0.135 C 
ATOM      3  N   UNL     1       1.913  -4.071  28.252  0.00  0.00    -0.235 NA
ATOM      4  C   UNL     1       0.984  -4.055  27.304  0.00  0.00    +0.107 C 
ATOM      5  C   UNL     1      -0.235  -3.803  27.710  0.00  0.00    +0.058 C 
ENDROOT
TORSDOF 0
