REMARK  Name = =
REMARK  0 active torsions:
REMARK  status: ('A' for Active; 'I' for Inactive)
REMARK                            x       y       z     vdW  Elec       q    Type
REMARK                         _______ _______ _______ _____ _____    ______ ____
ROOT
ATOM      1  S   UNL     1      -2.047  -4.801  29.693  0.00  0.00    -0.036 S 
ATOM      2  C   UNL     1      -2.455  -2.960  29.914  0.00  0.00    +0.254 C 
ATOM      3  F   UNL     1      -3.798  -2.633  30.160  0.00  0.00    -0.176 F 
ATOM      4  N   UNL     1      -1.445  -2.495  29.788  0.00  0.00    -0.210 NA
ATOM      5  C   UNL     1      -0.279  -3.060  29.550  0.00  0.00    +0.109 C 
ATOM      6  C   UNL     1      -0.252  -4.383  29.436  0.00  0.00    +0.060 C 
ENDROOT
TORSDOF 0
