REMARK  Name = =
REMARK  3 active torsions:
REMARK  status: ('A' for Active; 'I' for Inactive)
REMARK    1  A    between atoms: C_6  and  S_7
REMARK    2  A    between atoms: S_7  and  C_8
REMARK    3  A    between atoms: C_8  and  N_10
REMARK                            x       y       z     vdW  Elec       q    Type
REMARK                         _______ _______ _______ _____ _____    ______ ____
ROOT
ATOM      1  S   UNL     1      -2.156  -5.164  30.131  0.00  0.00    -0.030 S 
ATOM      2  C   UNL     1      -2.821  -3.449  29.882  0.00  0.00    +0.254 C 
ATOM      3  F   UNL     1      -4.164  -3.167  29.805  0.00  0.00    -0.176 F 
ATOM      4  N   UNL     1      -1.773  -2.792  29.822  0.00  0.00    -0.210 NA
ATOM      5  C   UNL     1      -0.575  -3.274  29.921  0.00  0.00    +0.115 C 
ATOM      6  C   UNL     1      -0.420  -4.615  30.106  0.00  0.00    +0.083 C 
ENDROOT
BRANCH   6   7
ATOM      7  S   UNL     1       0.989  -5.641  30.284  0.00  0.00    -0.057 S 
BRANCH   7   8
ATOM      8  C   UNL     1       1.179  -6.151  31.988  0.00  0.00    +0.109 C 
ATOM      9  S   UNL     1       2.508  -5.777  32.848  0.00  0.00    -0.028 S 
BRANCH   8  10
ATOM     10  N   UNL     1       0.168  -6.904  32.644  0.00  0.00    -0.347 N 
ATOM     11  H   UNL     1      -0.653  -7.152  32.160  0.00  0.00    +0.143 HD
ATOM     12  H   UNL     1       0.289  -7.178  33.582  0.00  0.00    +0.143 HD
ENDBRANCH   8  10
ENDBRANCH   7   8
ENDBRANCH   6   7
TORSDOF 3
