REMARK  Name = =
REMARK  4 active torsions:
REMARK  status: ('A' for Active; 'I' for Inactive)
REMARK    1  A    between atoms: S_1  and  C_7
REMARK    2  A    between atoms: C_6  and  S_14
REMARK    3  A    between atoms: S_14  and  C_15
REMARK    4  A    between atoms: C_15  and  N_17
REMARK                            x       y       z     vdW  Elec       q    Type
REMARK                         _______ _______ _______ _____ _____    ______ ____
ROOT
ATOM      1  S   UNL     1      -2.153  -5.048  29.579  0.00  0.00    -0.134 S 
ATOM      2  C   UNL     1      -3.187  -3.513  29.981  0.00  0.00    +0.234 C 
ATOM      3  F   UNL     1      -4.510  -3.560  30.079  0.00  0.00    -0.178 F 
ATOM      4  N   UNL     1      -2.335  -2.615  30.096  0.00  0.00    -0.211 NA
ATOM      5  C   UNL     1      -0.990  -2.858  29.936  0.00  0.00    +0.113 C 
ATOM      6  C   UNL     1      -0.556  -4.018  29.660  0.00  0.00    +0.063 C 
ATOM      7  H   UNL     1      -2.425  -5.776  28.463  0.00  0.00    +0.097 HD
ENDROOT
BRANCH   1   8
ATOM      8  C   UNL     1      -2.290  -6.354  30.597  0.00  0.00    +0.097 C 
ATOM      9  C   UNL     1      -1.492  -6.284  31.883  0.00  0.00    +0.017 C 
ATOM     10  C   UNL     1      -1.903  -7.444  32.731  0.00  0.00    +0.002 C 
ATOM     11  C   UNL     1      -1.716  -8.776  32.126  0.00  0.00    +0.008 C 
ATOM     12  C   UNL     1      -2.031  -8.874  30.663  0.00  0.00    +0.065 C 
ATOM     13  C   UNL     1      -1.892  -7.611  29.932  0.00  0.00    +0.159 C 
ATOM     14  O   UNL     1      -1.463  -7.569  28.804  0.00  0.00    -0.295 OA
ENDBRANCH   1   8
BRANCH   6  15
ATOM     15  S   UNL     1       1.003  -4.731  29.386  0.00  0.00    -0.059 S 
BRANCH  15  16
ATOM     16  C   UNL     1       2.141  -3.589  28.671  0.00  0.00    +0.109 C 
ATOM     17  S   UNL     1       1.791  -2.256  27.845  0.00  0.00    -0.028 S 
BRANCH  16  18
ATOM     18  N   UNL     1       3.547  -3.892  28.851  0.00  0.00    -0.347 N 
ATOM     19  H   UNL     1       3.817  -4.697  29.349  0.00  0.00    +0.143 HD
ATOM     20  H   UNL     1       4.232  -3.293  28.475  0.00  0.00    +0.143 HD
ENDBRANCH  16  18
ENDBRANCH  15  16
ENDBRANCH   6  15
TORSDOF 4
