REMARK  Name = =
REMARK  7 active torsions:
REMARK  status: ('A' for Active; 'I' for Inactive)
REMARK    1  A    between atoms: S_1  and  C_7
REMARK    2  A    between atoms: C_6  and  S_18
REMARK    3  A    between atoms: C_11  and  O_14
REMARK    4  A    between atoms: O_14  and  C_15
REMARK    5  A    between atoms: C_15  and  O_17
REMARK    6  A    between atoms: S_18  and  C_19
REMARK    7  A    between atoms: C_19  and  N_21
REMARK                            x       y       z     vdW  Elec       q    Type
REMARK                         _______ _______ _______ _____ _____    ______ ____
ROOT
ATOM      1  S   UNL     1      -0.931  -6.721  30.929  0.00  0.00    -0.133 S 
ATOM      2  C   UNL     1      -1.796  -8.461  30.677  0.00  0.00    +0.234 C 
ATOM      3  F   UNL     1      -2.886  -8.728  31.380  0.00  0.00    -0.178 F 
ATOM      4  N   UNL     1      -1.057  -8.937  29.863  0.00  0.00    -0.211 NA
ATOM      5  C   UNL     1       0.052  -8.384  29.305  0.00  0.00    +0.113 C 
ATOM      6  C   UNL     1       0.363  -7.192  29.692  0.00  0.00    +0.063 C 
ATOM      7  H   UNL     1      -0.521  -6.238  32.133  0.00  0.00    +0.097 HD
ENDROOT
BRANCH   1   8
ATOM      8  C   UNL     1      -2.059  -5.515  30.339  0.00  0.00    +0.100 C 
ATOM      9  C   UNL     1      -3.228  -5.496  31.291  0.00  0.00    +0.017 C 
ATOM     10  C   UNL     1      -4.244  -4.530  30.709  0.00  0.00    +0.005 C 
ATOM     11  C   UNL     1      -3.705  -3.145  30.696  0.00  0.00    +0.052 C 
ATOM     12  C   UNL     1      -2.349  -3.013  30.055  0.00  0.00    +0.230 C 
ATOM     13  C   UNL     1      -1.460  -4.165  30.355  0.00  0.00    +0.199 C 
ATOM     14  O   UNL     1      -0.292  -3.919  30.595  0.00  0.00    -0.291 OA
BRANCH  12  15
ATOM     15  O   UNL     1      -2.545  -2.852  28.670  0.00  0.00    -0.414 OA
BRANCH  15  16
ATOM     16  C   UNL     1      -2.052  -1.727  28.042  0.00  0.00    +0.509 C 
ATOM     17  O   UNL     1      -1.814  -0.640  28.633  0.00  0.00    -0.203 OA
BRANCH  16  18
ATOM     18  O   UNL     1      -1.777  -1.729  26.666  0.00  0.00    -0.450 OA
ATOM     19  H   UNL     1      -1.929  -2.502  26.159  0.00  0.00    +0.299 HD
ENDBRANCH  16  18
ENDBRANCH  15  16
ENDBRANCH  12  15
ENDBRANCH   1   8
BRANCH   6  20
ATOM     20  S   UNL     1       1.688  -6.157  29.223  0.00  0.00    -0.059 S 
BRANCH  20  21
ATOM     21  C   UNL     1       2.894  -6.879  28.155  0.00  0.00    +0.109 C 
ATOM     22  S   UNL     1       4.147  -6.029  27.533  0.00  0.00    -0.028 S 
BRANCH  21  23
ATOM     23  N   UNL     1       2.809  -8.244  27.801  0.00  0.00    -0.347 N 
ATOM     24  H   UNL     1       2.074  -8.798  28.149  0.00  0.00    +0.143 HD
ATOM     25  H   UNL     1       3.485  -8.641  27.206  0.00  0.00    +0.143 HD
ENDBRANCH  21  23
ENDBRANCH  20  21
ENDBRANCH   6  20
TORSDOF 7
