REMARK  Name = =
REMARK  10 active torsions:
REMARK  status: ('A' for Active; 'I' for Inactive)
REMARK    1  A    between atoms: S_1  and  C_7
REMARK    2  A    between atoms: S_1  and  O_18
REMARK    3  A    between atoms: C_6  and  S_27
REMARK    4  A    between atoms: C_11  and  O_14
REMARK    5  A    between atoms: O_14  and  C_15
REMARK    6  A    between atoms: C_15  and  O_17
REMARK    7  A    between atoms: O_18  and  C_19
REMARK    8  A    between atoms: C_22  and  C_25
REMARK    9  A    between atoms: S_27  and  C_28
REMARK   10  A    between atoms: C_28  and  N_30
REMARK                            x       y       z     vdW  Elec       q    Type
REMARK                         _______ _______ _______ _____ _____    ______ ____
ROOT
ATOM      1  S   UNL     1       0.039  -5.920  28.476  0.00  0.00    +0.031 S 
ATOM      2  C   UNL     1      -1.408  -4.683  28.713  0.00  0.00    +0.269 C 
ATOM      3  F   UNL     1      -2.564  -5.084  29.214  0.00  0.00    -0.174 F 
ATOM      4  N   UNL     1      -0.928  -3.633  28.307  0.00  0.00    -0.209 NA
ATOM      5  C   UNL     1       0.315  -3.478  27.832  0.00  0.00    +0.116 C 
ATOM      6  C   UNL     1       1.114  -4.449  27.765  0.00  0.00    +0.099 C 
ENDROOT
BRANCH   1   7
ATOM      7  C   UNL     1       0.715  -6.432  30.054  0.00  0.00    +0.137 C 
ATOM      8  C   UNL     1      -0.178  -7.528  30.585  0.00  0.00    +0.021 C 
ATOM      9  C   UNL     1       0.368  -7.891  31.973  0.00  0.00    +0.006 C 
ATOM     10  C   UNL     1       0.121  -6.700  32.852  0.00  0.00    +0.052 C 
ATOM     11  C   UNL     1       1.007  -5.567  32.423  0.00  0.00    +0.230 C 
ATOM     12  C   UNL     1       0.726  -5.298  30.993  0.00  0.00    +0.202 C 
ATOM     13  O   UNL     1       0.505  -4.180  30.572  0.00  0.00    -0.291 OA
BRANCH  11  14
ATOM     14  O   UNL     1       2.365  -5.790  32.576  0.00  0.00    -0.414 OA
BRANCH  14  15
ATOM     15  C   UNL     1       3.064  -5.243  33.633  0.00  0.00    +0.509 C 
ATOM     16  O   UNL     1       2.392  -4.814  34.582  0.00  0.00    -0.203 OA
BRANCH  15  17
ATOM     17  O   UNL     1       4.465  -5.163  33.655  0.00  0.00    -0.450 OA
ATOM     18  H   UNL     1       4.901  -4.784  34.393  0.00  0.00    +0.299 HD
ENDBRANCH  15  17
ENDBRANCH  14  15
ENDBRANCH  11  14
ENDBRANCH   1   7
BRANCH   1  19
ATOM     19  O   UNL     1      -0.131  -7.019  27.350  0.00  0.00    -0.432 OA
BRANCH  19  20
ATOM     20  C   UNL     1       0.461  -8.207  27.083  0.00  0.00    +0.154 C 
ATOM     21  C   UNL     1       1.583  -8.272  26.281  0.00  0.00    +0.038 C 
ATOM     22  C   UNL     1       2.202  -9.494  25.999  0.00  0.00    +0.006 C 
ATOM     23  C   UNL     1       1.689 -10.652  26.528  0.00  0.00    +0.042 C 
ATOM     24  C   UNL     1       0.565 -10.611  27.335  0.00  0.00    +0.006 C 
ATOM     25  C   UNL     1      -0.036  -9.380  27.602  0.00  0.00    +0.038 C 
BRANCH  23  26
ATOM     26  C   UNL     1       2.312 -11.931  26.250  0.00  0.00    +0.234 C 
ATOM     27  O   UNL     1       3.317 -11.967  25.510  0.00  0.00    -0.283 OA
ENDBRANCH  23  26
ENDBRANCH  19  20
ENDBRANCH   1  19
BRANCH   6  28
ATOM     28  S   UNL     1       2.754  -4.811  27.264  0.00  0.00    -0.056 S 
BRANCH  28  29
ATOM     29  C   UNL     1       3.200  -3.663  26.012  0.00  0.00    +0.109 C 
ATOM     30  S   UNL     1       4.520  -4.001  25.084  0.00  0.00    -0.028 S 
BRANCH  29  31
ATOM     31  N   UNL     1       2.521  -2.454  25.721  0.00  0.00    -0.347 N 
ATOM     32  H   UNL     1       1.726  -2.199  26.242  0.00  0.00    +0.143 HD
ATOM     33  H   UNL     1       2.845  -1.869  24.998  0.00  0.00    +0.143 HD
ENDBRANCH  29  31
ENDBRANCH  28  29
ENDBRANCH   6  28
TORSDOF 10
