REMARK  Name = =
REMARK  11 active torsions:
REMARK  status: ('A' for Active; 'I' for Inactive)
REMARK    1  A    between atoms: S_1  and  C_7
REMARK    2  A    between atoms: S_1  and  C_18
REMARK    3  A    between atoms: S_1  and  O_29
REMARK    4  A    between atoms: C_6  and  S_38
REMARK    5  A    between atoms: C_22  and  O_25
REMARK    6  A    between atoms: O_25  and  C_26
REMARK    7  A    between atoms: C_26  and  O_28
REMARK    8  A    between atoms: O_29  and  C_30
REMARK    9  A    between atoms: C_33  and  C_36
REMARK   10  A    between atoms: S_38  and  C_39
REMARK   11  A    between atoms: C_39  and  N_41
REMARK                            x       y       z     vdW  Elec       q    Type
REMARK                         _______ _______ _______ _____ _____    ______ ____
ROOT
ATOM      1  S   UNL     1       2.403  -6.744  27.421  0.00  0.00    -0.055 S 
ATOM      2  C   UNL     1       3.898  -7.560  27.796  0.00  0.00    +0.253 C 
ATOM      3  F   UNL     1       3.883  -8.951  28.384  0.00  0.00    -0.176 F 
ATOM      4  N   UNL     1       5.042  -7.328  27.696  0.00  0.00    -0.210 NA
ATOM      5  C   UNL     1       5.093  -6.116  27.129  0.00  0.00    +0.115 C 
ATOM      6  C   UNL     1       3.981  -5.713  26.923  0.00  0.00    +0.082 C 
ATOM      7  H   UNL     1       3.613  -7.181  26.981  0.00  0.00    +0.119 HD
ENDROOT
BRANCH   1   8
ATOM      8  C   UNL     1       1.802  -8.045  26.008  0.00  0.00    +0.032 C 
ATOM      9  C   UNL     1       2.091  -7.793  24.722  0.00  0.00    +0.008 C 
ATOM     10  C   UNL     1       1.848  -8.742  23.699  0.00  0.00    +0.015 C 
ATOM     11  C   UNL     1       1.303  -9.913  24.121  0.00  0.00    +0.051 C 
ATOM     12  C   UNL     1       0.979 -10.238  25.416  0.00  0.00    +0.053 C 
ATOM     13  C   UNL     1       1.263  -9.219  26.363  0.00  0.00    +0.011 C 
ATOM     14  C   UNL     1       0.440 -11.397  25.856  0.00  0.00    +0.198 C 
ATOM     15  O   UNL     1       0.163 -11.640  27.058  0.00  0.00    -0.286 OA
ATOM     16  C   UNL     1       0.178 -12.381  24.886  0.00  0.00    +0.058 C 
ATOM     17  C   UNL     1       0.499 -12.067  23.583  0.00  0.00    +0.065 C 
ATOM     18  N   UNL     1       1.035 -10.894  23.204  0.00  0.00    -0.311 N 
ATOM     19  H   UNL     1       1.238 -10.738  22.253  0.00  0.00    +0.152 HD
ENDBRANCH   1   8
BRANCH   1  20
ATOM     20  C   UNL     1       1.688  -7.023  29.212  0.00  0.00    +0.120 C 
ATOM     21  C   UNL     1       2.003  -5.823  29.997  0.00  0.00    +0.019 C 
ATOM     22  C   UNL     1       1.961  -6.296  31.450  0.00  0.00    +0.006 C 
ATOM     23  C   UNL     1       0.621  -6.881  31.796  0.00  0.00    +0.052 C 
ATOM     24  C   UNL     1      -0.316  -6.558  30.597  0.00  0.00    +0.230 C 
ATOM     25  C   UNL     1       0.332  -7.220  29.457  0.00  0.00    +0.201 C 
ATOM     26  O   UNL     1      -0.305  -7.967  28.691  0.00  0.00    -0.291 OA
BRANCH  24  27
ATOM     27  O   UNL     1      -1.541  -7.207  30.811  0.00  0.00    -0.414 OA
BRANCH  27  28
ATOM     28  C   UNL     1      -2.676  -6.493  31.041  0.00  0.00    +0.509 C 
ATOM     29  O   UNL     1      -2.597  -5.253  31.212  0.00  0.00    -0.203 OA
BRANCH  28  30
ATOM     30  O   UNL     1      -3.934  -7.077  31.096  0.00  0.00    -0.450 OA
ATOM     31  H   UNL     1      -4.690  -6.547  31.257  0.00  0.00    +0.299 HD
ENDBRANCH  28  30
ENDBRANCH  27  28
ENDBRANCH  24  27
ENDBRANCH   1  20
BRANCH   1  32
ATOM     32  O   UNL     1       1.819  -4.869  27.063  0.00  0.00    -0.449 OA
BRANCH  32  33
ATOM     33  C   UNL     1       0.864  -4.169  27.587  0.00  0.00    +0.152 C 
ATOM     34  C   UNL     1      -0.435  -4.678  27.605  0.00  0.00    +0.038 C 
ATOM     35  C   UNL     1      -1.513  -4.026  28.129  0.00  0.00    +0.006 C 
ATOM     36  C   UNL     1      -1.280  -2.782  28.672  0.00  0.00    +0.042 C 
ATOM     37  C   UNL     1      -0.028  -2.229  28.685  0.00  0.00    +0.006 C 
ATOM     38  C   UNL     1       1.047  -2.927  28.140  0.00  0.00    +0.038 C 
BRANCH  36  39
ATOM     39  C   UNL     1      -2.396  -2.042  29.246  0.00  0.00    +0.234 C 
ATOM     40  O   UNL     1      -2.362  -0.778  29.336  0.00  0.00    -0.283 OA
ENDBRANCH  36  39
ENDBRANCH  32  33
ENDBRANCH   1  32
BRANCH   6  41
ATOM     41  S   UNL     1       3.790  -4.128  25.892  0.00  0.00    -0.057 S 
BRANCH  41  42
ATOM     42  C   UNL     1       5.115  -3.952  24.838  0.00  0.00    +0.109 C 
ATOM     43  S   UNL     1       5.921  -5.104  24.056  0.00  0.00    -0.028 S 
BRANCH  42  44
ATOM     44  N   UNL     1       5.569  -2.591  24.548  0.00  0.00    -0.347 N 
ATOM     45  H   UNL     1       5.132  -1.823  24.983  0.00  0.00    +0.143 HD
ATOM     46  H   UNL     1       6.311  -2.443  23.918  0.00  0.00    +0.143 HD
ENDBRANCH  42  44
ENDBRANCH  41  42
ENDBRANCH   6  41
TORSDOF 11
