REMARK  Name = =
REMARK  0 active torsions:
REMARK  status: ('A' for Active; 'I' for Inactive)
REMARK                            x       y       z     vdW  Elec       q    Type
REMARK                         _______ _______ _______ _____ _____    ______ ____
ROOT
ATOM      1  C   UNL     1      -3.871  -3.866  31.205  0.00  0.00    +0.049 C 
ATOM      2  C   UNL     1      -5.380  -3.625  31.338  0.00  0.00    +0.092 C 
ATOM      3  N   UNL     1      -5.589  -2.198  31.090  0.00  0.00    -0.333 N 
ATOM      4  C   UNL     1      -4.303  -1.597  31.090  0.00  0.00    +0.040 C 
ATOM      5  C   UNL     1      -3.483  -2.653  30.453  0.00  0.00    -0.009 C 
ATOM      6  C   UNL     1      -2.647  -2.413  29.464  0.00  0.00    +0.003 C 
ATOM      7  C   UNL     1      -2.495  -1.041  28.925  0.00  0.00    +0.147 C 
ATOM      8  N   UNL     1      -1.634  -1.109  27.992  0.00  0.00    -0.262 NA
ATOM      9  C   UNL     1      -1.139  -2.424  27.800  0.00  0.00    +0.094 C 
ATOM     10  C   UNL     1      -1.731  -3.219  28.670  0.00  0.00    +0.018 C 
ATOM     11  C   UNL     1      -3.314  -0.011  29.551  0.00  0.00    +0.003 C 
ATOM     12  C   UNL     1      -4.146  -0.275  30.548  0.00  0.00    +0.012 C 
ATOM     13  H   UNL     1      -6.452  -1.744  30.951  0.00  0.00    +0.147 HD
ENDROOT
TORSDOF 0
