REMARK  Name = =
REMARK  1 active torsions:
REMARK  status: ('A' for Active; 'I' for Inactive)
REMARK    1  A    between atoms: C_1  and  C_13
REMARK                            x       y       z     vdW  Elec       q    Type
REMARK                         _______ _______ _______ _____ _____    ______ ____
ROOT
ATOM      1  C   UNL     1      -3.533  -3.317  31.507  0.00  0.00    +0.087 C 
ATOM      2  C   UNL     1      -5.026  -3.146  31.477  0.00  0.00    +0.095 C 
ATOM      3  N   UNL     1      -5.267  -1.778  31.043  0.00  0.00    -0.335 N 
ATOM      4  C   UNL     1      -4.034  -1.209  30.707  0.00  0.00    +0.026 C 
ATOM      5  C   UNL     1      -3.079  -2.294  30.497  0.00  0.00    +0.068 C 
ATOM      6  C   UNL     1      -2.127  -2.185  29.605  0.00  0.00    +0.002 C 
ATOM      7  C   UNL     1      -1.959  -1.016  28.750  0.00  0.00    +0.078 C 
ATOM      8  N   UNL     1      -0.944  -1.226  27.992  0.00  0.00    -0.244 NA
ATOM      9  C   UNL     1      -0.379  -2.513  28.281  0.00  0.00    +0.099 C 
ATOM     10  C   UNL     1      -1.054  -3.128  29.243  0.00  0.00    +0.018 C 
ATOM     11  C   UNL     1      -2.925   0.050  28.948  0.00  0.00    +0.020 C 
ATOM     12  C   UNL     1      -3.889  -0.076  29.876  0.00  0.00    +0.012 C 
ATOM     13  H   UNL     1      -6.143  -1.332  30.994  0.00  0.00    +0.147 HD
ENDROOT
BRANCH   1  14
ATOM     14  C   UNL     1      -3.091  -4.673  31.182  0.00  0.00    +0.141 C 
ATOM     15  N   UNL     1      -2.438  -5.423  32.109  0.00  0.00    -0.228 NA
ATOM     16  C   UNL     1      -2.007  -6.654  31.902  0.00  0.00    +0.121 C 
ATOM     17  C   UNL     1      -2.218  -7.246  30.675  0.00  0.00    +0.121 C 
ATOM     18  N   UNL     1      -1.761  -8.496  30.514  0.00  0.00    -0.221 NA
ATOM     19  C   UNL     1      -1.122  -9.130  31.536  0.00  0.00    +0.199 C 
ATOM     20  N   UNL     1      -0.922  -8.543  32.729  0.00  0.00    -0.221 NA
ATOM     21  C   UNL     1      -1.358  -7.302  32.936  0.00  0.00    +0.121 C 
ATOM     22  C   UNL     1      -2.869  -6.523  29.721  0.00  0.00    +0.121 C 
ATOM     23  N   UNL     1      -3.289  -5.264  29.991  0.00  0.00    -0.228 NA
ENDBRANCH   1  14
TORSDOF 1
