REMARK  Name = =
REMARK  2 active torsions:
REMARK  status: ('A' for Active; 'I' for Inactive)
REMARK    1  A    between atoms: C_1  and  C_13
REMARK    2  A    between atoms: C_1  and  C_23
REMARK                            x       y       z     vdW  Elec       q    Type
REMARK                         _______ _______ _______ _____ _____    ______ ____
ROOT
ATOM      1  C   UNL     1      -1.549  -3.905  29.203  0.00  0.00    +0.099 C 
ATOM      2  C   UNL     1      -2.135  -4.756  28.045  0.00  0.00    +0.099 C 
ATOM      3  N   UNL     1      -2.448  -3.790  27.021  0.00  0.00    -0.335 N 
ATOM      4  C   UNL     1      -1.980  -2.517  27.449  0.00  0.00    +0.026 C 
ATOM      5  C   UNL     1      -0.834  -2.916  28.357  0.00  0.00    +0.071 C 
ATOM      6  C   UNL     1       0.339  -2.383  28.204  0.00  0.00    +0.003 C 
ATOM      7  C   UNL     1       0.622  -1.386  27.180  0.00  0.00    +0.078 C 
ATOM      8  N   UNL     1       1.847  -1.061  27.281  0.00  0.00    -0.244 NA
ATOM      9  C   UNL     1       2.459  -1.785  28.338  0.00  0.00    +0.099 C 
ATOM     10  C   UNL     1       1.583  -2.590  28.914  0.00  0.00    +0.018 C 
ATOM     11  C   UNL     1      -0.449  -0.972  26.289  0.00  0.00    +0.020 C 
ATOM     12  C   UNL     1      -1.636  -1.531  26.458  0.00  0.00    +0.012 C 
ATOM     13  H   UNL     1      -2.907  -3.979  26.171  0.00  0.00    +0.147 HD
ENDROOT
BRANCH   1  14
ATOM     14  C   UNL     1      -0.781  -4.712  30.115  0.00  0.00    +0.145 C 
ATOM     15  N   UNL     1       0.381  -4.256  30.609  0.00  0.00    -0.227 NA
ATOM     16  C   UNL     1       1.140  -4.956  31.461  0.00  0.00    +0.121 C 
ATOM     17  C   UNL     1       0.713  -6.200  31.851  0.00  0.00    +0.121 C 
ATOM     18  N   UNL     1       1.494  -6.899  32.718  0.00  0.00    -0.221 NA
ATOM     19  C   UNL     1       2.640  -6.397  33.177  0.00  0.00    +0.199 C 
ATOM     20  N   UNL     1       3.034  -5.173  32.776  0.00  0.00    -0.221 NA
ATOM     21  C   UNL     1       2.321  -4.433  31.931  0.00  0.00    +0.121 C 
ATOM     22  C   UNL     1      -0.463  -6.694  31.368  0.00  0.00    +0.121 C 
ATOM     23  N   UNL     1      -1.171  -5.933  30.515  0.00  0.00    -0.227 NA
ENDBRANCH   1  14
BRANCH   1  24
ATOM     24  C   UNL     1      -2.623  -3.136  29.887  0.00  0.00    +0.002 C 
ATOM     25  C   UNL     1      -2.652  -1.776  29.838  0.00  0.00    +0.067 C 
ATOM     26  N   UNL     1      -3.668  -1.160  30.497  0.00  0.00    -0.247 N 
ATOM     27  C   UNL     1      -4.608  -1.840  31.171  0.00  0.00    +0.139 C 
ATOM     28  N   UNL     1      -5.480  -0.942  31.718  0.00  0.00    -0.227 NA
ATOM     29  C   UNL     1      -5.085   0.287  31.386  0.00  0.00    +0.117 C 
ATOM     30  C   UNL     1      -3.959   0.144  30.627  0.00  0.00    +0.092 C 
ATOM     31  C   UNL     1      -4.603  -3.214  31.238  0.00  0.00    +0.035 C 
ATOM     32  C   UNL     1      -3.570  -3.867  30.569  0.00  0.00    +0.000 C 
ENDBRANCH   1  24
TORSDOF 2
