REMARK  Name = =
REMARK  3 active torsions:
REMARK  status: ('A' for Active; 'I' for Inactive)
REMARK    1  A    between atoms: C_1  and  C_13
REMARK    2  A    between atoms: C_1  and  C_34
REMARK    3  A    between atoms: C_20  and  C_23
REMARK                            x       y       z     vdW  Elec       q    Type
REMARK                         _______ _______ _______ _____ _____    ______ ____
ROOT
ATOM      1  C   UNL     1       2.252  -6.539  28.088  0.00  0.00    +0.110 C 
ATOM      2  C   UNL     1       2.667  -7.274  29.369  0.00  0.00    +0.103 C 
ATOM      3  N   UNL     1       2.359  -6.397  30.480  0.00  0.00    -0.332 N 
ATOM      4  C   UNL     1       2.112  -5.128  29.938  0.00  0.00    +0.041 C 
ATOM      5  C   UNL     1       1.508  -5.394  28.633  0.00  0.00    +0.001 C 
ATOM      6  C   UNL     1       0.537  -4.618  28.197  0.00  0.00    +0.003 C 
ATOM      7  C   UNL     1      -0.013  -3.527  29.011  0.00  0.00    +0.147 C 
ATOM      8  N   UNL     1      -0.947  -2.951  28.310  0.00  0.00    -0.262 NA
ATOM      9  C   UNL     1      -1.100  -3.563  27.045  0.00  0.00    +0.094 C 
ATOM     10  C   UNL     1      -0.234  -4.556  26.943  0.00  0.00    +0.018 C 
ATOM     11  C   UNL     1       0.559  -3.296  30.318  0.00  0.00    +0.003 C 
ATOM     12  C   UNL     1       1.554  -4.068  30.724  0.00  0.00    +0.012 C 
ATOM     13  H   UNL     1       2.329  -6.645  31.432  0.00  0.00    +0.147 HD
ENDROOT
BRANCH   1  14
ATOM     14  C   UNL     1       3.467  -6.048  27.354  0.00  0.00    +0.148 C 
ATOM     15  N   UNL     1       3.510  -5.847  26.039  0.00  0.00    -0.227 NA
ATOM     16  C   UNL     1       4.569  -5.407  25.347  0.00  0.00    +0.120 C 
ATOM     17  C   UNL     1       5.748  -5.128  26.061  0.00  0.00    +0.121 C 
ATOM     18  N   UNL     1       6.821  -4.675  25.417  0.00  0.00    -0.221 NA
ATOM     19  C   UNL     1       6.844  -4.463  24.090  0.00  0.00    +0.199 C 
ATOM     20  N   UNL     1       5.736  -4.724  23.397  0.00  0.00    -0.222 NA
ATOM     21  C   UNL     1       4.591  -5.195  24.002  0.00  0.00    +0.108 C 
ATOM     22  C   UNL     1       5.709  -5.334  27.420  0.00  0.00    +0.121 C 
ATOM     23  N   UNL     1       4.611  -5.777  28.045  0.00  0.00    -0.227 NA
BRANCH  21  24
ATOM     24  C   UNL     1       3.423  -5.442  23.169  0.00  0.00    +0.096 C 
ATOM     25  C   UNL     1       2.414  -4.570  22.925  0.00  0.00    +0.184 C 
ATOM     26  O   UNL     1       1.373  -4.899  22.172  0.00  0.00    -0.450 OA
ATOM     27  C   UNL     1       1.225  -6.058  21.611  0.00  0.00    +0.148 C 
ATOM     28  C   UNL     1       2.204  -7.037  21.795  0.00  0.00    +0.074 C 
ATOM     29  C   UNL     1       2.044  -8.266  21.199  0.00  0.00    +0.006 C 
ATOM     30  C   UNL     1       0.956  -8.582  20.423  0.00  0.00    +0.000 C 
ATOM     31  C   UNL     1      -0.010  -7.596  20.250  0.00  0.00    +0.003 C 
ATOM     32  C   UNL     1       0.138  -6.364  20.840  0.00  0.00    +0.038 C 
ATOM     33  C   UNL     1       3.281  -6.709  22.569  0.00  0.00    +0.203 C 
ATOM     34  O   UNL     1       4.190  -7.546  22.769  0.00  0.00    -0.286 OA
ENDBRANCH  21  24
ENDBRANCH   1  14
BRANCH   1  35
ATOM     35  C   UNL     1       1.475  -7.446  27.232  0.00  0.00    +0.005 C 
ATOM     36  C   UNL     1       2.057  -8.048  26.149  0.00  0.00    +0.067 C 
ATOM     37  N   UNL     1       1.339  -8.923  25.371  0.00  0.00    -0.247 N 
ATOM     38  C   UNL     1       0.063  -9.199  25.660  0.00  0.00    +0.139 C 
ATOM     39  N   UNL     1      -0.412 -10.095  24.731  0.00  0.00    -0.227 NA
ATOM     40  C   UNL     1       0.570 -10.377  23.862  0.00  0.00    +0.117 C 
ATOM     41  C   UNL     1       1.654  -9.636  24.277  0.00  0.00    +0.092 C 
ATOM     42  C   UNL     1      -0.527  -8.600  26.743  0.00  0.00    +0.035 C 
ATOM     43  C   UNL     1       0.176  -7.724  27.531  0.00  0.00    +0.001 C 
ENDBRANCH   1  35
TORSDOF 3
