MODEL 1
REMARK VINA RESULT:    -8.297      0.000      0.000
REMARK INTER + INTRA:         -10.131
REMARK INTER:                 -12.663
REMARK INTRA:                   2.532
REMARK UNBOUND:                 2.532
REMARK  Name = =
REMARK  10 active torsions:
REMARK  status: ('A' for Active; 'I' for Inactive)
REMARK    1  A    between atoms: C_1  and  N_9
REMARK    2  A    between atoms: C_1  and  N_17
REMARK    3  A    between atoms: C_4  and  C_40
REMARK    4  A    between atoms: C_5  and  S_39
REMARK    5  A    between atoms: C_13  and  C_15
REMARK    6  A    between atoms: C_18  and  N_22
REMARK    7  A    between atoms: N_22  and  C_25
REMARK    8  A    between atoms: C_23  and  O_32
REMARK    9  A    between atoms: O_32  and  C_33
REMARK   10  A    between atoms: C_40  and  O_42
REMARK                            x       y       z     vdW  Elec       q    Type
REMARK                         _______ _______ _______ _____ _____    ______ ____
ROOT
ATOM      1  C   UNL     1     -22.130 -39.808  20.736  0.00  0.00    +0.204 C 
ATOM      2  C   UNL     1     -21.911 -38.922  19.598  0.00  0.00    +0.125 C 
ATOM      3  N   UNL     1     -22.587 -37.794  20.256  0.00  0.00    -0.249 N 
ATOM      4  C   UNL     1     -22.774 -36.865  19.198  0.00  0.00    +0.132 C 
ATOM      5  C   UNL     1     -22.864 -37.517  18.043  0.00  0.00    +0.021 C 
ATOM      6  C   UNL     1     -22.723 -38.998  18.347  0.00  0.00    +0.058 C 
ATOM      7  C   UNL     1     -22.516 -38.545  21.458  0.00  0.00    +0.262 C 
ATOM      8  O   UNL     1     -22.728 -38.166  22.639  0.00  0.00    -0.271 OA
ENDROOT
BRANCH   1   9
ATOM      9  N   UNL     1     -23.272 -40.728  20.693  0.00  0.00    -0.192 N 
ATOM     10  C   UNL     1     -24.526 -40.264  21.148  0.00  0.00    +0.308 C 
ATOM     11  O   UNL     1     -24.657 -39.065  21.616  0.00  0.00    -0.252 OA
ATOM     12  N   UNL     1     -25.692 -41.051  21.124  0.00  0.00    -0.313 N 
ATOM     13  C   UNL     1     -23.116 -42.024  20.181  0.00  0.00    +0.257 C 
ATOM     14  O   UNL     1     -21.931 -42.292  19.748  0.00  0.00    -0.269 OA
ATOM     15  H   UNL     1     -25.656 -41.972  20.779  0.00  0.00    +0.146 HD
ATOM     16  H   UNL     1     -26.542 -40.681  21.454  0.00  0.00    +0.146 HD
BRANCH  13  17
ATOM     17  C   UNL     1     -24.060 -43.086  20.069  0.00  0.00    +0.058 C 
ATOM     18  C   UNL     1     -24.350 -43.569  18.842  0.00  0.00    +0.005 C 
ENDBRANCH  13  17
ENDBRANCH   1   9
BRANCH   1  19
ATOM     19  N   UNL     1     -20.906 -40.366  21.280  0.00  0.00    -0.237 NA
ATOM     20  C   UNL     1     -20.527 -39.897  22.550  0.00  0.00    +0.141 C 
ATOM     21  C   UNL     1     -19.204 -39.175  22.466  0.00  0.00    +0.038 C 
ATOM     22  C   UNL     1     -18.834 -39.163  21.011  0.00  0.00    +0.021 C 
ATOM     23  C   UNL     1     -19.837 -40.058  20.379  0.00  0.00    +0.076 C 
BRANCH  20  24
ATOM     24  N   UNL     1     -20.327 -40.926  23.580  0.00  0.00    -0.229 N 
ATOM     25  C   UNL     1     -19.158 -41.752  23.550  0.00  0.00    +0.411 C 
ATOM     26  O   UNL     1     -18.258 -41.660  22.683  0.00  0.00    -0.226 OA
BRANCH  24  27
ATOM     27  C   UNL     1     -21.279 -41.114  24.636  0.00  0.00    +0.131 C 
ATOM     28  C   UNL     1     -22.658 -41.490  24.211  0.00  0.00    +0.165 C 
ATOM     29  O   UNL     1     -23.741 -40.613  24.469  0.00  0.00    -0.351 OA
ATOM     30  C   UNL     1     -23.540 -41.729  25.346  0.00  0.00    +0.149 C 
ATOM     31  C   UNL     1     -22.936 -41.414  26.712  0.00  0.00    +0.058 C 
ATOM     32  C   UNL     1     -22.245 -40.076  26.552  0.00  0.00    -0.026 C 
ATOM     33  C   UNL     1     -21.426 -39.920  25.527  0.00  0.00    -0.009 C 
ENDBRANCH  24  27
BRANCH  25  34
ATOM     34  O   UNL     1     -18.952 -42.740  24.527  0.00  0.00    -0.410 OA
BRANCH  34  35
ATOM     35  C   UNL     1     -18.092 -42.461  25.573  0.00  0.00    +0.150 C 
ATOM     36  C   UNL     1     -18.702 -42.137  26.788  0.00  0.00    +0.038 C 
ATOM     37  C   UNL     1     -17.981 -41.832  27.926  0.00  0.00    +0.003 C 
ATOM     38  C   UNL     1     -16.590 -41.848  27.861  0.00  0.00    +0.000 C 
ATOM     39  C   UNL     1     -15.996 -42.168  26.659  0.00  0.00    +0.003 C 
ATOM     40  C   UNL     1     -16.733 -42.472  25.523  0.00  0.00    +0.038 C 
ENDBRANCH  34  35
ENDBRANCH  25  34
ENDBRANCH  20  24
ENDBRANCH   1  19
BRANCH   5  41
ATOM     41  S   UNL     1     -23.105 -36.748  16.470  0.00  0.00    -0.144 S 
ATOM     42  H   UNL     1     -22.317 -37.356  15.542  0.00  0.00    +0.107 HD
ENDBRANCH   5  41
BRANCH   4  43
ATOM     43  C   UNL     1     -22.865 -35.421  19.330  0.00  0.00    +0.352 C 
ATOM     44  O   UNL     1     -23.973 -34.835  19.397  0.00  0.00    -0.244 OA
BRANCH  43  45
ATOM     45  O   UNL     1     -21.726 -34.647  19.387  0.00  0.00    -0.476 OA
ATOM     46  H   UNL     1     -20.885 -35.041  19.264  0.00  0.00    +0.295 HD
ENDBRANCH  43  45
ENDBRANCH   4  43
TORSDOF 10
ENDMDL
