REMARK  Name = =
REMARK  1 active torsions:
REMARK  status: ('A' for Active; 'I' for Inactive)
REMARK    1  A    between atoms: N_1  and  C_3
REMARK                            x       y       z     vdW  Elec       q    Type
REMARK                         _______ _______ _______ _____ _____    ______ ____
ROOT
ATOM      1  N   UNL     1      -6.358  -2.900  31.779  0.00  0.00    -0.350 N 
ATOM      2  H   UNL     1      -6.750  -2.031  31.532  0.00  0.00    +0.143 HD
ATOM      3  H   UNL     1      -6.824  -3.735  31.545  0.00  0.00    +0.143 HD
ENDROOT
BRANCH   1   5
ATOM      4  S   UNL     1      -4.426  -4.352  32.905  0.00  0.00    -0.033 S 
ATOM      5  C   UNL     1      -5.127  -2.948  32.469  0.00  0.00    +0.098 C 
ENDBRANCH   1   5
TORSDOF 1
