REMARK  Name = =
REMARK  7 active torsions:
REMARK  status: ('A' for Active; 'I' for Inactive)
REMARK    1  A    between atoms: C_1  and  P_5
REMARK    2  A    between atoms: C_1  and  P_9
REMARK    3  A    between atoms: C_2  and  C_3
REMARK    4  A    between atoms: P_5  and  O_7
REMARK    5  A    between atoms: P_5  and  O_8
REMARK    6  A    between atoms: P_9  and  O_11
REMARK    7  A    between atoms: P_9  and  O_12
REMARK                            x       y       z     vdW  Elec       q    Type
REMARK                         _______ _______ _______ _____ _____    ______ ____
ROOT
ATOM      1  C   UNL     1      -3.304  -3.923  31.370  0.00  0.00    +0.163 C 
ATOM      2  C   UNL     1      -4.123  -3.152  32.041  0.00  0.00    +0.060 C 
ENDROOT
BRANCH   2   3
ATOM      3  C   UNL     1      -4.870  -3.667  33.164  0.00  0.00    +0.235 C 
ATOM      4  O   UNL     1      -5.533  -2.948  33.953  0.00  0.00    -0.283 OA
ENDBRANCH   2   3
BRANCH   1   5
ATOM      5  P   UNL     1      -3.120  -5.643  31.867  0.00  0.00    +0.367 P 
ATOM      6  O   UNL     1      -4.424  -6.373  31.565  0.00  0.00    -0.253 OA
BRANCH   5   7
ATOM      7  O   UNL     1      -1.812  -6.376  31.109  0.00  0.00    -0.321 OA
ATOM      8  H   UNL     1      -1.001  -5.889  31.321  0.00  0.00    +0.220 HD
ENDBRANCH   5   7
BRANCH   5   9
ATOM      9  O   UNL     1      -2.801  -5.684  33.547  0.00  0.00    -0.321 OA
ATOM     10  H   UNL     1      -3.535  -5.269  34.026  0.00  0.00    +0.220 HD
ENDBRANCH   5   9
ENDBRANCH   1   5
BRANCH   1  11
ATOM     11  P   UNL     1      -2.343  -3.380  29.977  0.00  0.00    +0.367 P 
ATOM     12  O   UNL     1      -2.672  -4.257  28.792  0.00  0.00    -0.253 OA
BRANCH  11  13
ATOM     13  O   UNL     1      -2.609  -1.783  29.574  0.00  0.00    -0.321 OA
ATOM     14  H   UNL     1      -2.398  -1.218  30.334  0.00  0.00    +0.220 HD
ENDBRANCH  11  13
BRANCH  11  15
ATOM     15  O   UNL     1      -0.704  -3.677  30.357  0.00  0.00    -0.321 OA
ATOM     16  H   UNL     1      -0.589  -4.613  30.585  0.00  0.00    +0.220 HD
ENDBRANCH  11  15
ENDBRANCH   1  11
TORSDOF 7
