REMARK  Name = =
REMARK  8 active torsions:
REMARK  status: ('A' for Active; 'I' for Inactive)
REMARK    1  A    between atoms: P_1  and  C_3
REMARK    2  A    between atoms: P_1  and  O_11
REMARK    3  A    between atoms: P_1  and  O_12
REMARK    4  A    between atoms: C_3  and  P_7
REMARK    5  A    between atoms: C_4  and  C_5
REMARK    6  A    between atoms: P_7  and  O_9
REMARK    7  A    between atoms: P_7  and  O_10
REMARK    8  A    between atoms: O_12  and  C_13
REMARK                            x       y       z     vdW  Elec       q    Type
REMARK                         _______ _______ _______ _____ _____    ______ ____
ROOT
ATOM      1  P   UNL     1       3.675  -1.413  21.608  0.00  0.00    +0.370 P 
ATOM      2  O   UNL     1       4.011  -2.595  22.517  0.00  0.00    -0.253 OA
ENDROOT
BRANCH   1   3
ATOM      3  C   UNL     1       2.228  -0.631  22.281  0.00  0.00    +0.163 C 
ATOM      4  C   UNL     1       1.532   0.181  21.505  0.00  0.00    +0.060 C 
BRANCH   4   5
ATOM      5  C   UNL     1       0.336   0.859  21.984  0.00  0.00    +0.235 C 
ATOM      6  O   UNL     1      -0.340   1.628  21.276  0.00  0.00    -0.283 OA
ENDBRANCH   4   5
BRANCH   3   7
ATOM      7  P   UNL     1       1.672  -0.888  23.956  0.00  0.00    +0.367 P 
ATOM      8  O   UNL     1       1.697   0.404  24.750  0.00  0.00    -0.253 OA
BRANCH   7   9
ATOM      9  O   UNL     1       0.102  -1.483  24.015  0.00  0.00    -0.321 OA
ATOM     10  H   UNL     1      -0.494  -0.869  23.558  0.00  0.00    +0.220 HD
ENDBRANCH   7   9
BRANCH   7  11
ATOM     11  O   UNL     1       2.728  -1.958  24.755  0.00  0.00    -0.321 OA
ATOM     12  H   UNL     1       2.748  -2.805  24.283  0.00  0.00    +0.220 HD
ENDBRANCH   7  11
ENDBRANCH   3   7
ENDBRANCH   1   3
BRANCH   1  13
ATOM     13  O   UNL     1       5.020  -0.382  21.653  0.00  0.00    -0.320 OA
ATOM     14  H   UNL     1       5.139  -0.046  22.555  0.00  0.00    +0.220 HD
ENDBRANCH   1  13
BRANCH   1  15
ATOM     15  O   UNL     1       3.452  -2.002  20.068  0.00  0.00    -0.289 OA
BRANCH  15  16
ATOM     16  C   UNL     1       3.298  -3.387  20.015  0.00  0.00    +0.151 C 
ATOM     17  C   UNL     1       4.049  -3.871  18.809  0.00  0.00    +0.061 C 
ATOM     18  C   UNL     1       3.040  -4.508  17.969  0.00  0.00    -0.020 C 
ATOM     19  C   UNL     1       3.080  -5.154  16.718  0.00  0.00    -0.004 C 
ATOM     20  C   UNL     1       1.924  -5.672  16.160  0.00  0.00    -0.000 C 
ATOM     21  C   UNL     1       0.720  -5.558  16.825  0.00  0.00    -0.000 C 
ATOM     22  C   UNL     1       0.654  -4.926  18.057  0.00  0.00    -0.001 C 
ATOM     23  C   UNL     1      -0.532  -4.797  18.747  0.00  0.00    -0.000 C 
ATOM     24  C   UNL     1      -0.501  -4.155  19.964  0.00  0.00    -0.000 C 
ATOM     25  C   UNL     1       0.704  -3.652  20.476  0.00  0.00    -0.002 C 
ATOM     26  C   UNL     1       1.890  -3.780  19.788  0.00  0.00    +0.005 C 
ATOM     27  C   UNL     1       1.835  -4.426  18.576  0.00  0.00    -0.006 C 
ENDBRANCH  15  16
ENDBRANCH   1  15
TORSDOF 8
