REMARK  Name = =
REMARK  2 active torsions:
REMARK  status: ('A' for Active; 'I' for Inactive)
REMARK    1  A    between atoms: C_1  and  N_8
REMARK    2  A    between atoms: N_8  and  C_10
REMARK                            x       y       z     vdW  Elec       q    Type
REMARK                         _______ _______ _______ _____ _____    ______ ____
ROOT
ATOM      1  C   UNL     1     -11.215   0.998  23.936  0.00  0.00    +0.107 C 
ATOM      2  C   UNL     1     -10.107   0.706  22.964  0.00  0.00    +0.161 C 
ATOM      3  O   UNL     1      -8.939   1.580  23.064  0.00  0.00    -0.352 OA
ATOM      4  C   UNL     1      -8.874   0.268  23.529  0.00  0.00    +0.148 C 
ATOM      5  C   UNL     1      -8.814  -0.004  25.001  0.00  0.00    +0.058 C 
ATOM      6  C   UNL     1     -10.120  -0.547  25.437  0.00  0.00    -0.027 C 
ATOM      7  C   UNL     1     -11.260  -0.083  24.942  0.00  0.00    -0.013 C 
ENDROOT
BRANCH   1   8
ATOM      8  N   UNL     1     -12.503   1.133  23.257  0.00  0.00    -0.283 NA
ATOM      9  H   UNL     1     -12.883   0.193  23.145  0.00  0.00    +0.124 HD
BRANCH   8  11
ATOM     10  S   UNL     1     -13.120   3.095  24.953  0.00  0.00    -0.063 S 
ATOM     11  C   UNL     1     -13.513   1.922  23.862  0.00  0.00    +0.139 C 
ENDBRANCH   8  11
ENDBRANCH   1   8
TORSDOF 2
