REMARK  Name = =
REMARK  10 active torsions:
REMARK  status: ('A' for Active; 'I' for Inactive)
REMARK    1  A    between atoms: C_1  and  N_13
REMARK    2  A    between atoms: C_1  and  O_19
REMARK    3  A    between atoms: N_13  and  N_17
REMARK    4  A    between atoms: O_19  and  P_20
REMARK    5  A    between atoms: P_20  and  C_22
REMARK    6  A    between atoms: P_20  and  O_30
REMARK    7  A    between atoms: C_22  and  P_26
REMARK    8  A    between atoms: C_23  and  C_24
REMARK    9  A    between atoms: P_26  and  O_28
REMARK   10  A    between atoms: P_26  and  O_29
REMARK                            x       y       z     vdW  Elec       q    Type
REMARK                         _______ _______ _______ _____ _____    ______ ____
ROOT
ATOM      1  C   UNL     1       2.074  -4.422  19.414  0.00  0.00    +0.205 C 
ATOM      2  C   UNL     1       2.918  -5.297  18.524  0.00  0.00    +0.080 C 
ATOM      3  C   UNL     1       2.246  -6.615  18.434  0.00  0.00    -0.018 C 
ATOM      4  C   UNL     1       2.500  -7.827  17.808  0.00  0.00    -0.004 C 
ATOM      5  C   UNL     1       1.642  -8.895  17.916  0.00  0.00    -0.000 C 
ATOM      6  C   UNL     1       0.484  -8.780  18.667  0.00  0.00    -0.000 C 
ATOM      7  C   UNL     1       0.207  -7.583  19.302  0.00  0.00    -0.000 C 
ATOM      8  C   UNL     1      -0.917  -7.358  20.072  0.00  0.00    -0.000 C 
ATOM      9  C   UNL     1      -1.118  -6.114  20.676  0.00  0.00    -0.000 C 
ATOM     10  C   UNL     1      -0.201  -5.085  20.518  0.00  0.00    -0.000 C 
ATOM     11  C   UNL     1       0.908  -5.333  19.748  0.00  0.00    +0.022 C 
ATOM     12  C   UNL     1       1.097  -6.549  19.161  0.00  0.00    -0.004 C 
ENDROOT
BRANCH   1  13
ATOM     13  N   UNL     1       1.496  -3.303  18.736  0.00  0.00    -0.139 N 
ATOM     14  C   UNL     1       2.098  -2.795  17.565  0.00  0.00    +0.319 C 
ATOM     15  O   UNL     1       3.159  -3.367  17.152  0.00  0.00    -0.251 OA
ATOM     16  N   UNL     1       1.580  -1.695  16.840  0.00  0.00    -0.312 N 
ATOM     17  H   UNL     1       0.761  -1.244  17.148  0.00  0.00    +0.147 HD
ATOM     18  H   UNL     1       2.039  -1.381  16.028  0.00  0.00    +0.147 HD
BRANCH  13  19
ATOM     19  N   UNL     1       0.339  -2.707  19.202  0.00  0.00    +0.056 NA
ATOM     20  O   UNL     1       0.314  -1.537  19.653  0.00  0.00    -0.078 OA
ENDBRANCH  13  19
ENDBRANCH   1  13
BRANCH   1  21
ATOM     21  O   UNL     1       2.656  -4.163  20.630  0.00  0.00    -0.272 OA
BRANCH  21  22
ATOM     22  P   UNL     1       4.262  -4.476  20.816  0.00  0.00    +0.371 P 
ATOM     23  O   UNL     1       5.163  -3.967  19.725  0.00  0.00    -0.253 OA
BRANCH  22  24
ATOM     24  C   UNL     1       4.799  -3.628  22.322  0.00  0.00    +0.163 C 
ATOM     25  C   UNL     1       4.178  -2.539  22.726  0.00  0.00    +0.060 C 
BRANCH  25  26
ATOM     26  C   UNL     1       4.620  -1.872  23.938  0.00  0.00    +0.235 C 
ATOM     27  O   UNL     1       4.559  -0.620  23.990  0.00  0.00    -0.283 OA
ENDBRANCH  25  26
BRANCH  24  28
ATOM     28  P   UNL     1       6.169  -4.293  23.236  0.00  0.00    +0.367 P 
ATOM     29  O   UNL     1       7.214  -3.248  23.540  0.00  0.00    -0.253 OA
BRANCH  28  30
ATOM     30  O   UNL     1       6.958  -5.484  22.293  0.00  0.00    -0.321 OA
ATOM     31  H   UNL     1       7.269  -5.087  21.465  0.00  0.00    +0.220 HD
ENDBRANCH  28  30
BRANCH  28  32
ATOM     32  O   UNL     1       5.666  -5.065  24.643  0.00  0.00    -0.321 OA
ATOM     33  H   UNL     1       5.210  -4.429  25.216  0.00  0.00    +0.220 HD
ENDBRANCH  28  32
ENDBRANCH  24  28
ENDBRANCH  22  24
BRANCH  22  34
ATOM     34  O   UNL     1       4.582  -6.132  21.115  0.00  0.00    -0.320 OA
ATOM     35  H   UNL     1       4.317  -6.657  20.343  0.00  0.00    +0.220 HD
ENDBRANCH  22  34
ENDBRANCH  21  22
ENDBRANCH   1  21
TORSDOF 10
