REMARK  Name = =
REMARK  5 active torsions:
REMARK  status: ('A' for Active; 'I' for Inactive)
REMARK    1  A    between atoms: S_1  and  C_2
REMARK    2  A    between atoms: S_1  and  C_4
REMARK    3  A    between atoms: C_2  and  N_10
REMARK    4  A    between atoms: C_3  and  O_9
REMARK    5  A    between atoms: N_10  and  C_11
REMARK                            x       y       z     vdW  Elec       q    Type
REMARK                         _______ _______ _______ _____ _____    ______ ____
ROOT
ATOM      1  S   UNL     1      -8.222  -2.190  22.470  0.00  0.00    -0.162 S 
ATOM      2  H   UNL     1      -7.395  -1.992  21.409  0.00  0.00    +0.098 HD
ENDROOT
BRANCH   1   4
ATOM      3  C   UNL     1      -9.338   0.287  23.095  0.00  0.00    +0.141 C 
ATOM      4  C   UNL     1      -9.484  -0.914  22.402  0.00  0.00    +0.067 C 
ATOM      5  C   UNL     1     -10.645  -1.060  21.667  0.00  0.00    +0.107 C 
ATOM      6  N   UNL     1     -11.591  -0.106  21.612  0.00  0.00    -0.242 NA
ATOM      7  C   UNL     1     -11.419   1.040  22.293  0.00  0.00    +0.102 C 
ATOM      8  C   UNL     1     -10.294   1.269  23.049  0.00  0.00    +0.058 C 
BRANCH   3   9
ATOM      9  O   UNL     1      -8.156   0.409  23.829  0.00  0.00    -0.505 OA
ATOM     10  H   UNL     1      -7.531  -0.289  23.830  0.00  0.00    +0.292 HD
ENDBRANCH   3   9
ENDBRANCH   1   4
BRANCH   1  11
ATOM     11  C   UNL     1      -8.692  -3.765  22.431  0.00  0.00    +0.120 C 
BRANCH  11  12
ATOM     12  N   UNL     1      -7.747  -4.821  22.480  0.00  0.00    -0.284 NA
ATOM     13  H   UNL     1      -7.277  -4.740  23.382  0.00  0.00    +0.124 HD
BRANCH  12  14
ATOM     14  C   UNL     1      -8.131  -6.207  22.349  0.00  0.00    +0.107 C 
ATOM     15  C   UNL     1      -7.381  -7.050  23.364  0.00  0.00    +0.161 C 
ATOM     16  O   UNL     1      -8.006  -7.264  24.595  0.00  0.00    -0.352 OA
ATOM     17  C   UNL     1      -7.835  -8.330  23.577  0.00  0.00    +0.148 C 
ATOM     18  C   UNL     1      -9.203  -8.721  23.040  0.00  0.00    +0.058 C 
ATOM     19  C   UNL     1     -10.083  -7.553  22.828  0.00  0.00    -0.027 C 
ATOM     20  C   UNL     1      -9.599  -6.369  22.504  0.00  0.00    -0.013 C 
ENDBRANCH  12  14
ENDBRANCH  11  12
ENDBRANCH   1  11
TORSDOF 5
