REMARK  Name = =
REMARK  6 active torsions:
REMARK  status: ('A' for Active; 'I' for Inactive)
REMARK    1  A    between atoms: N_1  and  C_2
REMARK    2  A    between atoms: N_1  and  C_14
REMARK    3  A    between atoms: C_7  and  C_9
REMARK    4  A    between atoms: C_10  and  C_11
REMARK    5  A    between atoms: S_13  and  C_16
REMARK    6  A    between atoms: C_15  and  O_21
REMARK                            x       y       z     vdW  Elec       q    Type
REMARK                         _______ _______ _______ _____ _____    ______ ____
ROOT
ATOM      1  N   UNL     1      -7.681  -3.778  21.789  0.00  0.00    -0.323 N 
ATOM      2  H   UNL     1      -8.475  -4.332  21.612  0.00  0.00    +0.148 HD
ENDROOT
BRANCH   1   3
ATOM      3  C   UNL     1      -7.841  -2.407  22.149  0.00  0.00    +0.122 C 
ATOM      4  C   UNL     1      -6.546  -1.628  21.908  0.00  0.00    +0.164 C 
ATOM      5  O   UNL     1      -6.013  -0.940  22.998  0.00  0.00    -0.351 OA
ATOM      6  C   UNL     1      -6.735  -0.175  22.078  0.00  0.00    +0.149 C 
ATOM      7  C   UNL     1      -8.179   0.195  22.443  0.00  0.00    +0.058 C 
ATOM      8  C   UNL     1      -9.044  -0.454  21.444  0.00  0.00    -0.022 C 
ATOM      9  C   UNL     1      -8.877  -1.781  21.289  0.00  0.00    -0.009 C 
BRANCH   8  10
ATOM     10  C   UNL     1     -10.041   0.183  20.624  0.00  0.00    -0.001 C 
ATOM     11  C   UNL     1     -10.166   1.496  20.625  0.00  0.00    +0.045 C 
BRANCH  11  12
ATOM     12  C   UNL     1     -11.162   2.181  19.811  0.00  0.00    +0.234 C 
ATOM     13  O   UNL     1     -11.834   1.555  18.960  0.00  0.00    -0.283 OA
ENDBRANCH  11  12
ENDBRANCH   8  10
ENDBRANCH   1   3
BRANCH   1  15
ATOM     14  S   UNL     1      -5.748  -4.767  20.219  0.00  0.00    -0.140 S 
ATOM     15  C   UNL     1      -6.386  -4.351  21.683  0.00  0.00    +0.082 C 
ATOM     16  H   UNL     1      -5.715  -3.638  19.462  0.00  0.00    +0.103 HD
BRANCH  14  18
ATOM     17  C   UNL     1      -2.982  -4.732  20.447  0.00  0.00    +0.142 C 
ATOM     18  C   UNL     1      -4.109  -5.484  20.166  0.00  0.00    +0.071 C 
ATOM     19  C   UNL     1      -3.966  -6.810  19.837  0.00  0.00    +0.107 C 
ATOM     20  N   UNL     1      -2.750  -7.347  19.796  0.00  0.00    -0.242 NA
ATOM     21  C   UNL     1      -1.641  -6.618  20.072  0.00  0.00    +0.102 C 
ATOM     22  C   UNL     1      -1.719  -5.287  20.405  0.00  0.00    +0.058 C 
BRANCH  17  23
ATOM     23  O   UNL     1      -3.130  -3.395  20.778  0.00  0.00    -0.505 OA
ATOM     24  H   UNL     1      -3.984  -3.012  20.808  0.00  0.00    +0.292 HD
ENDBRANCH  17  23
ENDBRANCH  14  18
ENDBRANCH   1  15
TORSDOF 6
