REMARK  Name = =
REMARK  7 active torsions:
REMARK  status: ('A' for Active; 'I' for Inactive)
REMARK    1  A    between atoms: C_1  and  O_21
REMARK    2  A    between atoms: C_2  and  S_7
REMARK    3  A    between atoms: C_8  and  N_9
REMARK    4  A    between atoms: N_9  and  C_10
REMARK    5  A    between atoms: C_15  and  C_17
REMARK    6  A    between atoms: C_18  and  C_19
REMARK    7  A    between atoms: O_21  and  C_22
REMARK                            x       y       z     vdW  Elec       q    Type
REMARK                         _______ _______ _______ _____ _____    ______ ____
ROOT
ATOM      1  C   UNL     1      -8.019   0.494  22.560  0.00  0.00    +0.153 C 
ATOM      2  C   UNL     1      -8.072  -0.843  22.162  0.00  0.00    +0.072 C 
ATOM      3  C   UNL     1      -8.422  -1.793  23.096  0.00  0.00    +0.107 C 
ATOM      4  N   UNL     1      -8.714  -1.482  24.371  0.00  0.00    -0.242 NA
ATOM      5  C   UNL     1      -8.673  -0.203  24.793  0.00  0.00    +0.102 C 
ATOM      6  C   UNL     1      -8.330   0.772  23.898  0.00  0.00    +0.059 C 
ENDROOT
BRANCH   2   7
ATOM      7  S   UNL     1      -7.694  -1.290  20.464  0.00  0.00    -0.140 S 
ATOM      8  C   UNL     1      -6.137  -1.260  19.983  0.00  0.00    +0.082 C 
ATOM      9  H   UNL     1      -8.380  -0.433  19.661  0.00  0.00    +0.103 HD
BRANCH   8  10
ATOM     10  N   UNL     1      -5.775  -1.610  18.629  0.00  0.00    -0.323 N 
ATOM     11  H   UNL     1      -6.479  -1.653  17.942  0.00  0.00    +0.148 HD
BRANCH  10  12
ATOM     12  C   UNL     1      -4.406  -1.900  18.254  0.00  0.00    +0.122 C 
ATOM     13  C   UNL     1      -3.862  -2.991  19.121  0.00  0.00    +0.164 C 
ATOM     14  O   UNL     1      -4.391  -3.620  20.148  0.00  0.00    -0.351 OA
ATOM     15  C   UNL     1      -4.158  -2.381  20.520  0.00  0.00    +0.149 C 
ATOM     16  C   UNL     1      -2.935  -1.605  20.761  0.00  0.00    +0.058 C 
ATOM     17  C   UNL     1      -2.839  -0.595  19.665  0.00  0.00    -0.022 C 
ATOM     18  C   UNL     1      -3.517  -0.744  18.525  0.00  0.00    -0.009 C 
BRANCH  17  19
ATOM     19  C   UNL     1      -1.978   0.556  19.880  0.00  0.00    -0.001 C 
ATOM     20  C   UNL     1      -1.312   0.710  21.004  0.00  0.00    +0.045 C 
BRANCH  20  21
ATOM     21  C   UNL     1      -0.444   1.864  21.233  0.00  0.00    +0.234 C 
ATOM     22  O   UNL     1      -0.341   2.707  20.313  0.00  0.00    -0.283 OA
ENDBRANCH  20  21
ENDBRANCH  17  19
ENDBRANCH  10  12
ENDBRANCH   8  10
ENDBRANCH   2   7
BRANCH   1  23
ATOM     23  O   UNL     1      -7.677   1.420  21.648  0.00  0.00    -0.453 OA
BRANCH  23  24
ATOM     24  C   UNL     1      -8.400   1.749  20.530  0.00  0.00    +0.147 C 
ATOM     25  C   UNL     1      -9.769   1.872  20.450  0.00  0.00    +0.036 C 
ATOM     26  C   UNL     1     -10.405   2.213  19.250  0.00  0.00    +0.022 C 
ATOM     27  C   UNL     1      -9.663   2.436  18.106  0.00  0.00    +0.099 C 
ATOM     28  N   UNL     1     -10.245   2.764  16.940  0.00  0.00    -0.241 NA
ATOM     29  C   UNL     1      -9.547   2.988  15.812  0.00  0.00    +0.119 C 
ATOM     30  C   UNL     1      -8.176   2.864  15.903  0.00  0.00    +0.119 C 
ATOM     31  N   UNL     1      -7.567   2.539  17.050  0.00  0.00    -0.241 NA
ATOM     32  C   UNL     1      -8.294   2.319  18.170  0.00  0.00    +0.102 C 
ATOM     33  C   UNL     1      -7.681   1.988  19.338  0.00  0.00    +0.058 C 
ATOM     34  C   UNL     1     -11.772   2.343  19.175  0.00  0.00    +0.002 C 
ATOM     35  C   UNL     1     -12.560   2.139  20.300  0.00  0.00    +0.000 C 
ATOM     36  C   UNL     1     -11.929   1.806  21.473  0.00  0.00    +0.000 C 
ATOM     37  C   UNL     1     -10.543   1.669  21.568  0.00  0.00    +0.003 C 
ENDBRANCH  23  24
ENDBRANCH   1  23
TORSDOF 7
