REMARK  Name = =
REMARK  10 active torsions:
REMARK  status: ('A' for Active; 'I' for Inactive)
REMARK    1  A    between atoms: S_1  and  C_2
REMARK    2  A    between atoms: S_1  and  C_4
REMARK    3  A    between atoms: C_2  and  C_24
REMARK    4  A    between atoms: C_2  and  N_31
REMARK    5  A    between atoms: C_3  and  O_9
REMARK    6  A    between atoms: O_9  and  C_10
REMARK    7  A    between atoms: C_27  and  O_30
REMARK    8  A    between atoms: N_31  and  C_32
REMARK    9  A    between atoms: C_37  and  C_39
REMARK   10  A    between atoms: C_40  and  C_41
REMARK                            x       y       z     vdW  Elec       q    Type
REMARK                         _______ _______ _______ _____ _____    ______ ____
ROOT
ATOM      1  S   UNL     1      -5.726   1.332  17.788  0.00  0.00    -0.160 S 
ATOM      2  H   UNL     1      -5.559   1.082  16.462  0.00  0.00    +0.099 HD
ENDROOT
BRANCH   1   4
ATOM      3  C   UNL     1      -3.702   0.041  19.135  0.00  0.00    +0.153 C 
ATOM      4  C   UNL     1      -4.078   1.276  18.556  0.00  0.00    +0.068 C 
ATOM      5  C   UNL     1      -3.285   2.393  18.556  0.00  0.00    +0.107 C 
ATOM      6  N   UNL     1      -2.082   2.320  19.138  0.00  0.00    -0.242 NA
ATOM      7  C   UNL     1      -1.661   1.180  19.706  0.00  0.00    +0.102 C 
ATOM      8  C   UNL     1      -2.453   0.023  19.718  0.00  0.00    +0.059 C 
BRANCH   3   9
ATOM      9  O   UNL     1      -4.570  -0.962  19.068  0.00  0.00    -0.453 OA
BRANCH   9  10
ATOM     10  C   UNL     1      -4.592  -2.288  19.183  0.00  0.00    +0.147 C 
ATOM     11  C   UNL     1      -5.880  -2.900  19.096  0.00  0.00    +0.036 C 
ATOM     12  C   UNL     1      -5.982  -4.267  19.200  0.00  0.00    +0.022 C 
ATOM     13  C   UNL     1      -4.894  -5.063  19.383  0.00  0.00    +0.099 C 
ATOM     14  N   UNL     1      -5.018  -6.392  19.480  0.00  0.00    -0.241 NA
ATOM     15  C   UNL     1      -3.971  -7.208  19.660  0.00  0.00    +0.119 C 
ATOM     16  C   UNL     1      -2.711  -6.664  19.749  0.00  0.00    +0.119 C 
ATOM     17  N   UNL     1      -2.573  -5.320  19.652  0.00  0.00    -0.241 NA
ATOM     18  C   UNL     1      -3.651  -4.523  19.471  0.00  0.00    +0.102 C 
ATOM     19  C   UNL     1      -3.517  -3.142  19.370  0.00  0.00    +0.058 C 
ATOM     20  C   UNL     1      -7.210  -4.903  19.119  0.00  0.00    +0.002 C 
ATOM     21  C   UNL     1      -8.335  -4.143  18.931  0.00  0.00    +0.000 C 
ATOM     22  C   UNL     1      -8.225  -2.766  18.826  0.00  0.00    +0.000 C 
ATOM     23  C   UNL     1      -7.010  -2.141  18.907  0.00  0.00    +0.003 C 
ENDBRANCH   9  10
ENDBRANCH   3   9
ENDBRANCH   1   4
BRANCH   1  24
ATOM     24  C   UNL     1      -6.595   2.701  17.913  0.00  0.00    +0.118 C 
BRANCH  24  25
ATOM     25  C   UNL     1      -6.037   3.832  18.620  0.00  0.00    +0.002 C 
ATOM     26  C   UNL     1      -6.076   5.143  18.155  0.00  0.00    +0.001 C 
ATOM     27  C   UNL     1      -5.524   6.175  18.880  0.00  0.00    +0.036 C 
ATOM     28  C   UNL     1      -4.911   5.968  20.090  0.00  0.00    +0.134 C 
ATOM     29  C   UNL     1      -4.865   4.657  20.569  0.00  0.00    +0.036 C 
ATOM     30  C   UNL     1      -5.423   3.630  19.832  0.00  0.00    +0.001 C 
BRANCH  28  31
ATOM     31  O   UNL     1      -4.347   7.001  20.838  0.00  0.00    -0.506 OA
ATOM     32  H   UNL     1      -4.377   7.881  20.518  0.00  0.00    +0.292 HD
ENDBRANCH  28  31
ENDBRANCH  24  25
BRANCH  24  33
ATOM     33  N   UNL     1      -7.905   2.761  17.311  0.00  0.00    -0.283 NA
ATOM     34  H   UNL     1      -8.384   1.905  17.590  0.00  0.00    +0.125 HD
BRANCH  33  35
ATOM     35  C   UNL     1      -8.819   3.828  17.566  0.00  0.00    +0.107 C 
ATOM     36  C   UNL     1      -9.881   3.821  16.450  0.00  0.00    +0.161 C 
ATOM     37  O   UNL     1      -9.944   2.531  15.723  0.00  0.00    -0.352 OA
ATOM     38  C   UNL     1     -10.925   2.950  16.624  0.00  0.00    +0.148 C 
ATOM     39  C   UNL     1     -11.050   2.126  17.913  0.00  0.00    +0.058 C 
ATOM     40  C   UNL     1     -10.626   2.936  19.060  0.00  0.00    -0.022 C 
ATOM     41  C   UNL     1      -9.552   3.731  18.831  0.00  0.00    -0.012 C 
BRANCH  40  42
ATOM     42  C   UNL     1     -11.254   2.951  20.344  0.00  0.00    -0.001 C 
ATOM     43  C   UNL     1     -12.203   2.311  20.882  0.00  0.00    +0.045 C 
BRANCH  43  44
ATOM     44  C   UNL     1     -13.129   1.278  20.562  0.00  0.00    +0.234 C 
ATOM     45  O   UNL     1     -13.323   0.585  19.566  0.00  0.00    -0.283 OA
ENDBRANCH  43  44
ENDBRANCH  40  42
ENDBRANCH  33  35
ENDBRANCH  24  33
ENDBRANCH   1  24
TORSDOF 10
