MODEL 1
REMARK VINA RESULT:    -8.892      0.000      0.000
REMARK INTER + INTRA:         -11.452
REMARK INTER:                 -11.751
REMARK INTRA:                   0.300
REMARK UNBOUND:                 0.300
REMARK  Name = =
REMARK  7 active torsions:
REMARK  status: ('A' for Active; 'I' for Inactive)
REMARK    1  A    between atoms: C_1  and  C_20
REMARK    2  A    between atoms: C_9  and  O_21
REMARK    3  A    between atoms: O_21  and  S_22
REMARK    4  A    between atoms: S_22  and  P_23
REMARK    5  A    between atoms: P_23  and  O_24
REMARK    6  A    between atoms: P_23  and  O_25
REMARK    7  A    between atoms: P_23  and  O_26
REMARK                            x       y       z     vdW  Elec       q    Type
REMARK                         _______ _______ _______ _____ _____    ______ ____
ROOT
ATOM      1  C   UNL     1      51.098 156.713  29.247  0.00  0.00    +0.044 C 
ATOM      2  C   UNL     1      51.490 155.669  30.298  0.00  0.00    +0.009 C 
ATOM      3  C   UNL     1      51.093 154.298  29.828  0.00  0.00    +0.005 C 
ATOM      4  C   UNL     1      50.930 154.229  28.325  0.00  0.00    +0.026 C 
ATOM      5  C   UNL     1      51.881 155.114  27.601  0.00  0.00    -0.023 C 
ATOM      6  C   UNL     1      51.983 156.421  28.075  0.00  0.00    -0.022 C 
ATOM      7  C   UNL     1      52.822 157.356  27.515  0.00  0.00    -0.001 C 
ATOM      8  C   UNL     1      53.578 156.929  26.429  0.00  0.00    +0.038 C 
ATOM      9  C   UNL     1      53.481 155.622  25.949  0.00  0.00    +0.154 C 
ATOM     10  C   UNL     1      52.633 154.728  26.542  0.00  0.00    +0.034 C 
ENDROOT
BRANCH   1  20
ATOM     11  C   UNL     1      47.844 160.118  31.158  0.00  0.00    -0.000 C 
ATOM     12  C   UNL     1      47.771 158.832  30.671  0.00  0.00    -0.000 C 
ATOM     13  C   UNL     1      48.846 158.120  30.199  0.00  0.00    -0.000 C 
ATOM     14  C   UNL     1      50.101 158.735  30.214  0.00  0.00    -0.004 C 
ATOM     15  C   UNL     1      50.220 160.039  30.702  0.00  0.00    -0.000 C 
ATOM     16  C   UNL     1      49.114 160.711  31.163  0.00  0.00    -0.000 C 
ATOM     17  C   UNL     1      51.472 160.654  30.719  0.00  0.00    -0.000 C 
ATOM     18  C   UNL     1      52.587 159.990  30.264  0.00  0.00    -0.000 C 
ATOM     19  C   UNL     1      52.433 158.692  29.785  0.00  0.00    -0.004 C 
ATOM     20  C   UNL     1      51.214 158.069  29.757  0.00  0.00    -0.018 C 
ENDBRANCH   1  20
BRANCH   9  21
ATOM     21  O   UNL     1      54.231 155.187  24.871  0.00  0.00    -0.428 OA
BRANCH  21  22
ATOM     22  S   UNL     1      54.022 153.595  24.281  0.00  0.00    +0.054 S 
ATOM     23  H   UNL     1      54.478 153.535  23.002  0.00  0.00    +0.145 HD
BRANCH  22  24
ATOM     24  P   UNL     1      54.971 152.327  25.335  0.00  0.00    +0.313 P 
BRANCH  24  25
ATOM     25  O   UNL     1      56.625 152.665  25.375  0.00  0.00    -0.326 OA
ATOM     26  H   UNL     1      57.074 152.165  24.676  0.00  0.00    +0.219 HD
ENDBRANCH  24  25
BRANCH  24  27
ATOM     27  O   UNL     1      54.378 152.391  26.917  0.00  0.00    -0.326 OA
ATOM     28  H   UNL     1      53.485 152.016  26.944  0.00  0.00    +0.219 HD
ENDBRANCH  24  27
BRANCH  24  29
ATOM     29  O   UNL     1      54.683 150.745  24.769  0.00  0.00    -0.326 OA
ATOM     30  H   UNL     1      55.315 150.135  25.179  0.00  0.00    +0.219 HD
ENDBRANCH  24  29
ENDBRANCH  22  24
ENDBRANCH  21  22
ENDBRANCH   9  21
TORSDOF 7
ENDMDL
