REMARK  Name = =
REMARK  7 active torsions:
REMARK  status: ('A' for Active; 'I' for Inactive)
REMARK    1  A    between atoms: C_1  and  C_20
REMARK    2  A    between atoms: C_9  and  O_21
REMARK    3  A    between atoms: O_21  and  S_22
REMARK    4  A    between atoms: S_22  and  P_23
REMARK    5  A    between atoms: P_23  and  O_24
REMARK    6  A    between atoms: P_23  and  O_25
REMARK    7  A    between atoms: P_23  and  O_26
REMARK                            x       y       z     vdW  Elec       q    Type
REMARK                         _______ _______ _______ _____ _____    ______ ____
ROOT
ATOM      1  C   UNL     1      52.711 162.101  30.869  0.00  0.00    +0.044 C 
ATOM      2  C   UNL     1      53.231 162.167  29.429  0.00  0.00    +0.009 C 
ATOM      3  C   UNL     1      53.969 163.458  29.212  0.00  0.00    +0.005 C 
ATOM      4  C   UNL     1      54.460 164.066  30.508  0.00  0.00    +0.026 C 
ATOM      5  C   UNL     1      54.850 163.042  31.513  0.00  0.00    -0.023 C 
ATOM      6  C   UNL     1      53.944 162.002  31.712  0.00  0.00    -0.022 C 
ATOM      7  C   UNL     1      54.165 160.978  32.604  0.00  0.00    -0.001 C 
ATOM      8  C   UNL     1      55.360 161.031  33.314  0.00  0.00    +0.038 C 
ATOM      9  C   UNL     1      56.272 162.069  33.120  0.00  0.00    +0.154 C 
ATOM     10  C   UNL     1      56.007 163.064  32.220  0.00  0.00    +0.034 C 
ENDROOT
BRANCH   1  20
ATOM     11  C   UNL     1      48.670 161.323  33.852  0.00  0.00    -0.000 C 
ATOM     12  C   UNL     1      49.577 162.339  33.645  0.00  0.00    -0.000 C 
ATOM     13  C   UNL     1      50.610 162.282  32.743  0.00  0.00    -0.000 C 
ATOM     14  C   UNL     1      50.756 161.121  31.980  0.00  0.00    -0.004 C 
ATOM     15  C   UNL     1      49.856 160.066  32.158  0.00  0.00    -0.000 C 
ATOM     16  C   UNL     1      48.838 160.170  33.074  0.00  0.00    -0.000 C 
ATOM     17  C   UNL     1      49.999 158.906  31.396  0.00  0.00    -0.000 C 
ATOM     18  C   UNL     1      51.012 158.792  30.473  0.00  0.00    -0.000 C 
ATOM     19  C   UNL     1      51.890 159.862  30.321  0.00  0.00    -0.004 C 
ATOM     20  C   UNL     1      51.770 161.009  31.059  0.00  0.00    -0.018 C 
ENDBRANCH   1  20
BRANCH   9  21
ATOM     21  O   UNL     1      57.463 162.129  33.820  0.00  0.00    -0.428 OA
BRANCH  21  22
ATOM     22  S   UNL     1      58.071 163.645  34.328  0.00  0.00    +0.054 S 
ATOM     23  H   UNL     1      57.073 164.339  34.937  0.00  0.00    +0.145 HD
BRANCH  22  24
ATOM     24  P   UNL     1      59.518 163.447  35.547  0.00  0.00    +0.313 P 
BRANCH  24  25
ATOM     25  O   UNL     1      59.807 161.824  35.912  0.00  0.00    -0.326 OA
ATOM     26  H   UNL     1      59.017 161.439  36.322  0.00  0.00    +0.219 HD
ENDBRANCH  24  25
BRANCH  24  27
ATOM     27  O   UNL     1      60.912 164.087  34.836  0.00  0.00    -0.326 OA
ATOM     28  H   UNL     1      61.113 163.600  34.022  0.00  0.00    +0.219 HD
ENDBRANCH  24  27
BRANCH  24  29
ATOM     29  O   UNL     1      59.233 164.351  36.964  0.00  0.00    -0.326 OA
ATOM     30  H   UNL     1      58.438 164.016  37.407  0.00  0.00    +0.219 HD
ENDBRANCH  24  29
ENDBRANCH  22  24
ENDBRANCH  21  22
ENDBRANCH   9  21
TORSDOF 7
