REMARK  Name = =
REMARK  1 active torsions:
REMARK  status: ('A' for Active; 'I' for Inactive)
REMARK    1  A    between atoms: N_1  and  N_16
REMARK                            x       y       z     vdW  Elec       q    Type
REMARK                         _______ _______ _______ _____ _____    ______ ____
ROOT
ATOM      1  N   UNL     1     -11.671 -43.303  29.283  0.00  0.00    -0.165 N 
ATOM      2  C   UNL     1     -13.019 -43.337  28.865  0.00  0.00    +0.326 C 
ATOM      3  O   UNL     1     -13.868 -43.669  29.819  0.00  0.00    -0.251 OA
ATOM      4  N   UNL     1     -13.603 -43.087  27.639  0.00  0.00    -0.258 N 
ATOM      5  C   UNL     1     -12.922 -42.856  26.416  0.00  0.00    +0.127 C 
ATOM      6  C   UNL     1     -13.576 -41.890  25.457  0.00  0.00    +0.164 C 
ATOM      7  O   UNL     1     -14.944 -41.897  25.465  0.00  0.00    -0.350 OA
ATOM      8  C   UNL     1     -15.522 -42.939  26.158  0.00  0.00    +0.164 C 
ATOM      9  C   UNL     1     -15.072 -43.008  27.591  0.00  0.00    +0.127 C 
ATOM     10  C   UNL     1     -10.634 -42.655  28.571  0.00  0.00    +0.172 C 
ATOM     11  N   UNL     1      -9.605 -43.245  27.947  0.00  0.00    -0.224 NA
ATOM     12  C   UNL     1      -8.619 -42.589  27.301  0.00  0.00    +0.121 C 
ATOM     13  C   UNL     1      -8.679 -41.206  27.285  0.00  0.00    +0.120 C 
ATOM     14  N   UNL     1      -9.682 -40.550  27.888  0.00  0.00    -0.238 NA
ATOM     15  C   UNL     1     -10.643 -41.245  28.520  0.00  0.00    +0.135 C 
ENDROOT
BRANCH   1  16
ATOM     16  N   UNL     1     -11.403 -43.999  30.480  0.00  0.00    -0.193 NA
ATOM     17  C   UNL     1     -10.773 -45.242  30.190  0.00  0.00    +0.111 C 
ATOM     18  C   UNL     1     -10.118 -45.942  31.340  0.00  0.00    +0.108 C 
ATOM     19  N   UNL     1      -9.337 -45.071  32.184  0.00  0.00    -0.215 NA
ATOM     20  C   UNL     1      -9.268 -43.724  31.577  0.00  0.00    +0.108 C 
ATOM     21  C   UNL     1     -10.715 -43.285  31.478  0.00  0.00    +0.111 C 
ENDBRANCH   1  16
TORSDOF 1
