REMARK  Name = =
REMARK  2 active torsions:
REMARK  status: ('A' for Active; 'I' for Inactive)
REMARK    1  A    between atoms: N_1  and  N_21
REMARK    2  A    between atoms: C_12  and  C_16
REMARK                            x       y       z     vdW  Elec       q    Type
REMARK                         _______ _______ _______ _____ _____    ______ ____
ROOT
ATOM      1  N   UNL     1     -12.080 -43.287  28.960  0.00  0.00    -0.165 N 
ATOM      2  C   UNL     1     -11.424 -42.497  28.000  0.00  0.00    +0.326 C 
ATOM      3  O   UNL     1     -12.145 -42.037  26.999  0.00  0.00    -0.251 OA
ATOM      4  N   UNL     1     -10.089 -42.104  27.926  0.00  0.00    -0.258 N 
ATOM      5  C   UNL     1      -9.642 -41.253  26.841  0.00  0.00    +0.127 C 
ATOM      6  C   UNL     1      -8.453 -41.939  26.200  0.00  0.00    +0.164 C 
ATOM      7  O   UNL     1      -7.465 -42.232  27.107  0.00  0.00    -0.350 OA
ATOM      8  C   UNL     1      -7.768 -41.852  28.390  0.00  0.00    +0.164 C 
ATOM      9  C   UNL     1      -9.091 -42.502  28.868  0.00  0.00    +0.127 C 
ATOM     10  C   UNL     1     -11.470 -43.798  30.102  0.00  0.00    +0.171 C 
ATOM     11  N   UNL     1     -11.348 -43.109  31.259  0.00  0.00    -0.228 NA
ATOM     12  C   UNL     1     -10.776 -43.606  32.361  0.00  0.00    +0.109 C 
ATOM     13  C   UNL     1     -10.292 -44.899  32.286  0.00  0.00    +0.116 C 
ATOM     14  N   UNL     1     -10.391 -45.627  31.155  0.00  0.00    -0.238 NA
ATOM     15  C   UNL     1     -10.969 -45.100  30.068  0.00  0.00    +0.135 C 
ENDROOT
BRANCH  12  16
ATOM     16  C   UNL     1     -10.645 -42.847  33.621  0.00  0.00    +0.155 C 
ATOM     17  N   UNL     1     -10.832 -41.405  33.427  0.00  0.00    -0.280 NA
ATOM     18  C   UNL     1     -10.387 -40.930  34.746  0.00  0.00    +0.087 C 
ATOM     19  C   UNL     1      -9.261 -41.881  35.133  0.00  0.00    +0.087 C 
ATOM     20  N   UNL     1      -9.284 -42.883  34.083  0.00  0.00    -0.280 NA
ATOM     21  H   UNL     1     -11.807 -41.168  33.245  0.00  0.00    +0.125 HD
ATOM     22  H   UNL     1      -8.637 -42.641  33.333  0.00  0.00    +0.125 HD
ENDBRANCH  12  16
BRANCH   1  23
ATOM     23  N   UNL     1     -13.438 -43.578  28.741  0.00  0.00    -0.193 NA
ATOM     24  C   UNL     1     -14.332 -42.806  29.542  0.00  0.00    +0.111 C 
ATOM     25  C   UNL     1     -15.736 -43.384  29.314  0.00  0.00    +0.108 C 
ATOM     26  N   UNL     1     -16.111 -43.221  27.947  0.00  0.00    -0.215 NA
ATOM     27  C   UNL     1     -15.059 -42.805  27.074  0.00  0.00    +0.108 C 
ATOM     28  C   UNL     1     -13.763 -43.544  27.329  0.00  0.00    +0.111 C 
ENDBRANCH   1  23
TORSDOF 2
