REMARK  Name = =
REMARK  3 active torsions:
REMARK  status: ('A' for Active; 'I' for Inactive)
REMARK    1  A    between atoms: N_1  and  N_35
REMARK    2  A    between atoms: C_12  and  C_16
REMARK    3  A    between atoms: C_16  and  C_21
REMARK                            x       y       z     vdW  Elec       q    Type
REMARK                         _______ _______ _______ _____ _____    ______ ____
ROOT
ATOM      1  N   UNL     1      -9.883 -43.157  30.641  0.00  0.00    -0.165 N 
ATOM      2  C   UNL     1      -9.129 -43.057  31.849  0.00  0.00    +0.326 C 
ATOM      3  O   UNL     1      -9.845 -43.112  32.926  0.00  0.00    -0.251 OA
ATOM      4  N   UNL     1      -7.759 -42.914  32.015  0.00  0.00    -0.258 N 
ATOM      5  C   UNL     1      -7.202 -42.723  33.369  0.00  0.00    +0.127 C 
ATOM      6  C   UNL     1      -6.266 -43.861  33.645  0.00  0.00    +0.164 C 
ATOM      7  O   UNL     1      -6.159 -44.699  32.540  0.00  0.00    -0.350 OA
ATOM      8  C   UNL     1      -5.613 -43.912  31.496  0.00  0.00    +0.164 C 
ATOM      9  C   UNL     1      -6.732 -42.994  30.980  0.00  0.00    +0.127 C 
ATOM     10  C   UNL     1     -11.217 -43.624  30.800  0.00  0.00    +0.171 C 
ATOM     11  N   UNL     1     -12.260 -42.860  31.196  0.00  0.00    -0.227 NA
ATOM     12  C   UNL     1     -13.477 -43.377  31.386  0.00  0.00    +0.110 C 
ATOM     13  C   UNL     1     -13.620 -44.730  31.158  0.00  0.00    +0.117 C 
ATOM     14  N   UNL     1     -12.605 -45.498  30.766  0.00  0.00    -0.238 NA
ATOM     15  C   UNL     1     -11.385 -44.989  30.575  0.00  0.00    +0.135 C 
ENDROOT
BRANCH  12  16
ATOM     16  C   UNL     1     -14.663 -42.632  31.867  0.00  0.00    +0.144 C 
ATOM     17  N   UNL     1     -15.152 -43.132  33.108  0.00  0.00    -0.279 NA
ATOM     18  C   UNL     1     -15.710 -42.042  33.852  0.00  0.00    +0.087 C 
ATOM     19  C   UNL     1     -14.675 -40.962  33.554  0.00  0.00    +0.087 C 
ATOM     20  N   UNL     1     -14.090 -41.330  32.308  0.00  0.00    -0.279 NA
ATOM     21  H   UNL     1     -14.386 -43.551  33.635  0.00  0.00    +0.125 HD
ATOM     22  H   UNL     1     -14.293 -40.614  31.611  0.00  0.00    +0.125 HD
BRANCH  16  23
ATOM     23  C   UNL     1     -15.664 -42.287  30.864  0.00  0.00    +0.010 C 
ATOM     24  C   UNL     1     -15.453 -42.579  29.503  0.00  0.00    -0.001 C 
ATOM     25  C   UNL     1     -16.451 -42.333  28.584  0.00  0.00    -0.000 C 
ATOM     26  C   UNL     1     -17.681 -41.783  29.019  0.00  0.00    -0.000 C 
ATOM     27  C   UNL     1     -17.910 -41.488  30.334  0.00  0.00    -0.000 C 
ATOM     28  C   UNL     1     -16.900 -41.742  31.244  0.00  0.00    -0.001 C 
ATOM     29  C   UNL     1     -16.337 -42.645  27.147  0.00  0.00    -0.000 C 
ATOM     30  C   UNL     1     -15.047 -43.259  26.821  0.00  0.00    -0.000 C 
ATOM     31  C   UNL     1     -14.035 -43.450  27.709  0.00  0.00    -0.000 C 
ATOM     32  C   UNL     1     -14.137 -43.058  29.134  0.00  0.00    -0.000 C 
ATOM     33  C   UNL     1     -12.840 -44.047  27.280  0.00  0.00    -0.000 C 
ATOM     34  C   UNL     1     -12.710 -44.427  25.982  0.00  0.00    -0.000 C 
ATOM     35  C   UNL     1     -13.751 -44.230  25.075  0.00  0.00    +0.000 C 
ATOM     36  C   UNL     1     -14.912 -43.652  25.484  0.00  0.00    -0.000 C 
ENDBRANCH  16  23
ENDBRANCH  12  16
BRANCH   1  37
ATOM     37  N   UNL     1      -9.373 -42.784  29.441  0.00  0.00    -0.193 NA
ATOM     38  C   UNL     1      -9.510 -43.667  28.319  0.00  0.00    +0.111 C 
ATOM     39  C   UNL     1      -8.415 -43.268  27.338  0.00  0.00    +0.108 C 
ATOM     40  N   UNL     1      -8.770 -41.966  26.816  0.00  0.00    -0.215 NA
ATOM     41  C   UNL     1      -8.689 -41.015  27.908  0.00  0.00    +0.108 C 
ATOM     42  C   UNL     1      -9.617 -41.404  29.042  0.00  0.00    +0.111 C 
ENDBRANCH   1  37
TORSDOF 3
