REMARK  Name = =
REMARK  2 active torsions:
REMARK  status: ('A' for Active; 'I' for Inactive)
REMARK    1  A    between atoms: C_2  and  S_6
REMARK    2  A    between atoms: S_6  and  C_7
REMARK                            x       y       z     vdW  Elec       q    Type
REMARK                         _______ _______ _______ _____ _____    ______ ____
ROOT
ATOM      1  O   UNL     1     -12.184 -42.361  29.296  0.00  0.00    -0.319 OA
ATOM      2  C   UNL     1     -11.764 -42.593  27.964  0.00  0.00    +0.195 C 
ATOM      3  C   UNL     1     -10.784 -43.642  28.380  0.00  0.00    +0.106 C 
ATOM      4  C   UNL     1     -11.038 -43.051  29.727  0.00  0.00    +0.255 C 
ATOM      5  O   UNL     1     -10.511 -43.079  30.871  0.00  0.00    -0.192 OA
ENDROOT
BRANCH   2   6
ATOM      6  S   UNL     1     -13.148 -43.167  26.960  0.00  0.00    -0.038 S 
BRANCH   6   7
ATOM      7  C   UNL     1     -14.260 -41.805  26.559  0.00  0.00    +0.268 C 
ATOM      8  O   UNL     1     -14.668 -41.782  25.413  0.00  0.00    -0.276 OA
ENDBRANCH   6   7
ENDBRANCH   2   6
TORSDOF 2
