MODEL 1
REMARK VINA RESULT:   -10.493      0.000      0.000
REMARK INTER + INTRA:         -12.977
REMARK INTER:                 -13.560
REMARK INTRA:                   0.582
REMARK UNBOUND:                 0.582
REMARK  Name = =
REMARK  5 active torsions:
REMARK  status: ('A' for Active; 'I' for Inactive)
REMARK    1  A    between atoms: N_3  and  N_4
REMARK    2  A    between atoms: N_3  and  N_19
REMARK    3  A    between atoms: N_4  and  C_7
REMARK    4  A    between atoms: N_19  and  C_20
REMARK    5  A    between atoms: C_23  and  C_26
REMARK                            x       y       z     vdW  Elec       q    Type
REMARK                         _______ _______ _______ _____ _____    ______ ____
ROOT
ATOM      1  C   UNL     1      53.193 156.597  27.006  0.00  0.00    +0.338 C 
ATOM      2  O   UNL     1      53.556 156.528  25.812  0.00  0.00    -0.262 OA
ATOM      3  N   UNL     1      52.176 155.765  27.516  0.00  0.00    -0.118 N 
ENDROOT
BRANCH   3   4
ATOM      4  N   UNL     1      51.746 155.819  28.838  0.00  0.00    -0.156 N 
ATOM      5  C   UNL     1      51.717 154.678  29.687  0.00  0.00    +0.326 C 
ATOM      6  O   UNL     1      51.325 154.748  30.878  0.00  0.00    -0.263 OA
BRANCH   4   7
ATOM      7  C   UNL     1      51.314 157.055  29.363  0.00  0.00    +0.117 C 
ATOM      8  C   UNL     1      52.192 158.016  29.513  0.00  0.00    +0.062 C 
ATOM      9  C   UNL     1      51.770 159.307  30.055  0.00  0.00    +0.197 C 
ATOM     10  O   UNL     1      52.632 160.204  30.186  0.00  0.00    -0.287 OA
ATOM     11  C   UNL     1      50.372 159.490  30.417  0.00  0.00    +0.042 C 
ATOM     12  C   UNL     1      49.437 158.487  30.264  0.00  0.00    +0.043 C 
ATOM     13  C   UNL     1      48.114 158.667  30.609  0.00  0.00    +0.003 C 
ATOM     14  C   UNL     1      47.679 159.881  31.126  0.00  0.00    +0.000 C 
ATOM     15  C   UNL     1      48.617 160.869  31.272  0.00  0.00    +0.000 C 
ATOM     16  C   UNL     1      49.956 160.684  30.923  0.00  0.00    +0.003 C 
ATOM     17  C   UNL     1      49.890 157.213  29.722  0.00  0.00    +0.211 C 
ATOM     18  O   UNL     1      49.079 156.263  29.561  0.00  0.00    -0.285 OA
ENDBRANCH   4   7
ENDBRANCH   3   4
BRANCH   3  19
ATOM     19  N   UNL     1      51.565 154.846  26.669  0.00  0.00    -0.243 N 
ATOM     20  H   UNL     1      50.668 155.063  26.325  0.00  0.00    +0.172 HD
BRANCH  19  21
ATOM     21  C   UNL     1      52.154 153.609  26.265  0.00  0.00    +0.063 C 
ATOM     22  C   UNL     1      51.851 152.443  26.937  0.00  0.00    +0.016 C 
ATOM     23  C   UNL     1      52.394 151.218  26.585  0.00  0.00    +0.006 C 
ATOM     24  C   UNL     1      53.274 151.128  25.528  0.00  0.00    +0.053 C 
ATOM     25  C   UNL     1      53.581 152.287  24.851  0.00  0.00    +0.006 C 
ATOM     26  C   UNL     1      53.031 153.525  25.208  0.00  0.00    +0.016 C 
BRANCH  24  27
ATOM     27  C   UNL     1      53.879 149.855  25.116  0.00  0.00    +0.243 C 
ATOM     28  O   UNL     1      55.056 149.814  24.723  0.00  0.00    -0.270 OA
ATOM     29  N   UNL     1      53.144 148.640  25.154  0.00  0.00    -0.325 N 
ATOM     30  H   UNL     1      52.209 148.640  25.461  0.00  0.00    +0.145 HD
ATOM     31  H   UNL     1      53.571 147.798  24.874  0.00  0.00    +0.145 HD
ENDBRANCH  24  27
ENDBRANCH  19  21
ENDBRANCH   3  19
TORSDOF 5
ENDMDL
