MODEL 1
REMARK VINA RESULT:    -8.058      0.000      0.000
REMARK INTER + INTRA:         -12.417
REMARK INTER:                 -10.884
REMARK INTRA:                  -1.533
REMARK UNBOUND:                -1.533
REMARK  Name = =
REMARK  7 active torsions:
REMARK  status: ('A' for Active; 'I' for Inactive)
REMARK    1  A    between atoms: N_1  and  N_20
REMARK    2  A    between atoms: C_12  and  O_39
REMARK    3  A    between atoms: C_19  and  S_40
REMARK    4  A    between atoms: C_30  and  C_33
REMARK    5  A    between atoms: S_40  and  C_41
REMARK    6  A    between atoms: C_41  and  N_43
REMARK    7  A    between atoms: N_43  and  O_44
REMARK                            x       y       z     vdW  Elec       q    Type
REMARK                         _______ _______ _______ _____ _____    ______ ____
ROOT
ATOM      1  N   UNL     1      62.110 164.965  37.176  0.00  0.00    -0.241 N 
ATOM      2  C   UNL     1      62.014 165.004  35.741  0.00  0.00    +0.095 C 
ATOM      3  C   UNL     1      61.036 166.035  35.338  0.00  0.00    +0.028 C 
ATOM      4  C   UNL     1      61.347 167.306  35.991  0.00  0.00    +0.069 C 
ATOM      5  C   UNL     1      60.455 168.473  35.596  0.00  0.00    +0.226 C 
ATOM      6  O   UNL     1      61.444 169.545  35.739  0.00  0.00    -0.469 OA
ATOM      7  C   UNL     1      62.679 169.035  35.257  0.00  0.00    +0.168 C 
ATOM      8  C   UNL     1      62.656 167.699  35.358  0.00  0.00    +0.014 C 
ATOM      9  C   UNL     1      63.605 166.796  35.007  0.00  0.00    -0.021 C 
ATOM     10  C   UNL     1      64.760 167.330  34.477  0.00  0.00    -0.001 C 
ATOM     11  C   UNL     1      64.871 168.722  34.341  0.00  0.00    +0.039 C 
ATOM     12  C   UNL     1      63.835 169.575  34.728  0.00  0.00    +0.167 C 
ATOM     13  C   UNL     1      63.382 165.343  35.120  0.00  0.00    +0.047 C 
ATOM     14  C   UNL     1      60.131 168.275  34.146  0.00  0.00    +0.191 C 
ATOM     15  O   UNL     1      60.389 169.194  33.393  0.00  0.00    -0.292 OA
ATOM     16  C   UNL     1      59.524 167.005  33.699  0.00  0.00    +0.068 C 
ATOM     17  C   UNL     1      59.870 165.802  34.560  0.00  0.00    +0.010 C 
ATOM     18  C   UNL     1      61.521 167.224  37.482  0.00  0.00    +0.041 C 
ATOM     19  C   UNL     1      62.586 166.169  37.775  0.00  0.00    +0.143 C 
ENDROOT
BRANCH   1  20
ATOM     20  N   UNL     1      62.348 163.788  37.779  0.00  0.00    -0.262 N 
ATOM     21  C   UNL     1      61.347 162.933  38.176  0.00  0.00    +0.078 A 
ATOM     22  C   UNL     1      61.937 161.836  38.762  0.00  0.00    +0.014 A 
ATOM     23  C   UNL     1      63.301 162.029  38.721  0.00  0.00    -0.005 A 
ATOM     24  C   UNL     1      63.516 163.250  38.105  0.00  0.00    +0.068 A 
ATOM     25  C   UNL     1      64.934 163.655  37.964  0.00  0.00    +0.115 C 
ATOM     26  N   UNL     1      65.595 163.444  39.213  0.00  0.00    -0.292 NA
ATOM     27  C   UNL     1      65.597 162.101  39.689  0.00  0.00    +0.074 C 
ATOM     28  C   UNL     1      64.472 161.260  39.160  0.00  0.00    +0.045 C 
ATOM     29  C   UNL     1      61.145 160.797  39.264  0.00  0.00    -0.001 C 
ATOM     30  C   UNL     1      59.770 160.840  39.190  0.00  0.00    +0.005 C 
ATOM     31  C   UNL     1      59.206 161.949  38.597  0.00  0.00    -0.000 C 
ATOM     32  C   UNL     1      59.969 162.982  38.097  0.00  0.00    +0.019 C 
ATOM     33  H   UNL     1      65.135 164.025  39.914  0.00  0.00    +0.124 HD
BRANCH  30  34
ATOM     34  C   UNL     1      58.959 159.709  39.739  0.00  0.00    +0.142 C 
ATOM     35  O   UNL     1      59.803 158.786  40.283  0.00  0.00    -0.347 OA
ATOM     36  C   UNL     1      59.677 158.523  41.617  0.00  0.00    +0.168 C 
ATOM     37  C   UNL     1      58.281 158.440  42.113  0.00  0.00    +0.001 C 
ATOM     38  C   UNL     1      57.419 159.338  41.655  0.00  0.00    -0.025 C 
ATOM     39  C   UNL     1      57.969 160.328  40.688  0.00  0.00    +0.060 C 
ENDBRANCH  30  34
ENDBRANCH   1  20
BRANCH  12  40
ATOM     40  O   UNL     1      63.934 170.962  34.595  0.00  0.00    -0.503 OA
ATOM     41  H   UNL     1      63.521 171.393  33.873  0.00  0.00    +0.292 HD
ENDBRANCH  12  40
BRANCH  19  42
ATOM     42  S   UNL     1      62.728 165.898  39.565  0.00  0.00    -0.070 S 
BRANCH  42  43
ATOM     43  C   UNL     1      61.257 166.439  40.411  0.00  0.00    +0.131 C 
ATOM     44  S   UNL     1      61.223 167.895  41.194  0.00  0.00    -0.026 S 
BRANCH  43  45
ATOM     45  N   UNL     1      60.071 165.662  40.455  0.00  0.00    -0.215 N 
ATOM     46  H   UNL     1      60.025 164.875  41.045  0.00  0.00    +0.180 HD
BRANCH  45  47
ATOM     47  O   UNL     1      58.992 165.996  39.685  0.00  0.00    -0.297 OA
ATOM     48  H   UNL     1      59.290 166.508  38.917  0.00  0.00    +0.241 HD
ENDBRANCH  45  47
ENDBRANCH  43  45
ENDBRANCH  42  43
ENDBRANCH  19  42
TORSDOF 7
ENDMDL
