MODEL 1
REMARK VINA RESULT:    -7.305      0.000      0.000
REMARK INTER + INTRA:         -10.755
REMARK INTER:                  -9.867
REMARK INTRA:                  -0.887
REMARK UNBOUND:                -0.887
REMARK  Name = =
REMARK  7 active torsions:
REMARK  status: ('A' for Active; 'I' for Inactive)
REMARK    1  A    between atoms: C_1  and  N_26
REMARK    2  A    between atoms: C_14  and  O_34
REMARK    3  A    between atoms: N_26  and  S_27
REMARK    4  A    between atoms: S_27  and  N_30
REMARK    5  A    between atoms: C_31  and  O_33
REMARK    6  A    between atoms: O_34  and  C_35
REMARK    7  A    between atoms: N_37  and  N_38
REMARK                            x       y       z     vdW  Elec       q    Type
REMARK                         _______ _______ _______ _____ _____    ______ ____
ROOT
ATOM      1  C   UNL     1      58.753 160.239  40.541  0.00  0.00    +0.081 C 
ATOM      2  C   UNL     1      59.347 159.731  39.272  0.00  0.00    +0.018 C 
ATOM      3  C   UNL     1      59.150 160.881  38.310  0.00  0.00    +0.002 C 
ATOM      4  C   UNL     1      59.230 162.070  39.172  0.00  0.00    +0.006 C 
ATOM      5  C   UNL     1      59.140 161.695  40.591  0.00  0.00    +0.038 C 
ATOM      6  C   UNL     1      60.319 162.002  41.445  0.00  0.00    -0.030 C 
ATOM      7  C   UNL     1      61.138 163.181  41.033  0.00  0.00    -0.031 C 
ATOM      8  C   UNL     1      60.680 163.962  39.888  0.00  0.00    +0.023 C 
ATOM      9  C   UNL     1      59.982 163.225  38.783  0.00  0.00    +0.005 C 
ATOM     10  C   UNL     1      61.279 163.173  38.056  0.00  0.00    +0.006 C 
ATOM     11  C   UNL     1      61.652 164.413  38.832  0.00  0.00    +0.019 C 
ATOM     12  C   UNL     1      61.023 165.618  38.110  0.00  0.00    +0.072 C 
ATOM     13  N   UNL     1      61.623 165.857  36.834  0.00  0.00    -0.264 NA
ATOM     14  C   UNL     1      62.556 166.971  36.955  0.00  0.00    +0.230 C 
ATOM     15  C   UNL     1      63.824 166.373  37.542  0.00  0.00    +0.061 C 
ATOM     16  C   UNL     1      63.533 166.057  38.981  0.00  0.00    +0.006 C 
ATOM     17  C   UNL     1      63.055 164.606  39.166  0.00  0.00    +0.010 C 
ATOM     18  C   UNL     1      62.166 162.018  38.234  0.00  0.00    +0.022 C 
ATOM     19  C   UNL     1      63.591 162.360  38.473  0.00  0.00    -0.037 C 
ATOM     20  C   UNL     1      64.442 161.407  38.793  0.00  0.00    +0.034 C 
ATOM     21  C   UNL     1      65.855 161.665  39.042  0.00  0.00    +0.195 C 
ATOM     22  O   UNL     1      66.627 160.740  39.342  0.00  0.00    -0.287 OA
ATOM     23  C   UNL     1      66.262 163.062  38.910  0.00  0.00    +0.038 C 
ATOM     24  C   UNL     1      65.414 164.017  38.590  0.00  0.00    -0.019 C 
ATOM     25  C   UNL     1      64.004 163.761  38.340  0.00  0.00    +0.040 C 
ATOM     26  H   UNL     1      60.899 166.088  36.153  0.00  0.00    +0.126 HD
ENDROOT
BRANCH   1  27
ATOM     27  N   UNL     1      57.331 160.039  40.649  0.00  0.00    -0.168 NA
ATOM     28  H   UNL     1      57.078 159.228  40.084  0.00  0.00    +0.150 HD
BRANCH  27  29
ATOM     29  S   UNL     1      56.789 159.774  42.241  0.00  0.00    +0.114 S 
ATOM     30  O   UNL     1      57.777 158.826  42.906  0.00  0.00    -0.138 OA
ATOM     31  O   UNL     1      56.759 161.023  43.034  0.00  0.00    -0.138 OA
BRANCH  29  32
ATOM     32  N   UNL     1      55.259 158.954  42.278  0.00  0.00    -0.141 N 
ATOM     33  C   UNL     1      54.124 159.685  41.833  0.00  0.00    +0.418 C 
ATOM     34  O   UNL     1      54.212 160.885  41.424  0.00  0.00    -0.225 OA
ATOM     35  H   UNL     1      55.182 158.025  42.592  0.00  0.00    +0.181 HD
BRANCH  33  36
ATOM     36  O   UNL     1      52.857 159.106  41.829  0.00  0.00    -0.465 OA
ATOM     37  H   UNL     1      52.107 159.622  41.604  0.00  0.00    +0.297 HD
ENDBRANCH  33  36
ENDBRANCH  29  32
ENDBRANCH  27  29
ENDBRANCH   1  27
BRANCH  14  38
ATOM     38  O   UNL     1      62.759 167.636  35.747  0.00  0.00    -0.422 OA
BRANCH  38  39
ATOM     39  C   UNL     1      61.743 168.219  35.027  0.00  0.00    +0.416 C 
ATOM     40  O   UNL     1      60.732 168.614  35.679  0.00  0.00    -0.225 OA
ATOM     41  N   UNL     1      61.725 168.415  33.638  0.00  0.00    -0.219 N 
ATOM     42  H   UNL     1      62.505 168.113  33.119  0.00  0.00    +0.172 HD
BRANCH  41  43
ATOM     43  N   UNL     1      60.669 169.014  32.945  0.00  0.00    -0.252 NA
ATOM     44  H   UNL     1      60.513 168.518  32.068  0.00  0.00    +0.141 HD
ATOM     45  H   UNL     1      60.899 169.988  32.749  0.00  0.00    +0.141 HD
ENDBRANCH  41  43
ENDBRANCH  38  39
ENDBRANCH  14  38
TORSDOF 7
ENDMDL
