REMARK  Name = =
REMARK  5 active torsions:
REMARK  status: ('A' for Active; 'I' for Inactive)
REMARK    1  A    between atoms: N_3  and  N_4
REMARK    2  A    between atoms: N_3  and  N_19
REMARK    3  A    between atoms: N_4  and  C_7
REMARK    4  A    between atoms: N_19  and  C_20
REMARK    5  A    between atoms: C_23  and  C_26
REMARK                            x       y       z     vdW  Elec       q    Type
REMARK                         _______ _______ _______ _____ _____    ______ ____
ROOT
ATOM      1  C   UNL     1      53.094 155.122  27.974  0.00  0.00    +0.338 C 
ATOM      2  O   UNL     1      53.295 155.874  28.952  0.00  0.00    -0.262 OA
ATOM      3  N   UNL     1      53.104 155.612  26.653  0.00  0.00    -0.118 N 
ENDROOT
BRANCH   3   4
ATOM      4  N   UNL     1      52.880 154.803  25.544  0.00  0.00    -0.156 N 
ATOM      5  C   UNL     1      52.698 155.325  24.233  0.00  0.00    +0.326 C 
ATOM      6  O   UNL     1      52.497 154.578  23.244  0.00  0.00    -0.263 OA
BRANCH   4   7
ATOM      7  C   UNL     1      52.826 153.405  25.720  0.00  0.00    +0.117 C 
ATOM      8  C   UNL     1      52.065 152.919  26.670  0.00  0.00    +0.062 C 
ATOM      9  C   UNL     1      51.990 151.473  26.872  0.00  0.00    +0.197 C 
ATOM     10  O   UNL     1      51.255 151.041  27.788  0.00  0.00    -0.287 OA
ATOM     11  C   UNL     1      52.771 150.604  26.004  0.00  0.00    +0.042 C 
ATOM     12  C   UNL     1      53.576 151.102  25.000  0.00  0.00    +0.043 C 
ATOM     13  C   UNL     1      54.313 150.273  24.181  0.00  0.00    +0.003 C 
ATOM     14  C   UNL     1      54.265 148.894  24.345  0.00  0.00    +0.000 C 
ATOM     15  C   UNL     1      53.462 148.413  25.346  0.00  0.00    +0.000 C 
ATOM     16  C   UNL     1      52.717 149.254  26.174  0.00  0.00    +0.003 C 
ATOM     17  C   UNL     1      53.628 152.547  24.825  0.00  0.00    +0.211 C 
ATOM     18  O   UNL     1      54.346 153.055  23.923  0.00  0.00    -0.285 OA
ENDBRANCH   4   7
ENDBRANCH   3   4
BRANCH   3  19
ATOM     19  N   UNL     1      53.344 156.965  26.435  0.00  0.00    -0.243 N 
ATOM     20  H   UNL     1      52.566 157.564  26.358  0.00  0.00    +0.172 HD
BRANCH  19  21
ATOM     21  C   UNL     1      54.646 157.542  26.316  0.00  0.00    +0.063 C 
ATOM     22  C   UNL     1      55.127 158.380  27.300  0.00  0.00    +0.016 C 
ATOM     23  C   UNL     1      56.382 158.963  27.233  0.00  0.00    +0.006 C 
ATOM     24  C   UNL     1      57.204 158.718  26.154  0.00  0.00    +0.053 C 
ATOM     25  C   UNL     1      56.731 157.882  25.168  0.00  0.00    +0.006 C 
ATOM     26  C   UNL     1      55.462 157.292  25.237  0.00  0.00    +0.016 C 
BRANCH  24  27
ATOM     27  C   UNL     1      58.541 159.313  26.034  0.00  0.00    +0.243 C 
ATOM     28  O   UNL     1      59.330 158.920  25.160  0.00  0.00    -0.270 OA
ATOM     29  N   UNL     1      58.971 160.349  26.905  0.00  0.00    -0.325 N 
ATOM     30  H   UNL     1      58.368 160.682  27.608  0.00  0.00    +0.145 HD
ATOM     31  H   UNL     1      59.872 160.734  26.805  0.00  0.00    +0.145 HD
ENDBRANCH  24  27
ENDBRANCH  19  21
ENDBRANCH   3  19
TORSDOF 5
