REMARK  Name = =
REMARK  7 active torsions:
REMARK  status: ('A' for Active; 'I' for Inactive)
REMARK    1  A    between atoms: N_1  and  N_20
REMARK    2  A    between atoms: C_12  and  O_39
REMARK    3  A    between atoms: C_19  and  S_40
REMARK    4  A    between atoms: C_30  and  C_33
REMARK    5  A    between atoms: S_40  and  C_41
REMARK    6  A    between atoms: C_41  and  N_43
REMARK    7  A    between atoms: N_43  and  O_44
REMARK                            x       y       z     vdW  Elec       q    Type
REMARK                         _______ _______ _______ _____ _____    ______ ____
ROOT
ATOM      1  N   UNL     1      51.216 160.622  30.840  0.00  0.00    -0.241 N 
ATOM      2  C   UNL     1      51.005 160.316  32.230  0.00  0.00    +0.095 C 
ATOM      3  C   UNL     1      50.186 161.377  32.851  0.00  0.00    +0.028 C 
ATOM      4  C   UNL     1      48.979 161.611  32.058  0.00  0.00    +0.069 C 
ATOM      5  C   UNL     1      48.010 162.630  32.637  0.00  0.00    +0.226 C 
ATOM      6  O   UNL     1      46.767 162.041  32.132  0.00  0.00    -0.469 OA
ATOM      7  C   UNL     1      46.903 160.632  32.241  0.00  0.00    +0.168 C 
ATOM      8  C   UNL     1      48.208 160.328  32.233  0.00  0.00    +0.014 C 
ATOM      9  C   UNL     1      48.807 159.115  32.329  0.00  0.00    -0.021 C 
ATOM     10  C   UNL     1      47.950 158.042  32.444  0.00  0.00    -0.001 C 
ATOM     11  C   UNL     1      46.566 158.269  32.455  0.00  0.00    +0.039 C 
ATOM     12  C   UNL     1      46.040 159.559  32.355  0.00  0.00    +0.167 C 
ATOM     13  C   UNL     1      50.273 158.969  32.378  0.00  0.00    +0.047 C 
ATOM     14  C   UNL     1      48.078 162.468  34.125  0.00  0.00    +0.191 C 
ATOM     15  O   UNL     1      47.030 162.260  34.705  0.00  0.00    -0.292 OA
ATOM     16  C   UNL     1      49.381 162.566  34.813  0.00  0.00    +0.068 C 
ATOM     17  C   UNL     1      50.576 162.172  33.962  0.00  0.00    +0.010 C 
ATOM     18  C   UNL     1      49.222 161.849  30.594  0.00  0.00    +0.041 C 
ATOM     19  C   UNL     1      50.028 160.670  30.052  0.00  0.00    +0.143 C 
ENDROOT
BRANCH   1  20
ATOM     20  N   UNL     1      52.377 160.262  30.265  0.00  0.00    -0.262 N 
ATOM     21  C   UNL     1      53.468 161.095  30.192  0.00  0.00    +0.078 A 
ATOM     22  C   UNL     1      54.472 160.418  29.538  0.00  0.00    +0.014 A 
ATOM     23  C   UNL     1      53.986 159.170  29.212  0.00  0.00    -0.005 A 
ATOM     24  C   UNL     1      52.684 159.112  29.679  0.00  0.00    +0.068 A 
ATOM     25  C   UNL     1      51.969 157.840  29.423  0.00  0.00    +0.115 C 
ATOM     26  N   UNL     1      52.176 157.466  28.060  0.00  0.00    -0.292 NA
ATOM     27  C   UNL     1      53.533 157.258  27.679  0.00  0.00    +0.074 C 
ATOM     28  C   UNL     1      54.530 157.990  28.530  0.00  0.00    +0.045 C 
ATOM     29  C   UNL     1      55.709 161.036  29.320  0.00  0.00    -0.001 C 
ATOM     30  C   UNL     1      55.956 162.323  29.746  0.00  0.00    +0.005 C 
ATOM     31  C   UNL     1      54.933 162.976  30.400  0.00  0.00    -0.000 C 
ATOM     32  C   UNL     1      53.709 162.385  30.623  0.00  0.00    +0.019 C 
ATOM     33  H   UNL     1      51.794 158.205  27.470  0.00  0.00    +0.124 HD
BRANCH  30  34
ATOM     34  C   UNL     1      57.291 162.948  29.493  0.00  0.00    +0.142 C 
ATOM     35  O   UNL     1      57.864 162.340  28.414  0.00  0.00    -0.347 OA
ATOM     36  C   UNL     1      58.142 163.116  27.326  0.00  0.00    +0.168 C 
ATOM     37  C   UNL     1      58.695 164.458  27.634  0.00  0.00    +0.001 C 
ATOM     38  C   UNL     1      58.151 165.121  28.647  0.00  0.00    -0.025 C 
ATOM     39  C   UNL     1      57.041 164.425  29.354  0.00  0.00    +0.060 C 
ENDBRANCH  30  34
ENDBRANCH   1  20
BRANCH  12  40
ATOM     40  O   UNL     1      44.664 159.797  32.367  0.00  0.00    -0.503 OA
ATOM     41  H   UNL     1      44.340 160.673  32.298  0.00  0.00    +0.292 HD
ENDBRANCH  12  40
BRANCH  19  42
ATOM     42  S   UNL     1      50.501 160.972  28.325  0.00  0.00    -0.070 S 
BRANCH  42  43
ATOM     43  C   UNL     1      49.062 161.105  27.283  0.00  0.00    +0.131 C 
ATOM     44  S   UNL     1      48.702 162.529  26.523  0.00  0.00    -0.026 S 
BRANCH  43  45
ATOM     45  N   UNL     1      48.175 160.021  27.063  0.00  0.00    -0.215 N 
ATOM     46  H   UNL     1      48.255 159.206  27.610  0.00  0.00    +0.180 HD
BRANCH  45  47
ATOM     47  O   UNL     1      47.210 160.097  26.098  0.00  0.00    -0.297 OA
ATOM     48  H   UNL     1      47.265 160.957  25.653  0.00  0.00    +0.241 HD
ENDBRANCH  45  47
ENDBRANCH  43  45
ENDBRANCH  42  43
ENDBRANCH  19  42
TORSDOF 7
