REMARK  Name = =
REMARK  1 active torsions:
REMARK  status: ('A' for Active; 'I' for Inactive)
REMARK    1  A    between atoms: C_9  and  C_16
REMARK                            x       y       z     vdW  Elec       q    Type
REMARK                         _______ _______ _______ _____ _____    ______ ____
ROOT
ATOM      1  C   UNL     1      54.063 153.910  24.420  0.00  0.00    +0.022 C 
ATOM      2  C   UNL     1      53.406 154.100  25.615  0.00  0.00    +0.115 C 
ATOM      3  C   UNL     1      53.129 155.362  26.086  0.00  0.00    +0.157 C 
ATOM      4  C   UNL     1      53.562 156.437  25.272  0.00  0.00    +0.038 C 
ATOM      5  C   UNL     1      54.212 156.247  24.085  0.00  0.00    +0.003 C 
ATOM      6  C   UNL     1      54.486 154.971  23.619  0.00  0.00    +0.002 C 
ATOM      7  O   UNL     1      52.510 155.608  27.208  0.00  0.00    -0.467 OA
ATOM      8  C   UNL     1      52.124 154.569  27.935  0.00  0.00    +0.231 C 
ATOM      9  C   UNL     1      51.465 154.820  29.123  0.00  0.00    +0.062 C 
ATOM     10  C   UNL     1      51.055 153.762  29.887  0.00  0.00    +0.195 C 
ATOM     11  O   UNL     1      50.445 154.004  30.986  0.00  0.00    -0.287 OA
ATOM     12  C   UNL     1      51.289 152.440  29.491  0.00  0.00    +0.043 C 
ATOM     13  C   UNL     1      51.956 152.192  28.294  0.00  0.00    +0.022 C 
ATOM     14  C   UNL     1      52.388 153.191  27.488  0.00  0.00    +0.103 C 
ATOM     15  N   UNL     1      53.035 152.983  26.316  0.00  0.00    -0.243 NA
ENDROOT
BRANCH   9  16
ATOM     16  C   UNL     1      51.274 156.214  29.535  0.00  0.00    +0.004 C 
ATOM     17  C   UNL     1      52.346 157.070  29.579  0.00  0.00    +0.015 C 
ATOM     18  C   UNL     1      52.268 158.430  29.911  0.00  0.00    +0.054 C 
ATOM     19  C   UNL     1      51.020 158.907  30.206  0.00  0.00    +0.043 C 
ATOM     20  C   UNL     1      49.937 158.079  30.172  0.00  0.00    +0.008 C 
ATOM     21  C   UNL     1      50.025 156.722  29.839  0.00  0.00    +0.001 C 
ATOM     22  S   UNL     1      50.853 160.645  30.629  0.00  0.00    -0.084 S 
ATOM     23  C   UNL     1      52.493 161.320  30.562  0.00  0.00    +0.043 C 
ATOM     24  C   UNL     1      53.578 160.562  30.228  0.00  0.00    +0.054 C 
ATOM     25  C   UNL     1      54.867 161.149  30.184  0.00  0.00    +0.015 C 
ATOM     26  C   UNL     1      55.000 162.478  30.481  0.00  0.00    +0.001 C 
ATOM     27  C   UNL     1      53.903 163.250  30.820  0.00  0.00    +0.001 C 
ATOM     28  C   UNL     1      52.667 162.633  30.849  0.00  0.00    +0.008 C 
ATOM     29  N   UNL     1      53.450 159.197  29.923  0.00  0.00    -0.312 N 
ATOM     30  H   UNL     1      54.281 158.722  29.691  0.00  0.00    +0.152 HD
ENDBRANCH   9  16
TORSDOF 1
