REMARK  Name = =
REMARK  0 active torsions:
REMARK  status: ('A' for Active; 'I' for Inactive)
REMARK                            x       y       z     vdW  Elec       q    Type
REMARK                         _______ _______ _______ _____ _____    ______ ____
ROOT
ATOM      1  C   UNL     1      -3.387  -3.624  31.067  0.00  0.00    +0.152 C 
ATOM      2  C   UNL     1      -2.885  -4.897  31.285  0.00  0.00    +0.079 C 
ATOM      3  N   UNL     1      -3.168  -5.554  32.526  0.00  0.00    -0.327 N 
ATOM      4  C   UNL     1      -4.317  -5.164  33.278  0.00  0.00    +0.135 C 
ATOM      5  C   UNL     1      -4.488  -3.668  33.274  0.00  0.00    +0.227 C 
ATOM      6  O   UNL     1      -4.136  -3.061  32.069  0.00  0.00    -0.472 OA
ATOM      7  C   UNL     1      -2.121  -5.525  30.316  0.00  0.00    +0.017 C 
ATOM      8  C   UNL     1      -1.878  -4.850  29.141  0.00  0.00    +0.001 C 
ATOM      9  C   UNL     1      -2.355  -3.599  28.892  0.00  0.00    +0.003 C 
ATOM     10  C   UNL     1      -3.115  -2.990  29.872  0.00  0.00    +0.038 C 
ATOM     11  H   UNL     1      -2.576  -6.267  32.857  0.00  0.00    +0.147 HD
ENDROOT
TORSDOF 0
