REMARK  Name = =
REMARK  0 active torsions:
REMARK  status: ('A' for Active; 'I' for Inactive)
REMARK                            x       y       z     vdW  Elec       q    Type
REMARK                         _______ _______ _______ _____ _____    ______ ____
ROOT
ATOM      1  C   UNL     1      -4.366  -3.922  30.661  0.00  0.00    +0.109 C 
ATOM      2  N   UNL     1      -3.156  -4.149  30.926  0.00  0.00    -0.295 NA
ATOM      3  H   UNL     1      -2.609  -3.455  31.360  0.00  0.00    +0.187 HD
ENDROOT
TORSDOF 0
