REMARK  Name = =
REMARK  1 active torsions:
REMARK  status: ('A' for Active; 'I' for Inactive)
REMARK    1  A    between atoms: C_1  and  C_10
REMARK                            x       y       z     vdW  Elec       q    Type
REMARK                         _______ _______ _______ _____ _____    ______ ____
ROOT
ATOM      1  C   UNL     1      -4.655  -2.390  31.696  0.00  0.00    +0.225 C 
ATOM      2  C   UNL     1      -5.781  -2.536  32.613  0.00  0.00    +0.045 C 
ATOM      3  C   UNL     1      -6.480  -1.379  32.616  0.00  0.00    +0.022 C 
ATOM      4  C   UNL     1      -5.772  -0.485  31.716  0.00  0.00    +0.096 C 
ATOM      5  N   UNL     1      -4.712  -1.088  31.204  0.00  0.00    -0.241 NA
ATOM      6  C   UNL     1      -5.884  -3.688  33.521  0.00  0.00    +0.100 C 
ATOM      7  N   UNL     1      -4.785  -4.363  33.683  0.00  0.00    -0.223 NA
ATOM      8  C   UNL     1      -3.609  -4.043  32.988  0.00  0.00    +0.196 C 
ATOM      9  N   UNL     1      -3.504  -3.103  32.065  0.00  0.00    -0.222 NA
ENDROOT
BRANCH   1  10
ATOM     10  C   UNL     1      -5.198  -3.258  30.462  0.00  0.00    +0.112 C 
ATOM     11  N   UNL     1      -4.381  -3.981  29.905  0.00  0.00    -0.298 NA
ATOM     12  H   UNL     1      -4.656  -4.537  29.141  0.00  0.00    +0.187 HD
ENDBRANCH   1  10
TORSDOF 1
