REMARK  Name = =
REMARK  3 active torsions:
REMARK  status: ('A' for Active; 'I' for Inactive)
REMARK    1  A    between atoms: C_7  and  S_11
REMARK    2  A    between atoms: S_11  and  C_12
REMARK    3  A    between atoms: C_12  and  N_14
REMARK                            x       y       z     vdW  Elec       q    Type
REMARK                         _______ _______ _______ _____ _____    ______ ____
ROOT
ATOM      1  C   UNL     1      -3.741  -3.418  30.738  0.00  0.00    +0.152 C 
ATOM      2  C   UNL     1      -3.003  -4.507  31.145  0.00  0.00    +0.085 C 
ATOM      3  N   UNL     1      -3.293  -5.095  32.398  0.00  0.00    -0.327 N 
ATOM      4  C   UNL     1      -4.349  -4.649  33.269  0.00  0.00    +0.135 C 
ATOM      5  C   UNL     1      -4.842  -3.269  32.939  0.00  0.00    +0.227 C 
ATOM      6  O   UNL     1      -4.736  -2.948  31.577  0.00  0.00    -0.472 OA
ATOM      7  C   UNL     1      -1.995  -5.029  30.359  0.00  0.00    +0.047 C 
ATOM      8  C   UNL     1      -1.764  -4.403  29.144  0.00  0.00    +0.008 C 
ATOM      9  C   UNL     1      -2.500  -3.311  28.730  0.00  0.00    +0.004 C 
ATOM     10  C   UNL     1      -3.507  -2.799  29.528  0.00  0.00    +0.038 C 
ATOM     11  H   UNL     1      -2.740  -5.854  32.692  0.00  0.00    +0.147 HD
ENDROOT
BRANCH   7  12
ATOM     12  S   UNL     1      -1.048  -6.443  30.903  0.00  0.00    -0.064 S 
BRANCH  12  13
ATOM     13  C   UNL     1      -2.054  -7.912  30.967  0.00  0.00    +0.109 C 
ATOM     14  S   UNL     1      -1.335  -9.296  31.453  0.00  0.00    -0.028 S 
BRANCH  13  15
ATOM     15  N   UNL     1      -3.421  -7.948  30.626  0.00  0.00    -0.347 N 
ATOM     16  H   UNL     1      -3.876  -7.127  30.330  0.00  0.00    +0.143 HD
ATOM     17  H   UNL     1      -3.921  -8.794  30.684  0.00  0.00    +0.143 HD
ENDBRANCH  13  15
ENDBRANCH  12  13
ENDBRANCH   7  12
TORSDOF 3
