REMARK  Name = =
REMARK  4 active torsions:
REMARK  status: ('A' for Active; 'I' for Inactive)
REMARK    1  A    between atoms: C_1  and  C_10
REMARK    2  A    between atoms: C_3  and  N_12
REMARK    3  A    between atoms: N_12  and  O_15
REMARK    4  A    between atoms: O_15  and  C_16
REMARK                            x       y       z     vdW  Elec       q    Type
REMARK                         _______ _______ _______ _____ _____    ______ ____
ROOT
ATOM      1  C   UNL     1      -3.703  -3.269  31.246  0.00  0.00    +0.227 C 
ATOM      2  C   UNL     1      -4.956  -2.974  31.931  0.00  0.00    +0.062 C 
ATOM      3  C   UNL     1      -5.246  -1.698  31.609  0.00  0.00    +0.113 C 
ATOM      4  C   UNL     1      -4.156  -1.139  30.798  0.00  0.00    +0.114 C 
ATOM      5  N   UNL     1      -3.263  -2.088  30.629  0.00  0.00    -0.239 NA
ATOM      6  C   UNL     1      -5.497  -3.905  32.903  0.00  0.00    +0.102 C 
ATOM      7  N   UNL     1      -4.712  -4.844  33.359  0.00  0.00    -0.223 NA
ATOM      8  C   UNL     1      -3.403  -4.959  32.859  0.00  0.00    +0.196 C 
ATOM      9  N   UNL     1      -2.901  -4.217  31.890  0.00  0.00    -0.222 NA
ENDROOT
BRANCH   1  10
ATOM     10  C   UNL     1      -4.293  -4.095  29.979  0.00  0.00    +0.112 C 
ATOM     11  N   UNL     1      -4.149  -5.322  29.938  0.00  0.00    -0.298 NA
ATOM     12  H   UNL     1      -4.502  -5.834  29.175  0.00  0.00    +0.187 HD
ENDBRANCH   1  10
BRANCH   3  13
ATOM     13  N   UNL     1      -6.399  -1.008  32.061  0.00  0.00    -0.088 N 
ATOM     14  C   UNL     1      -6.451   0.414  31.903  0.00  0.00    +0.341 C 
ATOM     15  O   UNL     1      -7.467   1.007  32.302  0.00  0.00    -0.261 OA
BRANCH  13  16
ATOM     16  O   UNL     1      -7.443  -1.701  32.637  0.00  0.00    -0.329 OA
BRANCH  16  17
ATOM     17  C   UNL     1      -8.586  -1.894  31.883  0.00  0.00    +0.442 C 
ATOM     18  O   UNL     1      -8.504  -1.983  30.643  0.00  0.00    -0.235 OA
ENDBRANCH  16  17
ENDBRANCH  13  16
ENDBRANCH   3  13
TORSDOF 4
