REMARK  Name = =
REMARK  6 active torsions:
REMARK  status: ('A' for Active; 'I' for Inactive)
REMARK    1  A    between atoms: C_1  and  C_10
REMARK    2  A    between atoms: C_3  and  N_15
REMARK    3  A    between atoms: C_10  and  C_12
REMARK    4  A    between atoms: N_13  and  O_14
REMARK    5  A    between atoms: N_15  and  O_18
REMARK    6  A    between atoms: O_18  and  C_19
REMARK                            x       y       z     vdW  Elec       q    Type
REMARK                         _______ _______ _______ _____ _____    ______ ____
ROOT
ATOM      1  C   UNL     1      -6.477  -2.072  31.839  0.00  0.00    +0.212 C 
ATOM      2  C   UNL     1      -5.673  -2.865  32.732  0.00  0.00    +0.116 C 
ATOM      3  C   UNL     1      -5.010  -3.729  31.942  0.00  0.00    +0.166 C 
ATOM      4  C   UNL     1      -5.292  -3.416  30.530  0.00  0.00    +0.093 C 
ATOM      5  N   UNL     1      -6.139  -2.411  30.505  0.00  0.00    -0.247 NA
ATOM      6  C   UNL     1      -5.474  -2.478  34.124  0.00  0.00    +0.080 C 
ATOM      7  N   UNL     1      -5.761  -1.239  34.491  0.00  0.00    -0.227 NA
ATOM      8  C   UNL     1      -6.308  -0.385  33.512  0.00  0.00    +0.196 C 
ATOM      9  N   UNL     1      -6.620  -0.748  32.281  0.00  0.00    -0.225 NA
ENDROOT
BRANCH   1  10
ATOM     10  C   UNL     1      -7.958  -2.643  31.979  0.00  0.00    +0.114 C 
ATOM     11  N   UNL     1      -8.687  -2.544  30.959  0.00  0.00    -0.297 NA
ATOM     12  H   UNL     1      -8.329  -2.139  30.136  0.00  0.00    +0.187 HD
BRANCH  10  13
ATOM     13  C   UNL     1      -8.398  -3.211  33.196  0.00  0.00    +0.158 C 
ATOM     14  N   UNL     1      -9.609  -3.650  33.382  0.00  0.00    -0.083 NA
BRANCH  14  15
ATOM     15  O   UNL     1     -10.575  -3.612  32.435  0.00  0.00    -0.409 OA
ATOM     16  H   UNL     1     -11.431  -3.943  32.625  0.00  0.00    +0.328 HD
ENDBRANCH  14  15
ENDBRANCH  10  13
ENDBRANCH   1  10
BRANCH   3  17
ATOM     17  N   UNL     1      -4.110  -4.705  32.426  0.00  0.00    -0.107 N 
ATOM     18  C   UNL     1      -3.099  -5.233  31.562  0.00  0.00    +0.337 C 
ATOM     19  O   UNL     1      -2.306  -6.087  31.978  0.00  0.00    -0.262 OA
BRANCH  17  20
ATOM     20  O   UNL     1      -4.167  -5.169  33.713  0.00  0.00    -0.333 OA
BRANCH  20  21
ATOM     21  C   UNL     1      -4.499  -6.487  33.968  0.00  0.00    +0.441 C 
ATOM     22  O   UNL     1      -4.782  -7.214  32.976  0.00  0.00    -0.235 OA
ENDBRANCH  20  21
ENDBRANCH  17  20
ENDBRANCH   3  17
TORSDOF 6
