REMARK  Name = =
REMARK  7 active torsions:
REMARK  status: ('A' for Active; 'I' for Inactive)
REMARK    1  A    between atoms: C_1  and  C_10
REMARK    2  A    between atoms: C_3  and  N_18
REMARK    3  A    between atoms: C_10  and  C_12
REMARK    4  A    between atoms: C_12  and  C_14
REMARK    5  A    between atoms: N_13  and  O_17
REMARK    6  A    between atoms: N_18  and  O_21
REMARK    7  A    between atoms: O_21  and  C_22
REMARK                            x       y       z     vdW  Elec       q    Type
REMARK                         _______ _______ _______ _____ _____    ______ ____
ROOT
ATOM      1  C   UNL     1      -4.302  -3.914  30.918  0.00  0.00    +0.227 C 
ATOM      2  C   UNL     1      -3.856  -2.577  30.519  0.00  0.00    +0.061 C 
ATOM      3  C   UNL     1      -3.020  -2.673  29.491  0.00  0.00    +0.102 C 
ATOM      4  C   UNL     1      -2.986  -4.102  29.136  0.00  0.00    +0.113 C 
ATOM      5  N   UNL     1      -3.757  -4.780  29.968  0.00  0.00    -0.240 NA
ATOM      6  C   UNL     1      -4.498  -1.401  31.062  0.00  0.00    +0.102 C 
ATOM      7  N   UNL     1      -5.656  -1.510  31.677  0.00  0.00    -0.223 NA
ATOM      8  C   UNL     1      -6.177  -2.818  31.815  0.00  0.00    +0.196 C 
ATOM      9  N   UNL     1      -5.584  -3.912  31.454  0.00  0.00    -0.222 NA
ENDROOT
BRANCH   1  10
ATOM     10  C   UNL     1      -3.462  -4.243  32.229  0.00  0.00    +0.120 C 
ATOM     11  N   UNL     1      -3.003  -3.284  32.835  0.00  0.00    -0.297 NA
ATOM     12  H   UNL     1      -3.154  -2.371  32.499  0.00  0.00    +0.187 HD
BRANCH  10  13
ATOM     13  C   UNL     1      -3.354  -5.619  32.551  0.00  0.00    +0.189 C 
ATOM     14  N   UNL     1      -4.155  -6.230  33.325  0.00  0.00    -0.080 NA
BRANCH  13  15
ATOM     15  C   UNL     1      -2.232  -6.407  31.944  0.00  0.00    +0.265 C 
ATOM     16  O   UNL     1      -1.266  -5.786  31.491  0.00  0.00    -0.269 OA
ATOM     17  N   UNL     1      -2.375  -7.813  31.942  0.00  0.00    -0.324 N 
ATOM     18  H   UNL     1      -3.182  -8.226  32.326  0.00  0.00    +0.145 HD
ATOM     19  H   UNL     1      -1.668  -8.379  31.557  0.00  0.00    +0.145 HD
ENDBRANCH  13  15
BRANCH  14  20
ATOM     20  O   UNL     1      -5.219  -5.904  34.023  0.00  0.00    -0.409 OA
ATOM     21  H   UNL     1      -5.658  -6.552  34.538  0.00  0.00    +0.328 HD
ENDBRANCH  14  20
ENDBRANCH  10  13
ENDBRANCH   1  10
BRANCH   3  22
ATOM     22  N   UNL     1      -2.314  -1.691  28.750  0.00  0.00    -0.134 N 
ATOM     23  C   UNL     1      -1.930  -1.871  27.404  0.00  0.00    +0.331 C 
ATOM     24  O   UNL     1      -1.308  -0.988  26.776  0.00  0.00    -0.262 OA
BRANCH  22  25
ATOM     25  O   UNL     1      -1.966  -0.480  29.344  0.00  0.00    -0.222 OA
BRANCH  25  26
ATOM     26  C   UNL     1      -2.759   0.658  29.195  0.00  0.00    +0.352 C 
ATOM     27  O   UNL     1      -3.931   0.426  28.752  0.00  0.00    -0.182 OA
ENDBRANCH  25  26
ENDBRANCH  22  25
ENDBRANCH   3  22
TORSDOF 7
