REMARK  Name = =
REMARK  15 active torsions:
REMARK  status: ('A' for Active; 'I' for Inactive)
REMARK    1  A    between atoms: C_1  and  C_17
REMARK    2  A    between atoms: N_3  and  P_4
REMARK    3  A    between atoms: P_4  and  O_12
REMARK    4  A    between atoms: O_7  and  P_8
REMARK    5  A    between atoms: O_7  and  O_12
REMARK    6  A    between atoms: P_8  and  O_10
REMARK    7  A    between atoms: P_8  and  O_11
REMARK    8  A    between atoms: P_13  and  O_15
REMARK    9  A    between atoms: P_13  and  O_16
REMARK   10  A    between atoms: C_17  and  C_19
REMARK   11  A    between atoms: N_18  and  O_36
REMARK   12  A    between atoms: C_19  and  C_21
REMARK   13  A    between atoms: C_23  and  N_30
REMARK   14  A    between atoms: N_30  and  O_33
REMARK   15  A    between atoms: O_33  and  C_34
REMARK                            x       y       z     vdW  Elec       q    Type
REMARK                         _______ _______ _______ _____ _____    ______ ____
ROOT
ATOM      1  C   UNL     1       1.984  -5.707  30.144  0.00  0.00    +0.189 C 
ATOM      2  N   UNL     1       2.260  -4.529  30.440  0.00  0.00    -0.080 NA
ENDROOT
BRANCH   1   3
ATOM      3  C   UNL     1       1.327  -6.612  31.117  0.00  0.00    +0.274 C 
ATOM      4  O   UNL     1       2.024  -7.477  31.728  0.00  0.00    -0.268 OA
ATOM      5  N   UNL     1      -0.070  -6.568  31.419  0.00  0.00    -0.240 N 
ATOM      6  H   UNL     1      -0.643  -5.917  30.953  0.00  0.00    +0.158 HD
BRANCH   5   7
ATOM      7  P   UNL     1      -0.793  -7.659  32.613  0.00  0.00    +0.308 P 
ATOM      8  O   UNL     1      -1.264  -6.528  33.545  0.00  0.00    -0.270 OA
ATOM      9  H   UNL     1      -1.683  -6.612  32.745  0.00  0.00    +0.152 HD
BRANCH   7  10
ATOM     10  O   UNL     1      -1.237  -9.026  31.782  0.00  0.00    -0.149 OA
BRANCH  10  11
ATOM     11  O   UNL     1      -2.257  -8.010  31.877  0.00  0.00    -0.119 OA
BRANCH  11  12
ATOM     12  P   UNL     1      -3.569  -7.274  32.574  0.00  0.00    +0.500 P 
ATOM     13  O   UNL     1      -3.650  -7.513  34.062  0.00  0.00    -0.225 OA
BRANCH  12  14
ATOM     14  O   UNL     1      -4.964  -7.811  31.779  0.00  0.00    -0.301 OA
ATOM     15  H   UNL     1      -5.072  -8.764  31.923  0.00  0.00    +0.222 HD
ENDBRANCH  12  14
BRANCH  12  16
ATOM     16  O   UNL     1      -3.459  -5.594  32.268  0.00  0.00    -0.301 OA
ATOM     17  H   UNL     1      -2.670  -5.237  32.705  0.00  0.00    +0.222 HD
ENDBRANCH  12  16
ENDBRANCH  11  12
ENDBRANCH  10  11
ENDBRANCH   7  10
ENDBRANCH   5   7
ENDBRANCH   1   3
BRANCH   1  18
ATOM     18  C   UNL     1       2.310  -6.261  28.864  0.00  0.00    +0.120 C 
ATOM     19  N   UNL     1       3.440  -6.596  28.428  0.00  0.00    -0.297 NA
ATOM     20  H   UNL     1       4.233  -6.518  29.006  0.00  0.00    +0.187 HD
BRANCH  18  21
ATOM     21  C   UNL     1       1.156  -6.450  27.810  0.00  0.00    +0.227 C 
ATOM     22  C   UNL     1       1.704  -6.068  26.532  0.00  0.00    +0.062 C 
ATOM     23  C   UNL     1       1.921  -7.201  25.832  0.00  0.00    +0.113 C 
ATOM     24  C   UNL     1       1.418  -8.308  26.680  0.00  0.00    +0.114 C 
ATOM     25  N   UNL     1       0.978  -7.836  27.786  0.00  0.00    -0.239 NA
ATOM     26  C   UNL     1       1.692  -4.692  26.062  0.00  0.00    +0.102 C 
ATOM     27  N   UNL     1       0.835  -3.890  26.666  0.00  0.00    -0.223 NA
ATOM     28  C   UNL     1       0.067  -4.382  27.734  0.00  0.00    +0.196 C 
ATOM     29  N   UNL     1       0.135  -5.546  28.287  0.00  0.00    -0.222 NA
BRANCH  23  30
ATOM     30  N   UNL     1       2.452  -7.353  24.531  0.00  0.00    -0.088 N 
ATOM     31  C   UNL     1       3.571  -8.191  24.307  0.00  0.00    +0.341 C 
ATOM     32  O   UNL     1       4.065  -8.347  23.161  0.00  0.00    -0.261 OA
BRANCH  30  33
ATOM     33  O   UNL     1       1.890  -6.700  23.476  0.00  0.00    -0.329 OA
BRANCH  33  34
ATOM     34  C   UNL     1       2.505  -5.611  22.852  0.00  0.00    +0.442 C 
ATOM     35  O   UNL     1       3.553  -5.166  23.380  0.00  0.00    -0.235 OA
ENDBRANCH  33  34
ENDBRANCH  30  33
ENDBRANCH  23  30
ENDBRANCH  18  21
ENDBRANCH   1  18
BRANCH   2  36
ATOM     36  O   UNL     1       2.120  -3.712  31.474  0.00  0.00    -0.409 OA
ATOM     37  H   UNL     1       2.436  -2.831  31.421  0.00  0.00    +0.328 HD
ENDBRANCH   2  36
TORSDOF 13
REMARK  Name = =
REMARK  15 active torsions:
REMARK  status: ('A' for Active; 'I' for Inactive)
REMARK    1  A    between atoms: C_1  and  C_17
REMARK    2  A    between atoms: N_3  and  P_4
REMARK    3  A    between atoms: P_4  and  O_12
REMARK    4  A    between atoms: O_7  and  P_8
REMARK    5  A    between atoms: O_7  and  O_12
REMARK    6  A    between atoms: P_8  and  O_10
REMARK    7  A    between atoms: P_8  and  O_11
REMARK    8  A    between atoms: P_13  and  O_15
REMARK    9  A    between atoms: P_13  and  O_16
REMARK   10  A    between atoms: C_17  and  C_19
REMARK   11  A    between atoms: N_18  and  O_36
REMARK   12  A    between atoms: C_19  and  C_21
REMARK   13  A    between atoms: C_23  and  N_30
REMARK   14  A    between atoms: N_30  and  O_33
REMARK   15  A    between atoms: O_33  and  C_34
REMARK                            x       y       z     vdW  Elec       q    Type
REMARK                         _______ _______ _______ _____ _____    ______ ____
ROOT
ATOM      1  O   HOH     1       0.400  -8.204  33.648  0.00  0.00    -0.253 OA
ATOM      2  H   HOH     0       1.370  -8.204  33.648  0.00  0.00    +0.253 HD
ENDROOT
TORSDOF 0
REMARK  Name = =
REMARK  15 active torsions:
REMARK  status: ('A' for Active; 'I' for Inactive)
REMARK    1  A    between atoms: C_1  and  C_17
REMARK    2  A    between atoms: N_3  and  P_4
REMARK    3  A    between atoms: P_4  and  O_12
REMARK    4  A    between atoms: O_7  and  P_8
REMARK    5  A    between atoms: O_7  and  O_12
REMARK    6  A    between atoms: P_8  and  O_10
REMARK    7  A    between atoms: P_8  and  O_11
REMARK    8  A    between atoms: P_13  and  O_15
REMARK    9  A    between atoms: P_13  and  O_16
REMARK   10  A    between atoms: C_17  and  C_19
REMARK   11  A    between atoms: N_18  and  O_36
REMARK   12  A    between atoms: C_19  and  C_21
REMARK   13  A    between atoms: C_23  and  N_30
REMARK   14  A    between atoms: N_30  and  O_33
REMARK   15  A    between atoms: O_33  and  C_34
REMARK                            x       y       z     vdW  Elec       q    Type
REMARK                         _______ _______ _______ _____ _____    ______ ____
ROOT
ATOM      1  P   UNL     1      -1.920  -8.698  30.258  0.00  0.00    +0.359 P 
ATOM      2  O   UNL     1      -3.294  -9.316  30.142  0.00  0.00    -0.145 OA
ENDROOT
BRANCH   1   3
ATOM      3  O   UNL     1      -0.931  -9.449  29.116  0.00  0.00    -0.326 OA
ATOM      4  H   UNL     1      -0.892 -10.401  29.298  0.00  0.00    +0.219 HD
ENDBRANCH   1   3
BRANCH   1   5
ATOM      5  O   UNL     1      -1.974  -7.059  29.927  0.00  0.00    -0.326 OA
ATOM      6  H   UNL     1      -2.541  -6.616  30.578  0.00  0.00    +0.219 HD
ENDBRANCH   1   5
TORSDOF 2
