REMARK  Name = =
REMARK  1 active torsions:
REMARK  status: ('A' for Active; 'I' for Inactive)
REMARK    1  A    between atoms: C_9  and  O_11
REMARK                            x       y       z     vdW  Elec       q    Type
REMARK                         _______ _______ _______ _____ _____    ______ ____
ROOT
ATOM      1  C   UNL     1      51.328 155.013  28.753  0.00  0.00    +0.026 C 
ATOM      2  C   UNL     1      50.618 156.130  29.433  0.00  0.00    +0.005 C 
ATOM      3  C   UNL     1      51.228 157.491  29.242  0.00  0.00    +0.005 C 
ATOM      4  C   UNL     1      52.707 157.451  28.917  0.00  0.00    +0.026 C 
ATOM      5  C   UNL     1      52.850 156.651  27.644  0.00  0.00    -0.023 C 
ATOM      6  C   UNL     1      52.150 155.455  27.602  0.00  0.00    -0.026 C 
ATOM      7  C   UNL     1      52.271 154.714  26.437  0.00  0.00    -0.001 C 
ATOM      8  C   UNL     1      53.042 155.128  25.370  0.00  0.00    +0.036 C 
ATOM      9  C   UNL     1      53.715 156.327  25.471  0.00  0.00    +0.133 C 
ATOM     10  C   UNL     1      53.633 157.111  26.608  0.00  0.00    +0.032 C 
ENDROOT
BRANCH   9  11
ATOM     11  O   UNL     1      54.489 156.745  24.400  0.00  0.00    -0.506 OA
ATOM     12  H   UNL     1      54.546 156.216  23.629  0.00  0.00    +0.292 HD
ENDBRANCH   9  11
TORSDOF 1
