REMARK  Name = =
REMARK  4 active torsions:
REMARK  status: ('A' for Active; 'I' for Inactive)
REMARK    1  A    between atoms: C_1  and  O_16
REMARK    2  A    between atoms: C_5  and  C_17
REMARK    3  A    between atoms: C_10  and  O_20
REMARK    4  A    between atoms: C_17  and  O_19
REMARK                            x       y       z     vdW  Elec       q    Type
REMARK                         _______ _______ _______ _____ _____    ______ ____
ROOT
ATOM      1  C   UNL     1      51.848 157.988  29.433  0.00  0.00    +0.137 C 
ATOM      2  C   UNL     1      51.242 158.937  30.213  0.00  0.00    +0.069 C 
ATOM      3  C   UNL     1      51.965 160.006  30.667  0.00  0.00    -0.012 C 
ATOM      4  C   UNL     1      53.318 160.081  30.305  0.00  0.00    +0.003 C 
ATOM      5  C   UNL     1      53.900 159.117  29.522  0.00  0.00    +0.078 C 
ATOM      6  C   UNL     1      53.166 158.021  29.056  0.00  0.00    +0.043 C 
ATOM      7  C   UNL     1      51.437 161.097  31.513  0.00  0.00    +0.053 C 
ATOM      8  C   UNL     1      50.006 160.955  31.855  0.00  0.00    -0.012 C 
ATOM      9  C   UNL     1      49.220 159.908  31.434  0.00  0.00    +0.069 C 
ATOM     10  C   UNL     1      47.878 159.838  31.795  0.00  0.00    +0.136 C 
ATOM     11  C   UNL     1      47.276 160.797  32.581  0.00  0.00    +0.037 C 
ATOM     12  C   UNL     1      48.056 161.852  33.008  0.00  0.00    +0.003 C 
ATOM     13  C   UNL     1      49.380 161.925  32.654  0.00  0.00    -0.004 C 
ATOM     14  C   UNL     1      49.837 158.875  30.598  0.00  0.00    +0.201 C 
ATOM     15  O   UNL     1      49.152 157.901  30.193  0.00  0.00    -0.286 OA
ENDROOT
BRANCH   1  16
ATOM     16  O   UNL     1      51.068 156.923  29.000  0.00  0.00    -0.505 OA
ATOM     17  H   UNL     1      50.164 156.875  29.243  0.00  0.00    +0.292 HD
ENDBRANCH   1  16
BRANCH   5  18
ATOM     18  C   UNL     1      55.312 159.206  29.152  0.00  0.00    +0.338 C 
ATOM     19  O   UNL     1      56.130 159.676  29.978  0.00  0.00    -0.245 OA
BRANCH  18  20
ATOM     20  O   UNL     1      55.744 158.784  27.922  0.00  0.00    -0.477 OA
ATOM     21  H   UNL     1      55.132 158.433  27.306  0.00  0.00    +0.295 HD
ENDBRANCH  18  20
ENDBRANCH   5  18
BRANCH  10  22
ATOM     22  O   UNL     1      47.168 158.748  31.325  0.00  0.00    -0.505 OA
ATOM     23  H   UNL     1      47.594 158.106  30.792  0.00  0.00    +0.292 HD
ENDBRANCH  10  22
TORSDOF 4
