REMARK  Name = =
REMARK  0 active torsions:
REMARK  status: ('A' for Active; 'I' for Inactive)
REMARK                            x       y       z     vdW  Elec       q    Type
REMARK                         _______ _______ _______ _____ _____    ______ ____
ROOT
ATOM      1  N   UNL     1      49.893 156.873  29.895  0.00  0.00    -0.245 NA
ATOM      2  C   UNL     1      50.818 156.199  29.167  0.00  0.00    +0.081 C 
ATOM      3  C   UNL     1      52.024 156.791  28.826  0.00  0.00    +0.018 C 
ATOM      4  C   UNL     1      52.228 158.077  29.259  0.00  0.00    +0.003 C 
ATOM      5  C   UNL     1      51.271 158.750  30.000  0.00  0.00    +0.018 C 
ATOM      6  C   UNL     1      50.081 158.133  30.325  0.00  0.00    +0.081 C 
ATOM      7  C   UNL     1      49.131 158.813  31.066  0.00  0.00    +0.019 C 
ATOM      8  C   UNL     1      49.325 160.111  31.508  0.00  0.00    +0.002 C 
ATOM      9  C   UNL     1      50.517 160.724  31.183  0.00  0.00    +0.000 C 
ATOM     10  C   UNL     1      51.463 160.043  30.443  0.00  0.00    +0.001 C 
ATOM     11  C   UNL     1      52.981 156.121  28.086  0.00  0.00    +0.001 C 
ATOM     12  C   UNL     1      52.745 154.834  27.668  0.00  0.00    +0.000 C 
ATOM     13  C   UNL     1      51.557 154.224  27.993  0.00  0.00    +0.002 C 
ATOM     14  C   UNL     1      50.593 154.896  28.738  0.00  0.00    +0.019 C 
ENDROOT
TORSDOF 0
