REMARK  Name = =
REMARK  5 active torsions:
REMARK  status: ('A' for Active; 'I' for Inactive)
REMARK    1  A    between atoms: C_2  and  O_24
REMARK    2  A    between atoms: O_24  and  C_25
REMARK    3  A    between atoms: C_29  and  C_40
REMARK    4  A    between atoms: C_34  and  O_43
REMARK    5  A    between atoms: C_40  and  O_42
REMARK                            x       y       z     vdW  Elec       q    Type
REMARK                         _______ _______ _______ _____ _____    ______ ____
ROOT
ATOM      1  O   UNL     1      54.823 160.445  31.717  0.00  0.00    -0.321 OA
ATOM      2  C   UNL     1      54.828 161.179  30.596  0.00  0.00    +0.281 C 
ATOM      3  C   UNL     1      55.184 162.629  30.749  0.00  0.00    +0.182 C 
ATOM      4  O   UNL     1      56.476 162.877  30.397  0.00  0.00    -0.345 OA
ATOM      5  C   UNL     1      56.747 164.001  29.674  0.00  0.00    +0.169 C 
ATOM      6  C   UNL     1      58.023 163.699  28.959  0.00  0.00    +0.007 C 
ATOM      7  C   UNL     1      58.166 163.412  27.645  0.00  0.00    -0.002 C 
ATOM      8  C   UNL     1      57.097 163.298  26.636  0.00  0.00    -0.002 C 
ATOM      9  C   UNL     1      55.903 162.659  26.750  0.00  0.00    +0.007 C 
ATOM     10  C   UNL     1      55.025 162.672  25.649  0.00  0.00    -0.002 C 
ATOM     11  C   UNL     1      55.325 163.301  24.470  0.00  0.00    -0.000 C 
ATOM     12  C   UNL     1      56.528 163.948  24.346  0.00  0.00    -0.000 C 
ATOM     13  C   UNL     1      57.391 163.938  25.420  0.00  0.00    -0.000 C 
ATOM     14  C   UNL     1      55.401 161.902  27.914  0.00  0.00    +0.169 C 
ATOM     15  O   UNL     1      56.384 161.465  28.750  0.00  0.00    -0.343 OA
ATOM     16  C   UNL     1      55.950 160.574  29.717  0.00  0.00    +0.215 C 
ATOM     17  C   UNL     1      59.483 163.190  27.196  0.00  0.00    -0.000 C 
ATOM     18  C   UNL     1      60.590 163.246  27.998  0.00  0.00    -0.000 C 
ATOM     19  C   UNL     1      60.427 163.539  29.332  0.00  0.00    -0.000 C 
ATOM     20  C   UNL     1      59.142 163.759  29.782  0.00  0.00    -0.002 C 
ATOM     21  C   UNL     1      54.928 163.204  32.100  0.00  0.00    +0.039 C 
ATOM     22  C   UNL     1      55.018 162.218  33.226  0.00  0.00    +0.035 C 
ATOM     23  C   UNL     1      54.292 160.948  32.858  0.00  0.00    +0.146 C 
ENDROOT
BRANCH   2  24
ATOM     24  O   UNL     1      53.661 160.992  29.821  0.00  0.00    -0.453 OA
BRANCH  24  25
ATOM     25  C   UNL     1      52.359 161.030  30.313  0.00  0.00    +0.144 C 
ATOM     26  C   UNL     1      51.504 159.966  30.262  0.00  0.00    +0.069 C 
ATOM     27  C   UNL     1      50.227 160.029  30.774  0.00  0.00    -0.012 C 
ATOM     28  C   UNL     1      49.829 161.239  31.351  0.00  0.00    +0.003 C 
ATOM     29  C   UNL     1      50.649 162.332  31.420  0.00  0.00    +0.078 C 
ATOM     30  C   UNL     1      51.911 162.222  30.900  0.00  0.00    +0.044 C 
ATOM     31  C   UNL     1      49.246 158.900  30.745  0.00  0.00    +0.053 C 
ATOM     32  C   UNL     1      49.756 157.719  30.042  0.00  0.00    -0.012 C 
ATOM     33  C   UNL     1      50.998 157.603  29.512  0.00  0.00    +0.069 C 
ATOM     34  C   UNL     1      51.462 156.473  28.862  0.00  0.00    +0.136 C 
ATOM     35  C   UNL     1      50.588 155.414  28.762  0.00  0.00    +0.037 C 
ATOM     36  C   UNL     1      49.311 155.468  29.279  0.00  0.00    +0.003 C 
ATOM     37  C   UNL     1      48.916 156.618  29.911  0.00  0.00    -0.004 C 
ATOM     38  C   UNL     1      51.926 158.719  29.600  0.00  0.00    +0.201 C 
ATOM     39  O   UNL     1      53.083 158.669  29.126  0.00  0.00    -0.286 OA
BRANCH  29  40
ATOM     40  C   UNL     1      50.189 163.563  32.026  0.00  0.00    +0.338 C 
ATOM     41  O   UNL     1      49.065 163.615  32.562  0.00  0.00    -0.245 OA
BRANCH  40  42
ATOM     42  O   UNL     1      51.004 164.674  32.004  0.00  0.00    -0.477 OA
ATOM     43  H   UNL     1      51.848 164.628  31.599  0.00  0.00    +0.295 HD
ENDBRANCH  40  42
ENDBRANCH  29  40
BRANCH  34  44
ATOM     44  O   UNL     1      52.749 156.435  28.348  0.00  0.00    -0.505 OA
ATOM     45  H   UNL     1      53.312 157.179  28.438  0.00  0.00    +0.292 HD
ENDBRANCH  34  44
ENDBRANCH  24  25
ENDBRANCH   2  24
TORSDOF 5
