REMARK  Name = =
REMARK  3 active torsions:
REMARK  status: ('A' for Active; 'I' for Inactive)
REMARK    1  A    between atoms: C_1  and  O_12
REMARK    2  A    between atoms: C_9  and  O_11
REMARK    3  A    between atoms: O_12  and  C_13
REMARK                            x       y       z     vdW  Elec       q    Type
REMARK                         _______ _______ _______ _____ _____    ______ ____
ROOT
ATOM      1  C   UNL     1      51.265 155.094  28.037  0.00  0.00    +0.192 C 
ATOM      2  C   UNL     1      50.879 156.081  29.098  0.00  0.00    +0.049 C 
ATOM      3  C   UNL     1      51.699 157.328  29.102  0.00  0.00    +0.009 C 
ATOM      4  C   UNL     1      53.138 157.127  28.752  0.00  0.00    +0.026 C 
ATOM      5  C   UNL     1      53.164 156.600  27.341  0.00  0.00    -0.020 C 
ATOM      6  C   UNL     1      52.230 155.616  27.063  0.00  0.00    +0.014 C 
ATOM      7  C   UNL     1      52.224 155.112  25.785  0.00  0.00    +0.002 C 
ATOM      8  C   UNL     1      53.109 155.561  24.814  0.00  0.00    +0.036 C 
ATOM      9  C   UNL     1      54.030 156.545  25.124  0.00  0.00    +0.133 C 
ATOM     10  C   UNL     1      54.046 157.063  26.413  0.00  0.00    +0.032 C 
ENDROOT
BRANCH   9  11
ATOM     11  O   UNL     1      54.909 156.993  24.164  0.00  0.00    -0.506 OA
ATOM     12  H   UNL     1      54.883 156.632  23.300  0.00  0.00    +0.292 HD
ENDBRANCH   9  11
BRANCH   1  13
ATOM     13  O   UNL     1      51.727 153.887  28.648  0.00  0.00    -0.434 OA
BRANCH  13  14
ATOM     14  C   UNL     1      51.680 152.670  28.023  0.00  0.00    +0.399 C 
ATOM     15  O   UNL     1      51.353 152.576  26.819  0.00  0.00    -0.227 OA
ATOM     16  N   UNL     1      51.999 151.486  28.727  0.00  0.00    -0.295 N 
ATOM     17  H   UNL     1      52.259 151.532  29.675  0.00  0.00    +0.148 HD
ATOM     18  H   UNL     1      51.961 150.615  28.269  0.00  0.00    +0.148 HD
ENDBRANCH  13  14
ENDBRANCH   1  13
TORSDOF 3
