REMARK  Name = =
REMARK  4 active torsions:
REMARK  status: ('A' for Active; 'I' for Inactive)
REMARK    1  A    between atoms: C_1  and  C_11
REMARK    2  A    between atoms: C_1  and  O_17
REMARK    3  A    between atoms: C_9  and  O_16
REMARK    4  A    between atoms: O_17  and  C_18
REMARK                            x       y       z     vdW  Elec       q    Type
REMARK                         _______ _______ _______ _____ _____    ______ ____
ROOT
ATOM      1  C   UNL     1      51.605 155.746  28.707  0.00  0.00    +0.180 C 
ATOM      2  C   UNL     1      52.649 156.614  29.381  0.00  0.00    +0.047 C 
ATOM      3  C   UNL     1      54.028 156.072  29.291  0.00  0.00    +0.009 C 
ATOM      4  C   UNL     1      54.157 154.760  28.593  0.00  0.00    +0.026 C 
ATOM      5  C   UNL     1      53.400 154.815  27.332  0.00  0.00    -0.020 C 
ATOM      6  C   UNL     1      52.109 155.312  27.384  0.00  0.00    +0.012 C 
ATOM      7  C   UNL     1      51.341 155.394  26.251  0.00  0.00    +0.002 C 
ATOM      8  C   UNL     1      51.874 154.973  25.052  0.00  0.00    +0.036 C 
ATOM      9  C   UNL     1      53.170 154.475  25.002  0.00  0.00    +0.133 C 
ATOM     10  C   UNL     1      53.942 154.392  26.143  0.00  0.00    +0.032 C 
ENDROOT
BRANCH   1  11
ATOM     11  C   UNL     1      50.355 156.587  28.607  0.00  0.00    +0.161 C 
ATOM     12  N   UNL     1      49.360 156.040  29.538  0.00  0.00    -0.204 NA
ATOM     13  C   UNL     1      48.352 157.059  29.707  0.00  0.00    +0.101 C 
ATOM     14  C   UNL     1      49.049 158.261  30.353  0.00  0.00    +0.078 C 
ATOM     15  S   UNL     1      50.626 158.223  29.404  0.00  0.00    -0.118 S 
ENDBRANCH   1  11
BRANCH   9  16
ATOM     16  O   UNL     1      53.717 154.047  23.798  0.00  0.00    -0.506 OA
ATOM     17  H   UNL     1      53.211 154.094  23.011  0.00  0.00    +0.292 HD
ENDBRANCH   9  16
BRANCH   1  18
ATOM     18  O   UNL     1      51.298 154.626  29.512  0.00  0.00    -0.436 OA
BRANCH  18  19
ATOM     19  C   UNL     1      51.247 153.339  29.067  0.00  0.00    +0.399 C 
ATOM     20  O   UNL     1      51.458 153.112  27.847  0.00  0.00    -0.227 OA
ATOM     21  N   UNL     1      50.966 152.228  29.920  0.00  0.00    -0.295 N 
ATOM     22  H   UNL     1      50.797 152.374  30.879  0.00  0.00    +0.148 HD
ATOM     23  H   UNL     1      50.942 151.316  29.549  0.00  0.00    +0.148 HD
ENDBRANCH  18  19
ENDBRANCH   1  18
TORSDOF 4
