REMARK  Name = =
REMARK  3 active torsions:
REMARK  status: ('A' for Active; 'I' for Inactive)
REMARK    1  A    between atoms: C_8  and  N_24
REMARK    2  A    between atoms: C_11  and  C_15
REMARK    3  A    between atoms: N_24  and  N_25
REMARK                            x       y       z     vdW  Elec       q    Type
REMARK                         _______ _______ _______ _____ _____    ______ ____
ROOT
ATOM      1  N   UNL     1      50.505 156.746  30.748  0.00  0.00    -0.245 NA
ATOM      2  C   UNL     1      50.953 155.793  29.909  0.00  0.00    +0.081 C 
ATOM      3  C   UNL     1      51.645 156.156  28.760  0.00  0.00    +0.021 C 
ATOM      4  C   UNL     1      51.832 157.499  28.538  0.00  0.00    +0.003 C 
ATOM      5  C   UNL     1      51.361 158.479  29.417  0.00  0.00    +0.018 C 
ATOM      6  C   UNL     1      50.684 158.061  30.544  0.00  0.00    +0.083 C 
ATOM      7  C   UNL     1      50.236 159.034  31.393  0.00  0.00    +0.035 C 
ATOM      8  C   UNL     1      50.424 160.383  31.178  0.00  0.00    +0.063 C 
ATOM      9  C   UNL     1      51.107 160.764  30.037  0.00  0.00    +0.016 C 
ATOM     10  C   UNL     1      51.572 159.820  29.165  0.00  0.00    +0.003 C 
ATOM     11  C   UNL     1      52.097 155.253  27.852  0.00  0.00    +0.036 C 
ATOM     12  C   UNL     1      51.803 153.903  28.158  0.00  0.00    +0.003 C 
ATOM     13  C   UNL     1      51.132 153.506  29.263  0.00  0.00    +0.002 C 
ATOM     14  C   UNL     1      50.691 154.442  30.168  0.00  0.00    +0.019 C 
ENDROOT
BRANCH  11  15
ATOM     15  C   UNL     1      52.949 155.501  26.718  0.00  0.00    +0.145 C 
ATOM     16  O   UNL     1      53.346 154.530  25.877  0.00  0.00    -0.453 OA
ATOM     17  C   UNL     1      54.117 155.013  24.944  0.00  0.00    +0.145 C 
ATOM     18  C   UNL     1      54.280 156.367  25.115  0.00  0.00    +0.038 C 
ATOM     19  C   UNL     1      53.514 156.641  26.267  0.00  0.00    +0.041 C 
ATOM     20  C   UNL     1      55.045 157.129  24.274  0.00  0.00    +0.003 C 
ATOM     21  C   UNL     1      55.673 156.500  23.214  0.00  0.00    +0.000 C 
ATOM     22  C   UNL     1      55.538 155.135  22.999  0.00  0.00    +0.003 C 
ATOM     23  C   UNL     1      54.757 154.409  23.872  0.00  0.00    +0.037 C 
ENDBRANCH  11  15
BRANCH   8  24
ATOM     24  N   UNL     1      49.936 161.366  32.096  0.00  0.00    -0.263 N 
ATOM     25  H   UNL     1      50.030 162.329  31.913  0.00  0.00    +0.170 HD
BRANCH  24  26
ATOM     26  N   UNL     1      49.322 160.906  33.260  0.00  0.00    -0.229 N 
ATOM     27  C   UNL     1      48.106 161.486  33.664  0.00  0.00    +0.316 C 
ATOM     28  O   UNL     1      47.614 162.406  32.962  0.00  0.00    -0.264 OA
ATOM     29  H   UNL     1      49.733 160.186  33.791  0.00  0.00    +0.173 HD
ENDBRANCH  24  26
ENDBRANCH   8  24
TORSDOF 3
