REMARK  Name = =
REMARK  6 active torsions:
REMARK  status: ('A' for Active; 'I' for Inactive)
REMARK    1  A    between atoms: C_1  and  C_11
REMARK    2  A    between atoms: C_1  and  O_24
REMARK    3  A    between atoms: C_9  and  O_23
REMARK    4  A    between atoms: C_11  and  O_16
REMARK    5  A    between atoms: O_16  and  C_17
REMARK    6  A    between atoms: O_24  and  C_25
REMARK                            x       y       z     vdW  Elec       q    Type
REMARK                         _______ _______ _______ _____ _____    ______ ____
ROOT
ATOM      1  C   UNL     1      54.335 153.491  26.822  0.00  0.00    +0.218 C 
ATOM      2  C   UNL     1      53.967 153.898  28.241  0.00  0.00    +0.051 C 
ATOM      3  C   UNL     1      52.942 154.912  28.425  0.00  0.00    +0.009 C 
ATOM      4  C   UNL     1      52.611 155.876  27.388  0.00  0.00    +0.026 C 
ATOM      5  C   UNL     1      53.568 155.760  26.228  0.00  0.00    -0.020 C 
ATOM      6  C   UNL     1      54.370 154.679  25.989  0.00  0.00    +0.016 C 
ATOM      7  C   UNL     1      55.222 154.762  24.908  0.00  0.00    +0.002 C 
ATOM      8  C   UNL     1      55.285 155.890  24.071  0.00  0.00    +0.036 C 
ATOM      9  C   UNL     1      54.487 156.965  24.307  0.00  0.00    +0.133 C 
ATOM     10  C   UNL     1      53.641 156.885  25.382  0.00  0.00    +0.032 C 
ENDROOT
BRANCH   1  11
ATOM     11  C   UNL     1      53.285 152.424  26.453  0.00  0.00    +0.297 C 
ATOM     12  N   UNL     1      52.247 152.367  27.372  0.00  0.00    -0.227 NA
ATOM     13  C   UNL     1      50.960 152.676  27.036  0.00  0.00    +0.083 C 
ATOM     14  C   UNL     1      50.719 153.034  25.623  0.00  0.00    +0.109 C 
ATOM     15  S   UNL     1      52.383 153.004  24.941  0.00  0.00    -0.069 S 
BRANCH  11  16
ATOM     16  O   UNL     1      53.873 151.213  26.185  0.00  0.00    -0.449 OA
BRANCH  16  17
ATOM     17  C   UNL     1      53.483 150.035  25.660  0.00  0.00    +0.161 C 
ATOM     18  C   UNL     1      52.246 149.493  26.070  0.00  0.00    +0.136 C 
ATOM     19  N   UNL     1      51.771 148.349  25.620  0.00  0.00    -0.239 NA
ATOM     20  C   UNL     1      52.440 147.596  24.718  0.00  0.00    +0.099 C 
ATOM     21  C   UNL     1      53.659 148.060  24.267  0.00  0.00    +0.024 C 
ATOM     22  C   UNL     1      54.154 149.259  24.742  0.00  0.00    +0.040 C 
ENDBRANCH  16  17
ENDBRANCH  11  16
ENDBRANCH   1  11
BRANCH   9  23
ATOM     23  O   UNL     1      54.524 158.095  23.499  0.00  0.00    -0.506 OA
ATOM     24  H   UNL     1      55.110 158.130  22.769  0.00  0.00    +0.292 HD
ENDBRANCH   9  23
BRANCH   1  25
ATOM     25  O   UNL     1      55.549 152.822  26.969  0.00  0.00    -0.431 OA
BRANCH  25  26
ATOM     26  C   UNL     1      56.361 152.299  26.040  0.00  0.00    +0.399 C 
ATOM     27  O   UNL     1      57.590 152.109  26.172  0.00  0.00    -0.227 OA
ATOM     28  N   UNL     1      55.866 151.884  24.730  0.00  0.00    -0.295 N 
ATOM     29  H   UNL     1      56.486 151.503  24.067  0.00  0.00    +0.148 HD
ATOM     30  H   UNL     1      54.912 151.985  24.510  0.00  0.00    +0.148 HD
ENDBRANCH  25  26
ENDBRANCH   1  25
TORSDOF 6
