REMARK  Name = =
REMARK  7 active torsions:
REMARK  status: ('A' for Active; 'I' for Inactive)
REMARK    1  A    between atoms: C_1  and  C_6
REMARK    2  A    between atoms: C_1  and  O_21
REMARK    3  A    between atoms: C_6  and  O_17
REMARK    4  A    between atoms: C_14  and  O_16
REMARK    5  A    between atoms: O_17  and  C_18
REMARK    6  A    between atoms: O_21  and  C_22
REMARK    7  A    between atoms: C_26  and  C_28
REMARK                            x       y       z     vdW  Elec       q    Type
REMARK                         _______ _______ _______ _____ _____    ______ ____
ROOT
ATOM      1  C   UNL     1      53.435 154.294  27.018  0.00  0.00    +0.272 C 
ATOM      2  N   UNL     1      53.216 153.549  28.177  0.00  0.00    -0.171 NA
ATOM      3  C   UNL     1      52.059 152.801  28.275  0.00  0.00    +0.105 C 
ATOM      4  C   UNL     1      51.460 152.426  26.965  0.00  0.00    +0.081 C 
ATOM      5  S   UNL     1      51.981 153.869  25.954  0.00  0.00    -0.080 S 
ENDROOT
BRANCH   1   6
ATOM      6  C   UNL     1      54.697 153.742  26.294  0.00  0.00    +0.213 C 
ATOM      7  C   UNL     1      55.185 154.774  25.313  0.00  0.00    +0.051 C 
ATOM      8  C   UNL     1      55.581 154.244  23.966  0.00  0.00    +0.009 C 
ATOM      9  C   UNL     1      54.393 153.540  23.333  0.00  0.00    +0.026 C 
ATOM     10  C   UNL     1      54.146 152.374  24.214  0.00  0.00    -0.020 C 
ATOM     11  C   UNL     1      54.314 152.517  25.558  0.00  0.00    +0.016 C 
ATOM     12  C   UNL     1      54.097 151.378  26.336  0.00  0.00    +0.002 C 
ATOM     13  C   UNL     1      53.731 150.163  25.808  0.00  0.00    +0.036 C 
ATOM     14  C   UNL     1      53.566 150.039  24.461  0.00  0.00    +0.133 C 
ATOM     15  C   UNL     1      53.780 151.165  23.676  0.00  0.00    +0.032 C 
BRANCH  14  16
ATOM     16  O   UNL     1      53.193 148.813  23.888  0.00  0.00    -0.506 OA
ATOM     17  H   UNL     1      53.053 148.064  24.434  0.00  0.00    +0.292 HD
ENDBRANCH  14  16
BRANCH   6  18
ATOM     18  O   UNL     1      55.679 153.319  27.182  0.00  0.00    -0.432 OA
BRANCH  18  19
ATOM     19  C   UNL     1      56.880 152.738  26.926  0.00  0.00    +0.399 C 
ATOM     20  O   UNL     1      57.356 152.885  25.788  0.00  0.00    -0.227 OA
ATOM     21  N   UNL     1      57.573 151.982  27.937  0.00  0.00    -0.295 N 
ATOM     22  H   UNL     1      57.177 151.878  28.832  0.00  0.00    +0.148 HD
ATOM     23  H   UNL     1      58.443 151.569  27.733  0.00  0.00    +0.148 HD
ENDBRANCH  18  19
ENDBRANCH   6  18
ENDBRANCH   1   6
BRANCH   1  24
ATOM     24  O   UNL     1      53.471 155.662  27.075  0.00  0.00    -0.453 OA
BRANCH  24  25
ATOM     25  C   UNL     1      53.011 156.574  27.978  0.00  0.00    +0.160 C 
ATOM     26  C   UNL     1      53.806 157.678  28.343  0.00  0.00    +0.136 C 
ATOM     27  N   UNL     1      53.406 158.600  29.219  0.00  0.00    -0.239 NA
ATOM     28  C   UNL     1      52.210 158.551  29.824  0.00  0.00    +0.096 C 
ATOM     29  C   UNL     1      51.387 157.493  29.505  0.00  0.00    +0.016 C 
ATOM     30  C   UNL     1      51.780 156.520  28.597  0.00  0.00    +0.037 C 
BRANCH  29  31
ATOM     31  C   UNL     1      50.056 157.398  30.148  0.00  0.00    +0.095 C 
ATOM     32  N   UNL     1      49.938 158.307  31.269  0.00  0.00    -0.280 NA
ATOM     33  C   UNL     1      48.542 158.686  31.331  0.00  0.00    +0.143 C 
ATOM     34  N   UNL     1      47.987 158.485  30.028  0.00  0.00    -0.282 NA
ATOM     35  C   UNL     1      49.039 157.967  29.179  0.00  0.00    +0.090 C 
ATOM     36  H   UNL     1      50.522 159.130  31.121  0.00  0.00    +0.125 HD
ATOM     37  H   UNL     1      47.644 159.371  29.656  0.00  0.00    +0.125 HD
ENDBRANCH  29  31
ENDBRANCH  24  25
ENDBRANCH   1  24
TORSDOF 7
