REMARK  Name = =
REMARK  9 active torsions:
REMARK  status: ('A' for Active; 'I' for Inactive)
REMARK    1  A    between atoms: O_1  and  C_2
REMARK    2  A    between atoms: O_1  and  C_21
REMARK    3  A    between atoms: C_6  and  C_8
REMARK    4  A    between atoms: C_12  and  C_13
REMARK    5  A    between atoms: C_16  and  O_20
REMARK    6  A    between atoms: C_21  and  C_26
REMARK    7  A    between atoms: C_26  and  O_37
REMARK    8  A    between atoms: C_34  and  O_36
REMARK    9  A    between atoms: O_37  and  C_38
REMARK                            x       y       z     vdW  Elec       q    Type
REMARK                         _______ _______ _______ _____ _____    ______ ____
ROOT
ATOM      1  O   UNL     1      53.025 153.551  28.371  0.00  0.00    -0.453 OA
ENDROOT
BRANCH   1   2
ATOM      2  C   UNL     1      52.038 154.433  28.668  0.00  0.00    +0.160 C 
ATOM      3  C   UNL     1      50.682 154.235  28.519  0.00  0.00    +0.136 C 
ATOM      4  N   UNL     1      49.756 155.128  28.825  0.00  0.00    -0.239 NA
ATOM      5  C   UNL     1      50.083 156.338  29.322  0.00  0.00    +0.096 C 
ATOM      6  C   UNL     1      51.416 156.619  29.503  0.00  0.00    +0.016 C 
ATOM      7  C   UNL     1      52.396 155.681  29.181  0.00  0.00    +0.037 C 
BRANCH   6   8
ATOM      8  C   UNL     1      51.792 157.948  30.043  0.00  0.00    +0.098 C 
ATOM      9  N   UNL     1      53.088 158.374  29.527  0.00  0.00    -0.280 NA
ATOM     10  C   UNL     1      53.057 159.810  29.847  0.00  0.00    +0.143 C 
ATOM     11  N   UNL     1      51.725 160.234  29.536  0.00  0.00    -0.280 NA
ATOM     12  C   UNL     1      50.881 159.036  29.610  0.00  0.00    +0.099 C 
ATOM     13  H   UNL     1      53.855 157.900  30.003  0.00  0.00    +0.125 HD
ATOM     14  H   UNL     1      51.410 160.930  30.212  0.00  0.00    +0.125 HD
BRANCH  12  15
ATOM     15  C   UNL     1      49.743 159.319  30.501  0.00  0.00    +0.021 C 
ATOM     16  C   UNL     1      48.442 159.117  30.022  0.00  0.00    +0.140 C 
ATOM     17  C   UNL     1      47.327 159.357  30.781  0.00  0.00    +0.066 C 
ATOM     18  C   UNL     1      47.445 159.810  32.057  0.00  0.00    +0.136 C 
ATOM     19  C   UNL     1      48.690 160.024  32.572  0.00  0.00    +0.036 C 
ATOM     20  C   UNL     1      49.821 159.778  31.792  0.00  0.00    +0.002 C 
ATOM     21  F   UNL     1      48.246 158.665  28.754  0.00  0.00    -0.204 F 
BRANCH  18  22
ATOM     22  O   UNL     1      46.309 160.055  32.831  0.00  0.00    -0.505 OA
ATOM     23  H   UNL     1      45.456 159.906  32.472  0.00  0.00    +0.292 HD
ENDBRANCH  18  22
ENDBRANCH  12  15
ENDBRANCH   6   8
ENDBRANCH   1   2
BRANCH   1  24
ATOM     24  C   UNL     1      53.155 152.714  27.290  0.00  0.00    +0.272 C 
ATOM     25  N   UNL     1      53.023 151.311  27.589  0.00  0.00    -0.171 NA
ATOM     26  C   UNL     1      51.677 150.890  27.517  0.00  0.00    +0.105 C 
ATOM     27  C   UNL     1      51.112 151.304  26.150  0.00  0.00    +0.081 C 
ATOM     28  S   UNL     1      51.705 153.039  26.195  0.00  0.00    -0.080 S 
BRANCH  24  29
ATOM     29  C   UNL     1      54.349 152.870  26.425  0.00  0.00    +0.213 C 
ATOM     30  C   UNL     1      55.654 152.838  27.244  0.00  0.00    +0.051 C 
ATOM     31  C   UNL     1      56.773 152.594  26.270  0.00  0.00    +0.009 C 
ATOM     32  C   UNL     1      56.768 153.495  25.086  0.00  0.00    +0.026 C 
ATOM     33  C   UNL     1      55.603 154.418  25.051  0.00  0.00    -0.020 C 
ATOM     34  C   UNL     1      54.412 154.154  25.686  0.00  0.00    +0.016 C 
ATOM     35  C   UNL     1      53.348 155.019  25.643  0.00  0.00    +0.002 C 
ATOM     36  C   UNL     1      53.506 156.190  24.929  0.00  0.00    +0.036 C 
ATOM     37  C   UNL     1      54.694 156.483  24.279  0.00  0.00    +0.133 C 
ATOM     38  C   UNL     1      55.755 155.599  24.334  0.00  0.00    +0.032 C 
BRANCH  37  39
ATOM     39  O   UNL     1      54.884 157.653  23.551  0.00  0.00    -0.506 OA
ATOM     40  H   UNL     1      55.704 157.813  23.126  0.00  0.00    +0.292 HD
ENDBRANCH  37  39
BRANCH  29  41
ATOM     41  O   UNL     1      54.519 151.862  25.468  0.00  0.00    -0.432 OA
BRANCH  41  42
ATOM     42  C   UNL     1      53.898 151.722  24.269  0.00  0.00    +0.399 C 
ATOM     43  O   UNL     1      53.643 152.742  23.582  0.00  0.00    -0.227 OA
ATOM     44  N   UNL     1      53.564 150.409  23.845  0.00  0.00    -0.295 N 
ATOM     45  H   UNL     1      53.783 149.637  24.415  0.00  0.00    +0.148 HD
ATOM     46  H   UNL     1      53.114 150.270  22.980  0.00  0.00    +0.148 HD
ENDBRANCH  41  42
ENDBRANCH  29  41
ENDBRANCH  24  29
ENDBRANCH   1  24
TORSDOF 9
