MODEL 1
REMARK VINA RESULT:    -9.037      0.000      0.000
REMARK INTER + INTRA:         -14.397
REMARK INTER:                 -12.471
REMARK INTRA:                  -1.926
REMARK UNBOUND:                -1.926
REMARK  Name = =
REMARK  8 active torsions:
REMARK  status: ('A' for Active; 'I' for Inactive)
REMARK    1  A    between atoms: C_1  and  C_24
REMARK    2  A    between atoms: C_2  and  S_30
REMARK    3  A    between atoms: C_20  and  N_28
REMARK    4  A    between atoms: C_22  and  O_29
REMARK    5  A    between atoms: C_23  and  C_25
REMARK    6  A    between atoms: S_30  and  C_31
REMARK    7  A    between atoms: C_31  and  O_41
REMARK    8  A    between atoms: S_32  and  C_33
REMARK                            x       y       z     vdW  Elec       q    Type
REMARK                         _______ _______ _______ _____ _____    ______ ____
ROOT
ATOM      1  C   UNL     1       1.126  -4.665  30.065  0.00  0.00    +0.034 C 
ATOM      2  C   UNL     1       1.845  -5.027  28.796  0.00  0.00    +0.059 C 
ATOM      3  C   UNL     1       2.867  -3.933  28.400  0.00  0.00    +0.011 C 
ATOM      4  C   UNL     1       2.932  -3.978  26.895  0.00  0.00    +0.001 C 
ATOM      5  C   UNL     1       2.683  -2.771  26.136  0.00  0.00    +0.005 C 
ATOM      6  C   UNL     1       3.588  -2.463  25.020  0.00  0.00    +0.057 C 
ATOM      7  C   UNL     1       3.313  -1.270  24.207  0.00  0.00    +0.118 C 
ATOM      8  O   UNL     1       4.526  -0.679  24.606  0.00  0.00    -0.356 OA
ATOM      9  C   UNL     1       4.919  -1.817  25.320  0.00  0.00    +0.144 C 
ATOM     10  C   UNL     1       2.162  -0.418  24.564  0.00  0.00    +0.030 C 
ATOM     11  C   UNL     1       1.873  -0.445  26.031  0.00  0.00    +0.002 C 
ATOM     12  C   UNL     1       1.630  -1.841  26.452  0.00  0.00    +0.000 C 
ATOM     13  C   UNL     1       0.237  -2.270  26.609  0.00  0.00    +0.000 C 
ATOM     14  C   UNL     1      -0.153  -1.957  28.077  0.00  0.00    +0.000 C 
ATOM     15  C   UNL     1       0.909  -2.615  28.874  0.00  0.00    +0.000 C 
ATOM     16  C   UNL     1       0.294  -3.439  29.757  0.00  0.00    +0.005 C 
ATOM     17  C   UNL     1       2.397  -2.623  28.942  0.00  0.00    +0.001 C 
ENDROOT
BRANCH   1  24
ATOM     18 CL   UNL     1       2.552  -5.593  32.506  0.00  0.00    -0.081 Cl
ATOM     19  C   UNL     1       1.100  -6.296  31.868  0.00  0.00    +0.067 C 
ATOM     20  C   UNL     1       0.586  -7.375  32.562  0.00  0.00    +0.055 C 
ATOM     21  C   UNL     1      -0.580  -7.936  32.161  0.00  0.00    +0.052 C 
ATOM     22  C   UNL     1      -1.241  -7.436  31.073  0.00  0.00    +0.139 C 
ATOM     23  C   UNL     1      -0.709  -6.338  30.370  0.00  0.00    +0.084 C 
ATOM     24  C   UNL     1       0.463  -5.740  30.745  0.00  0.00    -0.003 C 
BRANCH  23  25
ATOM     25  C   UNL     1      -1.444  -5.957  29.184  0.00  0.00    +0.245 C 
ATOM     26  O   UNL     1      -1.108  -6.298  28.026  0.00  0.00    -0.270 OA
ATOM     27  N   UNL     1      -2.630  -5.141  29.327  0.00  0.00    -0.325 N 
ATOM     28  H   UNL     1      -2.924  -4.853  30.222  0.00  0.00    +0.145 HD
ATOM     29  H   UNL     1      -3.142  -4.872  28.530  0.00  0.00    +0.145 HD
ENDBRANCH  23  25
BRANCH  20  30
ATOM     30  N   UNL     1       1.289  -7.895  33.692  0.00  0.00    -0.356 N 
ATOM     31  H   UNL     1       2.254  -8.080  33.630  0.00  0.00    +0.142 HD
ATOM     32  H   UNL     1       0.807  -8.068  34.534  0.00  0.00    +0.142 HD
ENDBRANCH  20  30
BRANCH  22  33
ATOM     33  O   UNL     1      -2.425  -8.031  30.698  0.00  0.00    -0.505 OA
ATOM     34  H   UNL     1      -2.765  -7.895  29.836  0.00  0.00    +0.292 HD
ENDBRANCH  22  33
ENDBRANCH   1  24
BRANCH   2  35
ATOM     35  S   UNL     1       2.396  -6.620  28.431  0.00  0.00    -0.072 S 
BRANCH  35  36
ATOM     36  C   UNL     1       2.207  -7.395  26.905  0.00  0.00    +0.180 C 
ATOM     37  S   UNL     1       3.468  -8.225  26.267  0.00  0.00    -0.118 S 
ATOM     38  H   UNL     1       3.715  -7.648  25.060  0.00  0.00    +0.105 HD
BRANCH  37  39
ATOM     39  C   UNL     1       5.059  -8.390  27.060  0.00  0.00    +0.047 C 
ATOM     40  C   UNL     1       5.930  -7.311  27.052  0.00  0.00    +0.146 C 
ATOM     41  C   UNL     1       7.181  -7.358  27.632  0.00  0.00    +0.037 C 
ATOM     42  C   UNL     1       7.638  -8.524  28.270  0.00  0.00    +0.037 C 
ATOM     43  C   UNL     1       6.766  -9.578  28.268  0.00  0.00    +0.007 C 
ATOM     44  C   UNL     1       5.500  -9.545  27.687  0.00  0.00    +0.008 C 
ATOM     45 BR   UNL     1       9.369  -8.566  29.067  0.00  0.00    -0.049 Br
ATOM     46  F   UNL     1       5.517  -6.168  26.434  0.00  0.00    -0.204 F 
ENDBRANCH  37  39
BRANCH  36  47
ATOM     47  O   UNL     1       1.052  -7.377  26.164  0.00  0.00    -0.497 OA
ATOM     48  H   UNL     1       1.090  -7.217  25.241  0.00  0.00    +0.293 HD
ENDBRANCH  36  47
ENDBRANCH  35  36
ENDBRANCH   2  35
TORSDOF 8
ENDMDL
