REMARK  Name = =
REMARK  0 active torsions:
REMARK  status: ('A' for Active; 'I' for Inactive)
REMARK                            x       y       z     vdW  Elec       q    Type
REMARK                         _______ _______ _______ _____ _____    ______ ____
ROOT
ATOM      1  C   UNL     1      -4.181  -3.646  30.194  0.00  0.00    +0.103 C 
ATOM      2  N   UNL     1      -3.726  -4.994  29.844  0.00  0.00    -0.270 NA
ATOM      3  C   UNL     1      -2.395  -4.957  30.458  0.00  0.00    +0.216 C 
ATOM      4  O   UNL     1      -1.856  -3.734  30.026  0.00  0.00    -0.336 OA
ATOM      5  C   UNL     1      -2.895  -2.836  30.115  0.00  0.00    +0.161 C 
ATOM      6  H   UNL     1      -3.677  -5.131  28.834  0.00  0.00    +0.126 HD
ENDROOT
TORSDOF 0
