REMARK  Name = =
REMARK  2 active torsions:
REMARK  status: ('A' for Active; 'I' for Inactive)
REMARK    1  A    between atoms: C_1  and  C_11
REMARK    2  A    between atoms: C_4  and  N_12
REMARK                            x       y       z     vdW  Elec       q    Type
REMARK                         _______ _______ _______ _____ _____    ______ ____
ROOT
ATOM      1  C   UNL     1      -5.271  -2.745  32.249  0.00  0.00    +0.006 C 
ATOM      2  C   UNL     1      -5.364  -3.600  33.315  0.00  0.00    -0.001 C 
ATOM      3  C   UNL     1      -4.713  -4.840  33.269  0.00  0.00    +0.014 C 
ATOM      4  C   UNL     1      -3.986  -5.221  32.195  0.00  0.00    +0.048 C 
ATOM      5  C   UNL     1      -3.891  -4.363  31.123  0.00  0.00    +0.014 C 
ATOM      6  C   UNL     1      -4.535  -3.123  31.153  0.00  0.00    -0.001 C 
ENDROOT
BRANCH   1  11
ATOM      7  C   UNL     1      -5.216  -0.372  31.507  0.00  0.00    +0.105 C 
ATOM      8  N   UNL     1      -6.279   0.625  31.401  0.00  0.00    -0.270 NA
ATOM      9  C   UNL     1      -7.507  -0.092  31.703  0.00  0.00    +0.217 C 
ATOM     10  O   UNL     1      -7.184  -1.457  31.613  0.00  0.00    -0.334 OA
ATOM     11  C   UNL     1      -5.941  -1.457  32.283  0.00  0.00    +0.155 C 
ATOM     12  H   UNL     1      -6.314   1.012  30.458  0.00  0.00    +0.126 HD
ENDBRANCH   1  11
BRANCH   4  13
ATOM     13  N   UNL     1      -3.330  -6.506  32.190  0.00  0.00    -0.305 N 
ATOM     14  C   UNL     1      -3.888  -7.582  31.389  0.00  0.00    +0.110 C 
ATOM     15  C   UNL     1      -2.888  -8.698  31.226  0.00  0.00    +0.110 C 
ATOM     16  N   UNL     1      -2.271  -9.037  32.496  0.00  0.00    -0.214 NA
ATOM     17  C   UNL     1      -1.419  -7.942  32.846  0.00  0.00    +0.110 C 
ATOM     18  C   UNL     1      -2.148  -6.649  32.985  0.00  0.00    +0.110 C 
ENDBRANCH   4  13
TORSDOF 2
