REMARK  Name = =
REMARK  5 active torsions:
REMARK  status: ('A' for Active; 'I' for Inactive)
REMARK    1  A    between atoms: C_1  and  C_11
REMARK    2  A    between atoms: C_2  and  N_18
REMARK    3  A    between atoms: C_4  and  N_12
REMARK    4  A    between atoms: N_18  and  C_21
REMARK    5  A    between atoms: C_24  and  O_27
REMARK                            x       y       z     vdW  Elec       q    Type
REMARK                         _______ _______ _______ _____ _____    ______ ____
ROOT
ATOM      1  C   UNL     1      -4.043  -3.174  31.844  0.00  0.00    +0.020 C 
ATOM      2  C   UNL     1      -3.099  -3.885  31.103  0.00  0.00    +0.058 C 
ATOM      3  C   UNL     1      -2.574  -5.066  31.550  0.00  0.00    +0.030 C 
ATOM      4  C   UNL     1      -2.947  -5.640  32.768  0.00  0.00    +0.049 C 
ATOM      5  C   UNL     1      -3.880  -4.954  33.516  0.00  0.00    +0.014 C 
ATOM      6  C   UNL     1      -4.399  -3.753  33.044  0.00  0.00    +0.001 C 
ENDROOT
BRANCH   1  11
ATOM      7  C   UNL     1      -5.665  -1.571  30.691  0.00  0.00    +0.105 C 
ATOM      8  N   UNL     1      -6.710  -1.960  31.615  0.00  0.00    -0.270 NA
ATOM      9  C   UNL     1      -6.190  -1.206  32.773  0.00  0.00    +0.217 C 
ATOM     10  O   UNL     1      -4.831  -1.233  32.717  0.00  0.00    -0.334 OA
ATOM     11  C   UNL     1      -4.408  -1.840  31.420  0.00  0.00    +0.156 C 
ATOM     12  H   UNL     1      -6.734  -2.966  31.780  0.00  0.00    +0.126 HD
ENDBRANCH   1  11
BRANCH   4  13
ATOM     13  N   UNL     1      -2.389  -6.871  33.172  0.00  0.00    -0.305 N 
ATOM     14  C   UNL     1      -1.176  -7.361  32.575  0.00  0.00    +0.110 C 
ATOM     15  C   UNL     1      -0.954  -8.809  32.741  0.00  0.00    +0.110 C 
ATOM     16  N   UNL     1      -1.942  -9.568  33.392  0.00  0.00    -0.214 NA
ATOM     17  C   UNL     1      -3.237  -9.016  33.537  0.00  0.00    +0.110 C 
ATOM     18  C   UNL     1      -3.032  -7.651  34.210  0.00  0.00    +0.110 C 
ENDBRANCH   4  13
BRANCH   2  19
ATOM     19  N   UNL     1      -2.750  -3.449  29.821  0.00  0.00    -0.230 N 
ATOM     20  C   UNL     1      -3.678  -3.727  28.769  0.00  0.00    +0.311 C 
ATOM     21  O   UNL     1      -4.752  -4.317  28.925  0.00  0.00    -0.264 OA
BRANCH  19  22
ATOM     22  C   UNL     1      -1.528  -2.838  29.496  0.00  0.00    +0.059 C 
ATOM     23  C   UNL     1      -0.322  -3.473  29.867  0.00  0.00    +0.018 C 
ATOM     24  C   UNL     1       0.900  -2.926  29.573  0.00  0.00    +0.038 C 
ATOM     25  C   UNL     1       1.035  -1.738  28.902  0.00  0.00    +0.134 C 
ATOM     26  C   UNL     1      -0.155  -1.121  28.543  0.00  0.00    +0.038 C 
ATOM     27  C   UNL     1      -1.393  -1.653  28.831  0.00  0.00    +0.018 C 
BRANCH  25  28
ATOM     28  O   UNL     1       2.265  -1.144  28.576  0.00  0.00    -0.506 OA
ATOM     29  H   UNL     1       3.067  -1.563  28.820  0.00  0.00    +0.292 HD
ENDBRANCH  25  28
ENDBRANCH  19  22
ENDBRANCH   2  19
TORSDOF 5
