REMARK  Name = =
REMARK  6 active torsions:
REMARK  status: ('A' for Active; 'I' for Inactive)
REMARK    1  A    between atoms: C_1  and  C_11
REMARK    2  A    between atoms: C_2  and  N_18
REMARK    3  A    between atoms: C_4  and  N_12
REMARK    4  A    between atoms: N_18  and  C_21
REMARK    5  A    between atoms: C_23  and  N_27
REMARK    6  A    between atoms: C_24  and  O_33
REMARK                            x       y       z     vdW  Elec       q    Type
REMARK                         _______ _______ _______ _____ _____    ______ ____
ROOT
ATOM      1  C   UNL     1      -4.326  -2.653  30.477  0.00  0.00    +0.020 C 
ATOM      2  C   UNL     1      -3.663  -3.810  30.111  0.00  0.00    +0.058 C 
ATOM      3  C   UNL     1      -2.484  -3.661  29.416  0.00  0.00    +0.030 C 
ATOM      4  C   UNL     1      -1.973  -2.393  29.090  0.00  0.00    +0.049 C 
ATOM      5  C   UNL     1      -2.665  -1.270  29.475  0.00  0.00    +0.014 C 
ATOM      6  C   UNL     1      -3.839  -1.411  30.167  0.00  0.00    +0.001 C 
ENDROOT
BRANCH   1  11
ATOM      7  C   UNL     1      -6.342  -1.465  31.259  0.00  0.00    +0.105 C 
ATOM      8  N   UNL     1      -7.226  -1.768  32.400  0.00  0.00    -0.270 NA
ATOM      9  C   UNL     1      -6.283  -2.426  33.289  0.00  0.00    +0.217 C 
ATOM     10  O   UNL     1      -5.401  -3.143  32.509  0.00  0.00    -0.334 OA
ATOM     11  C   UNL     1      -5.587  -2.799  31.202  0.00  0.00    +0.156 C 
ATOM     12  H   UNL     1      -7.989  -2.389  32.132  0.00  0.00    +0.126 HD
ENDBRANCH   1  11
BRANCH   4  13
ATOM     13  N   UNL     1      -0.780  -2.257  28.350  0.00  0.00    -0.305 N 
ATOM     14  C   UNL     1      -0.399  -3.249  27.370  0.00  0.00    +0.110 C 
ATOM     15  C   UNL     1       0.433  -2.580  26.268  0.00  0.00    +0.110 C 
ATOM     16  N   UNL     1      -0.021  -1.199  26.136  0.00  0.00    -0.214 NA
ATOM     17  C   UNL     1       0.473  -0.446  27.283  0.00  0.00    +0.110 C 
ATOM     18  C   UNL     1       0.086  -1.130  28.581  0.00  0.00    +0.110 C 
ENDBRANCH   4  13
BRANCH   2  19
ATOM     19  N   UNL     1      -4.109  -5.125  30.412  0.00  0.00    -0.230 N 
ATOM     20  C   UNL     1      -5.079  -5.820  29.711  0.00  0.00    +0.311 C 
ATOM     21  O   UNL     1      -5.486  -6.963  29.962  0.00  0.00    -0.264 OA
BRANCH  19  22
ATOM     22  C   UNL     1      -3.510  -5.778  31.526  0.00  0.00    +0.060 C 
ATOM     23  C   UNL     1      -2.165  -6.022  31.653  0.00  0.00    +0.033 C 
ATOM     24  C   UNL     1      -1.609  -6.675  32.765  0.00  0.00    +0.083 C 
ATOM     25  C   UNL     1      -2.454  -7.092  33.778  0.00  0.00    +0.147 C 
ATOM     26  C   UNL     1      -3.820  -6.858  33.676  0.00  0.00    +0.039 C 
ATOM     27  C   UNL     1      -4.315  -6.215  32.571  0.00  0.00    +0.018 C 
BRANCH  24  28
ATOM     28  N   UNL     1      -0.247  -6.878  32.847  0.00  0.00    -0.300 N 
ATOM     29  C   UNL     1       0.472  -6.368  33.952  0.00  0.00    +0.123 C 
ATOM     30  C   UNL     1       1.637  -7.241  34.362  0.00  0.00    +0.164 C 
ATOM     31  O   UNL     1       2.155  -7.950  33.285  0.00  0.00    -0.350 OA
ATOM     32  C   UNL     1       1.961  -7.295  32.076  0.00  0.00    +0.164 C 
ATOM     33  C   UNL     1       0.485  -7.202  31.687  0.00  0.00    +0.123 C 
ENDBRANCH  24  28
BRANCH  25  34
ATOM     34  O   UNL     1      -1.917  -7.743  34.878  0.00  0.00    -0.504 OA
ATOM     35  H   UNL     1      -0.993  -7.892  34.929  0.00  0.00    +0.292 HD
ENDBRANCH  25  34
ENDBRANCH  19  22
ENDBRANCH   2  19
TORSDOF 6
