REMARK  Name = =
REMARK  8 active torsions:
REMARK  status: ('A' for Active; 'I' for Inactive)
REMARK    1  A    between atoms: N_1  and  C_5
REMARK    2  A    between atoms: N_1  and  C_21
REMARK    3  A    between atoms: C_4  and  C_14
REMARK    4  A    between atoms: C_7  and  N_15
REMARK    5  A    between atoms: C_23  and  N_27
REMARK    6  A    between atoms: C_24  and  O_36
REMARK    7  A    between atoms: C_32  and  C_33
REMARK    8  A    between atoms: C_33  and  N_35
REMARK                            x       y       z     vdW  Elec       q    Type
REMARK                         _______ _______ _______ _____ _____    ______ ____
ROOT
ATOM      1  N   UNL     1      -3.196  -2.058  30.008  0.00  0.00    -0.230 N 
ATOM      2  C   UNL     1      -3.611  -0.721  30.029  0.00  0.00    +0.311 C 
ATOM      3  O   UNL     1      -3.132   0.119  29.229  0.00  0.00    -0.264 OA
ENDROOT
BRANCH   1   5
ATOM      4  C   UNL     1      -5.007  -2.667  31.528  0.00  0.00    +0.020 C 
ATOM      5  C   UNL     1      -3.795  -2.985  30.898  0.00  0.00    +0.058 C 
ATOM      6  C   UNL     1      -3.200  -4.195  31.097  0.00  0.00    +0.030 C 
ATOM      7  C   UNL     1      -3.727  -5.181  31.908  0.00  0.00    +0.049 C 
ATOM      8  C   UNL     1      -4.914  -4.891  32.533  0.00  0.00    +0.014 C 
ATOM      9  C   UNL     1      -5.533  -3.648  32.336  0.00  0.00    +0.001 C 
BRANCH   4  14
ATOM     10  C   UNL     1      -7.068  -1.202  31.503  0.00  0.00    +0.105 C 
ATOM     11  N   UNL     1      -7.248  -0.051  32.405  0.00  0.00    -0.270 NA
ATOM     12  C   UNL     1      -6.069  -0.259  33.264  0.00  0.00    +0.217 C 
ATOM     13  O   UNL     1      -5.072  -0.492  32.346  0.00  0.00    -0.334 OA
ATOM     14  C   UNL     1      -5.608  -1.324  31.336  0.00  0.00    +0.156 C 
ATOM     15  H   UNL     1      -8.121  -0.107  32.930  0.00  0.00    +0.126 HD
ENDBRANCH   4  14
BRANCH   7  16
ATOM     16  N   UNL     1      -3.060  -6.417  32.121  0.00  0.00    -0.305 N 
ATOM     17  C   UNL     1      -1.616  -6.350  32.217  0.00  0.00    +0.110 C 
ATOM     18  C   UNL     1      -0.971  -7.538  32.849  0.00  0.00    +0.110 C 
ATOM     19  N   UNL     1      -1.630  -8.789  32.657  0.00  0.00    -0.214 NA
ATOM     20  C   UNL     1      -2.689  -8.718  31.670  0.00  0.00    +0.110 C 
ATOM     21  C   UNL     1      -3.699  -7.698  32.226  0.00  0.00    +0.110 C 
ENDBRANCH   7  16
ENDBRANCH   1   5
BRANCH   1  22
ATOM     22  C   UNL     1      -2.159  -2.452  29.104  0.00  0.00    +0.060 C 
ATOM     23  C   UNL     1      -1.150  -3.326  29.450  0.00  0.00    +0.033 C 
ATOM     24  C   UNL     1      -0.150  -3.697  28.554  0.00  0.00    +0.084 C 
ATOM     25  C   UNL     1      -0.138  -3.194  27.279  0.00  0.00    +0.147 C 
ATOM     26  C   UNL     1      -1.162  -2.301  26.911  0.00  0.00    +0.039 C 
ATOM     27  C   UNL     1      -2.126  -1.965  27.821  0.00  0.00    +0.018 C 
BRANCH  24  28
ATOM     28  N   UNL     1       0.854  -4.655  28.923  0.00  0.00    -0.297 N 
ATOM     29  C   UNL     1       1.709  -4.067  29.970  0.00  0.00    +0.123 C 
ATOM     30  C   UNL     1       2.934  -4.992  30.029  0.00  0.00    +0.164 C 
ATOM     31  O   UNL     1       2.499  -6.323  30.076  0.00  0.00    -0.350 OA
ATOM     32  C   UNL     1       1.200  -6.431  30.507  0.00  0.00    +0.168 C 
ATOM     33  C   UNL     1       0.211  -5.854  29.476  0.00  0.00    +0.138 C 
BRANCH  33  34
ATOM     34  C   UNL     1       0.076  -6.852  28.391  0.00  0.00    +0.039 C 
ATOM     35  C   UNL     1      -1.038  -7.496  28.159  0.00  0.00    +0.012 C 
BRANCH  34  36
ATOM     36  N   UNL     1       1.262  -7.078  27.598  0.00  0.00    -0.359 N 
ATOM     37  H   UNL     1       2.088  -6.579  27.794  0.00  0.00    +0.142 HD
ATOM     38  H   UNL     1       1.245  -7.731  26.861  0.00  0.00    +0.142 HD
ENDBRANCH  34  36
ENDBRANCH  33  34
ENDBRANCH  24  28
BRANCH  25  39
ATOM     39  O   UNL     1       0.810  -3.487  26.318  0.00  0.00    -0.504 OA
ATOM     40  H   UNL     1       1.511  -4.076  26.516  0.00  0.00    +0.292 HD
ENDBRANCH  25  39
ENDBRANCH   1  22
TORSDOF 8
