MODEL 1
REMARK VINA RESULT:    -6.427      0.000      0.000
REMARK INTER + INTRA:          -7.463
REMARK INTER:                  -7.179
REMARK INTRA:                  -0.284
REMARK UNBOUND:                -0.284
REMARK  Name = =
REMARK  2 active torsions:
REMARK  status: ('A' for Active; 'I' for Inactive)
REMARK    1  A    between atoms: N_1  and  C_2
REMARK    2  A    between atoms: C_2  and  N_24
REMARK                            x       y       z     vdW  Elec       q    Type
REMARK                         _______ _______ _______ _____ _____    ______ ____
ROOT
ATOM      1  N   UNL     1      60.410 162.061  38.886  0.00  0.00    -0.228 NA
ATOM      2  C   UNL     1      58.825 161.454  39.212  0.00  0.00    +0.073 C 
ATOM      3  C   UNL     1      59.544 160.865  40.239  0.00  0.00    -0.009 C 
ATOM      4  C   UNL     1      58.910 160.103  39.443  0.00  0.00    -0.023 C 
ATOM      5  C   UNL     1      59.185 161.561  39.455  0.00  0.00    +0.162 C 
ATOM      6  O   UNL     1      58.855 162.251  40.707  0.00  0.00    -0.341 OA
ATOM      7  C   UNL     1      57.864 161.614  41.364  0.00  0.00    +0.144 C 
ATOM      8  C   UNL     1      58.232 160.742  42.498  0.00  0.00    +0.033 C 
ATOM      9  C   UNL     1      59.452 159.921  42.400  0.00  0.00    +0.011 C 
ATOM     10  C   UNL     1      58.747 158.807  39.578  0.00  0.00    -0.009 C 
ATOM     11  C   UNL     1      58.917 157.943  40.790  0.00  0.00    -0.026 C 
ATOM     12  C   UNL     1      59.260 158.482  41.989  0.00  0.00    +0.026 C 
ATOM     13  C   UNL     1      60.292 160.742  41.332  0.00  0.00    +0.026 C 
ATOM     14  C   UNL     1      61.411 159.804  41.029  0.00  0.00    +0.030 C 
ATOM     15  C   UNL     1      62.550 160.430  40.325  0.00  0.00    -0.025 C 
ATOM     16  C   UNL     1      62.482 161.010  39.091  0.00  0.00    -0.010 C 
ATOM     17  C   UNL     1      63.641 161.541  38.579  0.00  0.00    -0.003 C 
ATOM     18  C   UNL     1      64.847 161.506  39.269  0.00  0.00    -0.000 C 
ATOM     19  C   UNL     1      64.909 160.918  40.517  0.00  0.00    -0.000 C 
ATOM     20  C   UNL     1      63.738 160.387  41.021  0.00  0.00    -0.005 C 
ATOM     21  C   UNL     1      61.206 161.082  38.300  0.00  0.00    +0.102 C 
ENDROOT
BRANCH   1  22
ATOM     22  C   UNL     1      59.805 163.019  37.904  0.00  0.00    +0.165 C 
ATOM     23  C   UNL     1      60.838 164.074  38.212  0.00  0.00    +0.045 C 
BRANCH  22  24
ATOM     24  N   UNL     1      60.032 162.541  36.611  0.00  0.00    -0.253 NA
ATOM     25  C   UNL     1      59.248 162.665  35.635  0.00  0.00    +0.115 C 
ENDBRANCH  22  24
ENDBRANCH   1  22
TORSDOF 2
ENDMDL
