MODEL 1
REMARK VINA RESULT:    -9.590      0.000      0.000
REMARK INTER + INTRA:         -12.063
REMARK INTER:                 -12.674
REMARK INTRA:                   0.611
REMARK UNBOUND:                 0.611
REMARK  Name = =
REMARK  7 active torsions:
REMARK  status: ('A' for Active; 'I' for Inactive)
REMARK    1  A    between atoms: N_1  and  C_26
REMARK    2  A    between atoms: C_11  and  N_16
REMARK    3  A    between atoms: C_21  and  N_25
REMARK    4  A    between atoms: C_26  and  O_33
REMARK    5  A    between atoms: O_33  and  C_34
REMARK    6  A    between atoms: C_35  and  O_41
REMARK    7  A    between atoms: C_38  and  O_40
REMARK                            x       y       z     vdW  Elec       q    Type
REMARK                         _______ _______ _______ _____ _____    ______ ____
ROOT
ATOM      1  N   UNL     1      59.828 159.995  41.042  0.00  0.00    -0.150 N 
ATOM      2  N   UNL     1      58.996 160.964  41.413  0.00  0.00    -0.109 NA
ATOM      3  C   UNL     1      57.833 160.462  41.825  0.00  0.00    +0.313 A 
ATOM      4  O   UNL     1      57.938 159.161  41.711  0.00  0.00    -0.375 OA
ATOM      5  C   UNL     1      59.145 158.860  41.234  0.00  0.00    +0.443 A 
ATOM      6  O   UNL     1      59.614 157.721  40.990  0.00  0.00    -0.221 OA
ATOM      7  N   UNL     1      56.731 161.230  42.290  0.00  0.00    -0.254 N 
ATOM      8  C   UNL     1      56.649 162.668  42.403  0.00  0.00    +0.122 C 
ATOM      9  C   UNL     1      55.245 162.952  42.048  0.00  0.00    -0.003 C 
ATOM     10  C   UNL     1      54.516 161.807  42.265  0.00  0.00    +0.009 C 
ATOM     11  C   UNL     1      53.150 161.712  42.041  0.00  0.00    +0.056 C 
ATOM     12  C   UNL     1      52.502 162.852  41.568  0.00  0.00    +0.015 C 
ATOM     13  C   UNL     1      53.203 164.018  41.338  0.00  0.00    +0.001 C 
ATOM     14  C   UNL     1      54.560 164.061  41.578  0.00  0.00    -0.003 C 
ATOM     15  C   UNL     1      55.422 160.736  42.756  0.00  0.00    +0.123 C 
ENDROOT
BRANCH  11  16
ATOM     16  N   UNL     1      52.447 160.500  42.284  0.00  0.00    -0.233 N 
ATOM     17  C   UNL     1      51.101 160.406  42.397  0.00  0.00    +0.163 C 
ATOM     18  N   UNL     1      50.073 161.274  42.335  0.00  0.00    -0.207 NA
ATOM     19  C   UNL     1      48.786 160.908  42.487  0.00  0.00    +0.201 C 
ATOM     20  N   UNL     1      48.487 159.603  42.715  0.00  0.00    -0.208 NA
ATOM     21  C   UNL     1      49.448 158.665  42.792  0.00  0.00    +0.148 C 
ATOM     22  C   UNL     1      50.751 159.076  42.633  0.00  0.00    +0.146 C 
ATOM     23  N   UNL     1      51.892 158.398  42.656  0.00  0.00    -0.221 NA
ATOM     24  C   UNL     1      52.909 159.249  42.448  0.00  0.00    +0.173 C 
BRANCH  21  25
ATOM     25  N   UNL     1      49.049 157.326  43.033  0.00  0.00    -0.341 N 
ATOM     26  H   UNL     1      48.616 157.087  43.884  0.00  0.00    +0.144 HD
ATOM     27  H   UNL     1      49.205 156.635  42.349  0.00  0.00    +0.144 HD
ENDBRANCH  21  25
ENDBRANCH  11  16
BRANCH   1  28
ATOM     28  C   UNL     1      61.203 160.162  40.530  0.00  0.00    +0.225 C 
ATOM     29  C   UNL     1      62.050 159.154  41.250  0.00  0.00    +0.065 C 
ATOM     30  C   UNL     1      62.475 159.803  42.572  0.00  0.00    +0.006 C 
ATOM     31  C   UNL     1      61.506 161.000  42.630  0.00  0.00    +0.006 C 
ATOM     32  C   UNL     1      61.715 161.450  41.163  0.00  0.00    +0.059 C 
ATOM     33  C   UNL     1      63.213 161.558  41.168  0.00  0.00    +0.006 C 
ATOM     34  C   UNL     1      63.745 160.594  42.220  0.00  0.00    +0.000 C 
BRANCH  28  35
ATOM     35  O   UNL     1      61.142 160.111  39.181  0.00  0.00    -0.459 OA
BRANCH  35  36
ATOM     36  C   UNL     1      60.579 160.956  38.247  0.00  0.00    +0.177 C 
ATOM     37  C   UNL     1      59.417 160.670  37.591  0.00  0.00    +0.168 C 
ATOM     38  C   UNL     1      58.902 161.540  36.677  0.00  0.00    +0.043 C 
ATOM     39  C   UNL     1      59.515 162.749  36.363  0.00  0.00    +0.040 C 
ATOM     40  C   UNL     1      60.686 163.008  37.042  0.00  0.00    +0.137 C 
ATOM     41  C   UNL     1      61.227 162.146  37.969  0.00  0.00    +0.077 C 
BRANCH  40  42
ATOM     42  O   UNL     1      61.330 164.215  36.752  0.00  0.00    -0.505 OA
ATOM     43  H   UNL     1      62.265 164.248  36.708  0.00  0.00    +0.292 HD
ENDBRANCH  40  42
BRANCH  37  44
ATOM     44  O   UNL     1      58.758 159.489  37.856  0.00  0.00    -0.503 OA
ATOM     45  H   UNL     1      58.244 159.403  38.635  0.00  0.00    +0.292 HD
ENDBRANCH  37  44
ENDBRANCH  35  36
ENDBRANCH  28  35
ENDBRANCH   1  28
TORSDOF 7
ENDMDL
