REMARK  Name = =
REMARK  2 active torsions:
REMARK  status: ('A' for Active; 'I' for Inactive)
REMARK    1  A    between atoms: N_1  and  C_2
REMARK    2  A    between atoms: C_2  and  N_24
REMARK                            x       y       z     vdW  Elec       q    Type
REMARK                         _______ _______ _______ _____ _____    ______ ____
ROOT
ATOM      1  N   UNL     1      51.870 160.714  30.795  0.00  0.00    -0.228 NA
ATOM      2  C   UNL     1      50.675 161.808  31.396  0.00  0.00    +0.073 C 
ATOM      3  C   UNL     1      50.006 160.601  31.518  0.00  0.00    -0.009 C 
ATOM      4  C   UNL     1      49.470 161.510  30.808  0.00  0.00    -0.023 C 
ATOM      5  C   UNL     1      50.790 161.383  31.474  0.00  0.00    +0.162 C 
ATOM      6  O   UNL     1      50.744 161.020  32.895  0.00  0.00    -0.341 OA
ATOM      7  C   UNL     1      49.593 161.436  33.463  0.00  0.00    +0.144 C 
ATOM      8  C   UNL     1      48.520 160.441  33.664  0.00  0.00    +0.033 C 
ATOM      9  C   UNL     1      48.291 159.419  32.628  0.00  0.00    +0.011 C 
ATOM     10  C   UNL     1      48.265 161.475  30.288  0.00  0.00    -0.009 C 
ATOM     11  C   UNL     1      47.098 160.602  30.636  0.00  0.00    -0.026 C 
ATOM     12  C   UNL     1      47.179 159.698  31.646  0.00  0.00    +0.026 C 
ATOM     13  C   UNL     1      49.713 159.369  31.924  0.00  0.00    +0.026 C 
ATOM     14  C   UNL     1      49.434 158.535  30.719  0.00  0.00    +0.030 C 
ATOM     15  C   UNL     1      50.646 158.021  30.047  0.00  0.00    -0.025 C 
ATOM     16  C   UNL     1      51.618 158.799  29.487  0.00  0.00    -0.010 C 
ATOM     17  C   UNL     1      52.678 158.156  28.895  0.00  0.00    -0.003 C 
ATOM     18  C   UNL     1      52.783 156.771  28.856  0.00  0.00    -0.000 C 
ATOM     19  C   UNL     1      51.797 155.990  29.424  0.00  0.00    -0.000 C 
ATOM     20  C   UNL     1      50.736 156.647  30.016  0.00  0.00    -0.005 C 
ATOM     21  C   UNL     1      51.561 160.301  29.503  0.00  0.00    +0.102 C 
ENDROOT
BRANCH   1  22
ATOM     22  C   UNL     1      52.871 161.829  30.853  0.00  0.00    +0.165 C 
ATOM     23  C   UNL     1      51.834 162.808  31.346  0.00  0.00    +0.045 C 
BRANCH  22  24
ATOM     24  N   UNL     1      53.768 161.574  31.893  0.00  0.00    -0.253 NA
ATOM     25  C   UNL     1      54.985 161.892  31.906  0.00  0.00    +0.115 C 
ENDBRANCH  22  24
ENDBRANCH   1  22
TORSDOF 2
