REMARK  Name = =
REMARK  0 active torsions:
REMARK  status: ('A' for Active; 'I' for Inactive)
REMARK                            x       y       z     vdW  Elec       q    Type
REMARK                         _______ _______ _______ _____ _____    ______ ____
ROOT
ATOM      1  S   UNL     1      62.301 161.143  39.997  0.00  0.00    -0.065 S 
ATOM      2  C   UNL     1      62.182 159.524  40.978  0.00  0.00    +0.134 C 
ATOM      3  N   UNL     1      61.193 159.132  40.574  0.00  0.00    -0.236 NA
ATOM      4  C   UNL     1      60.378 159.670  39.678  0.00  0.00    +0.088 C 
ATOM      5  C   UNL     1      60.783 160.863  39.167  0.00  0.00    +0.049 C 
ATOM      6  C   UNL     1      60.059 161.580  38.215  0.00  0.00    +0.008 C 
ATOM      7  C   UNL     1      58.849 161.084  37.733  0.00  0.00    +0.001 C 
ATOM      8  C   UNL     1      58.460 159.873  38.267  0.00  0.00    +0.002 C 
ATOM      9  C   UNL     1      59.161 159.169  39.195  0.00  0.00    +0.020 C 
ENDROOT
TORSDOF 0
