REMARK  Name = =
REMARK  5 active torsions:
REMARK  status: ('A' for Active; 'I' for Inactive)
REMARK    1  A    between atoms: C_1  and  S_19
REMARK    2  A    between atoms: S_19  and  N_20
REMARK    3  A    between atoms: S_19  and  N_22
REMARK    4  A    between atoms: N_22  and  C_23
REMARK    5  A    between atoms: C_23  and  C_24
REMARK                            x       y       z     vdW  Elec       q    Type
REMARK                         _______ _______ _______ _____ _____    ______ ____
ROOT
ATOM      1  C   UNL     1      51.922 159.507  29.921  0.00  0.00    +0.075 C 
ATOM      2  C   UNL     1      51.826 158.941  28.461  0.00  0.00    +0.016 C 
ATOM      3  C   UNL     1      51.407 157.509  28.512  0.00  0.00    +0.001 C 
ATOM      4  C   UNL     1      50.460 157.008  29.495  0.00  0.00    +0.004 C 
ATOM      5  C   UNL     1      50.270 157.847  30.738  0.00  0.00    +0.019 C 
ATOM      6  C   UNL     1      49.058 157.588  31.520  0.00  0.00    +0.009 C 
ATOM      7  C   UNL     1      47.887 158.327  30.883  0.00  0.00    +0.026 C 
ATOM      8  C   UNL     1      48.316 159.776  30.954  0.00  0.00    -0.024 C 
ATOM      9  C   UNL     1      47.556 160.716  31.468  0.00  0.00    +0.033 C 
ATOM     10  C   UNL     1      48.040 162.093  31.510  0.00  0.00    +0.173 C 
ATOM     11  O   UNL     1      47.328 163.059  31.828  0.00  0.00    -0.291 OA
ATOM     12  C   UNL     1      49.471 162.404  31.162  0.00  0.00    +0.074 C 
ATOM     13  C   UNL     1      49.746 161.516  29.953  0.00  0.00    +0.034 C 
ATOM     14  C   UNL     1      49.641 160.134  30.410  0.00  0.00    -0.033 C 
ATOM     15  C   UNL     1      50.575 159.258  30.393  0.00  0.00    -0.038 C 
ATOM     16  C   UNL     1      51.036 155.674  29.938  0.00  0.00    +0.000 C 
ATOM     17  C   UNL     1      52.488 155.667  29.520  0.00  0.00    +0.000 C 
ATOM     18  C   UNL     1      52.451 156.495  28.235  0.00  0.00    +0.000 C 
ENDROOT
BRANCH   1  19
ATOM     19  S   UNL     1      52.715 160.870  30.245  0.00  0.00    -0.085 S 
ATOM     20  H   UNL     1      52.572 161.733  29.204  0.00  0.00    +0.117 HD
BRANCH  19  21
ATOM     21  N   UNL     1      52.136 161.346  31.985  0.00  0.00    +0.003 NA
ATOM     22  O   UNL     1      52.689 160.668  32.775  0.00  0.00    -0.089 OA
ENDBRANCH  19  21
BRANCH  19  23
ATOM     23  N   UNL     1      54.365 160.471  30.729  0.00  0.00    -0.252 NA
ATOM     24  H   UNL     1      54.811 159.876  30.031  0.00  0.00    +0.136 HD
BRANCH  23  25
ATOM     25  C   UNL     1      55.055 161.773  30.820  0.00  0.00    +0.105 C 
BRANCH  25  26
ATOM     26  C   UNL     1      55.402 162.094  32.183  0.00  0.00    -0.008 C 
ATOM     27  C   UNL     1      56.589 162.175  32.736  0.00  0.00    -0.003 C 
ENDBRANCH  25  26
ENDBRANCH  23  25
ENDBRANCH  19  23
ENDBRANCH   1  19
TORSDOF 5
