MODEL 1
REMARK VINA RESULT:    -7.271      0.000      0.000
REMARK INTER + INTRA:          -9.786
REMARK INTER:                 -10.246
REMARK INTRA:                   0.460
REMARK UNBOUND:                 0.460
REMARK  Name = =
REMARK  8 active torsions:
REMARK  status: ('A' for Active; 'I' for Inactive)
REMARK    1  A    between atoms: N_1  and  C_21
REMARK    2  A    between atoms: C_2  and  C_7
REMARK    3  A    between atoms: C_6  and  C_39
REMARK    4  A    between atoms: C_21  and  C_28
REMARK    5  A    between atoms: C_22  and  C_36
REMARK    6  A    between atoms: C_26  and  C_33
REMARK    7  A    between atoms: C_33  and  O_35
REMARK    8  A    between atoms: C_36  and  O_38
REMARK                            x       y       z     vdW  Elec       q    Type
REMARK                         _______ _______ _______ _____ _____    ______ ____
ROOT
ATOM      1  N   UNL     1       4.304  -4.578  25.662  0.00  0.00    -0.255 NA
ATOM      2  C   UNL     1       4.136  -5.349  26.824  0.00  0.00    +0.099 C 
ATOM      3  C   UNL     1       5.099  -4.761  27.900  0.00  0.00    +0.109 C 
ATOM      4  N   UNL     1       6.158  -3.982  27.310  0.00  0.00    -0.214 NA
ATOM      5  C   UNL     1       5.520  -2.747  26.864  0.00  0.00    +0.111 C 
ATOM      6  C   UNL     1       4.360  -3.166  25.923  0.00  0.00    +0.117 C 
ENDROOT
BRANCH   2   7
ATOM      7  C   UNL     1       4.334  -6.767  26.981  0.00  0.00    -0.006 C 
ATOM      8  C   UNL     1       3.331  -7.707  26.843  0.00  0.00    -0.003 C 
ATOM      9  C   UNL     1       3.559  -9.085  26.965  0.00  0.00    -0.000 C 
ATOM     10  C   UNL     1       2.492  -9.987  26.856  0.00  0.00    -0.000 C 
ATOM     11  C   UNL     1       1.195  -9.548  26.626  0.00  0.00    -0.000 C 
ATOM     12  C   UNL     1       0.132 -10.430  26.519  0.00  0.00    -0.000 C 
ATOM     13  C   UNL     1       0.385 -11.778  26.648  0.00  0.00    +0.000 C 
ATOM     14  C   UNL     1       1.659 -12.212  26.875  0.00  0.00    -0.000 C 
ATOM     15  C   UNL     1       2.737 -11.347  26.984  0.00  0.00    -0.000 C 
ATOM     16  C   UNL     1       0.987  -8.186  26.507  0.00  0.00    -0.000 C 
ATOM     17  C   UNL     1       2.038  -7.321  26.617  0.00  0.00    -0.000 C 
ATOM     18  C   UNL     1       4.820  -9.516  27.232  0.00  0.00    -0.000 C 
ATOM     19  C   UNL     1       5.850  -8.632  27.381  0.00  0.00    -0.000 C 
ATOM     20  C   UNL     1       5.579  -7.297  27.251  0.00  0.00    -0.003 C 
ENDBRANCH   2   7
BRANCH   1  21
ATOM     21  C   UNL     1       4.707  -5.075  24.381  0.00  0.00    +0.136 C 
ATOM     22  C   UNL     1       5.995  -5.788  24.531  0.00  0.00    +0.090 C 
ATOM     23  C   UNL     1       6.152  -7.085  24.331  0.00  0.00    +0.066 C 
ATOM     24  N   UNL     1       5.125  -7.951  23.904  0.00  0.00    -0.311 N 
ATOM     25  C   UNL     1       3.882  -7.349  23.676  0.00  0.00    +0.066 C 
ATOM     26  C   UNL     1       3.692  -6.074  23.870  0.00  0.00    +0.090 C 
ATOM     27  H   UNL     1       5.272  -8.916  23.773  0.00  0.00    +0.152 HD
BRANCH  21  29
ATOM     28  N   UNL     1       5.474  -4.555  22.135  0.00  0.00    -0.150 NA
ATOM     29  C   UNL     1       4.936  -4.061  23.322  0.00  0.00    +0.102 C 
ATOM     30  C   UNL     1       4.657  -2.751  23.296  0.00  0.00    +0.020 C 
ATOM     31  C   UNL     1       4.890  -1.974  22.186  0.00  0.00    +0.024 C 
ATOM     32  C   UNL     1       5.435  -2.547  21.036  0.00  0.00    +0.122 C 
ATOM     33  N   UNL     1       5.704  -3.853  21.082  0.00  0.00    -0.147 NA
ENDBRANCH  21  29
BRANCH  26  34
ATOM     34  C   UNL     1       2.391  -5.602  23.399  0.00  0.00    +0.337 C 
ATOM     35  O   UNL     1       1.585  -6.351  22.739  0.00  0.00    -0.245 OA
BRANCH  34  36
ATOM     36  O   UNL     1       1.950  -4.341  23.626  0.00  0.00    -0.477 OA
ATOM     37  H   UNL     1       1.824  -3.752  22.907  0.00  0.00    +0.295 HD
ENDBRANCH  34  36
ENDBRANCH  26  34
BRANCH  22  38
ATOM     38  C   UNL     1       7.312  -5.062  24.660  0.00  0.00    +0.337 C 
ATOM     39  O   UNL     1       8.357  -5.685  25.052  0.00  0.00    -0.245 OA
BRANCH  38  40
ATOM     40  O   UNL     1       7.519  -3.750  24.374  0.00  0.00    -0.477 OA
ATOM     41  H   UNL     1       8.284  -3.316  24.696  0.00  0.00    +0.295 HD
ENDBRANCH  38  40
ENDBRANCH  22  38
ENDBRANCH   1  21
BRANCH   6  42
ATOM     42  C   UNL     1       3.162  -2.578  26.576  0.00  0.00    +0.078 C 
ATOM     43  N   UNL     1       1.952  -2.930  26.042  0.00  0.00    -0.227 NA
ATOM     44  C   UNL     1       0.791  -2.468  26.512  0.00  0.00    +0.199 C 
ATOM     45  N   UNL     1       0.729  -1.623  27.546  0.00  0.00    -0.222 NA
ATOM     46  C   UNL     1       1.902  -1.262  28.088  0.00  0.00    +0.102 C 
ATOM     47  C   UNL     1       3.101  -1.726  27.616  0.00  0.00    +0.037 C 
ENDBRANCH   6  42
TORSDOF 8
ENDMDL
