REMARK  Name = =
REMARK  8 active torsions:
REMARK  status: ('A' for Active; 'I' for Inactive)
REMARK    1  A    between atoms: N_1  and  C_21
REMARK    2  A    between atoms: C_2  and  C_7
REMARK    3  A    between atoms: C_6  and  C_39
REMARK    4  A    between atoms: C_21  and  C_28
REMARK    5  A    between atoms: C_22  and  C_36
REMARK    6  A    between atoms: C_26  and  C_33
REMARK    7  A    between atoms: C_33  and  O_35
REMARK    8  A    between atoms: C_36  and  O_38
REMARK                            x       y       z     vdW  Elec       q    Type
REMARK                         _______ _______ _______ _____ _____    ______ ____
ROOT
ATOM      1  N   UNL     1       5.808  -9.768  24.854  0.00  0.00    -0.255 NA
ATOM      2  C   UNL     1       4.984  -8.743  25.348  0.00  0.00    +0.099 C 
ATOM      3  C   UNL     1       4.090  -9.376  26.458  0.00  0.00    +0.109 C 
ATOM      4  N   UNL     1       4.011 -10.809  26.336  0.00  0.00    -0.214 NA
ATOM      5  C   UNL     1       5.314 -11.302  26.772  0.00  0.00    +0.111 C 
ATOM      6  C   UNL     1       6.372 -10.588  25.890  0.00  0.00    +0.117 C 
ENDROOT
BRANCH   2   7
ATOM      7  C   UNL     1       4.038  -7.939  24.617  0.00  0.00    -0.006 C 
ATOM      8  C   UNL     1       4.321  -6.688  24.104  0.00  0.00    -0.003 C 
ATOM      9  C   UNL     1       3.392  -5.942  23.365  0.00  0.00    -0.000 C 
ATOM     10  C   UNL     1       3.725  -4.660  22.906  0.00  0.00    -0.000 C 
ATOM     11  C   UNL     1       4.968  -4.099  23.167  0.00  0.00    -0.000 C 
ATOM     12  C   UNL     1       5.307  -2.832  22.722  0.00  0.00    -0.000 C 
ATOM     13  C   UNL     1       4.373  -2.120  22.002  0.00  0.00    +0.000 C 
ATOM     14  C   UNL     1       3.150  -2.669  21.745  0.00  0.00    -0.000 C 
ATOM     15  C   UNL     1       2.791  -3.935  22.180  0.00  0.00    -0.000 C 
ATOM     16  C   UNL     1       5.873  -4.848  23.897  0.00  0.00    -0.000 C 
ATOM     17  C   UNL     1       5.532  -6.095  24.337  0.00  0.00    -0.000 C 
ATOM     18  C   UNL     1       2.160  -6.470  23.143  0.00  0.00    -0.000 C 
ATOM     19  C   UNL     1       1.824  -7.702  23.628  0.00  0.00    -0.000 C 
ATOM     20  C   UNL     1       2.764  -8.393  24.343  0.00  0.00    -0.003 C 
ENDBRANCH   2   7
BRANCH   1  21
ATOM     21  C   UNL     1       5.866 -10.210  23.493  0.00  0.00    +0.136 C 
ATOM     22  C   UNL     1       4.537 -10.731  23.105  0.00  0.00    +0.090 C 
ATOM     23  C   UNL     1       3.765 -10.181  22.184  0.00  0.00    +0.066 C 
ATOM     24  N   UNL     1       4.125  -9.053  21.419  0.00  0.00    -0.311 N 
ATOM     25  C   UNL     1       5.397  -8.528  21.677  0.00  0.00    +0.066 C 
ATOM     26  C   UNL     1       6.180  -9.043  22.582  0.00  0.00    +0.090 C 
ATOM     27  H   UNL     1       3.522  -8.660  20.747  0.00  0.00    +0.152 HD
BRANCH  21  29
ATOM     28  N   UNL     1       7.814 -11.500  24.157  0.00  0.00    -0.150 NA
ATOM     29  C   UNL     1       6.824 -11.303  23.196  0.00  0.00    +0.102 C 
ATOM     30  C   UNL     1       6.864 -12.175  22.180  0.00  0.00    +0.020 C 
ATOM     31  C   UNL     1       7.808 -13.172  22.105  0.00  0.00    +0.024 C 
ATOM     32  C   UNL     1       8.768 -13.299  23.111  0.00  0.00    +0.122 C 
ATOM     33  N   UNL     1       8.711 -12.422  24.114  0.00  0.00    -0.147 NA
ENDBRANCH  21  29
BRANCH  26  34
ATOM     34  C   UNL     1       7.529  -8.480  22.572  0.00  0.00    +0.337 C 
ATOM     35  O   UNL     1       8.158  -8.221  21.484  0.00  0.00    -0.245 OA
BRANCH  34  36
ATOM     36  O   UNL     1       8.207  -8.196  23.711  0.00  0.00    -0.477 OA
ATOM     37  H   UNL     1       7.811  -8.359  24.545  0.00  0.00    +0.295 HD
ENDBRANCH  34  36
ENDBRANCH  26  34
BRANCH  22  38
ATOM     38  C   UNL     1       4.049 -12.097  23.524  0.00  0.00    +0.337 C 
ATOM     39  O   UNL     1       4.784 -12.851  24.248  0.00  0.00    -0.245 OA
BRANCH  38  40
ATOM     40  O   UNL     1       2.841 -12.632  23.208  0.00  0.00    -0.477 OA
ATOM     41  H   UNL     1       2.238 -12.147  22.680  0.00  0.00    +0.295 HD
ENDBRANCH  38  40
ENDBRANCH  22  38
ENDBRANCH   1  21
BRANCH   6  42
ATOM     42  C   UNL     1       7.225  -9.886  26.883  0.00  0.00    +0.078 C 
ATOM     43  N   UNL     1       8.083  -8.945  26.381  0.00  0.00    -0.227 NA
ATOM     44  C   UNL     1       8.922  -8.246  27.149  0.00  0.00    +0.199 C 
ATOM     45  N   UNL     1       8.983  -8.418  28.473  0.00  0.00    -0.222 NA
ATOM     46  C   UNL     1       8.151  -9.335  28.991  0.00  0.00    +0.102 C 
ATOM     47  C   UNL     1       7.286 -10.061  28.216  0.00  0.00    +0.037 C 
ENDBRANCH   6  42
TORSDOF 8
