MODEL 1
REMARK VINA RESULT:   -10.833      0.000      0.000
REMARK INTER + INTRA:         -12.980
REMARK INTER:                 -12.733
REMARK INTRA:                  -0.246
REMARK UNBOUND:                -0.246
REMARK  Name = =
REMARK  4 active torsions:
REMARK  status: ('A' for Active; 'I' for Inactive)
REMARK    1  A    between atoms: C_1  and  O_18
REMARK    2  A    between atoms: C_5  and  O_16
REMARK    3  A    between atoms: C_14  and  O_17
REMARK    4  A    between atoms: O_18  and  C_20
REMARK                            x       y       z     vdW  Elec       q    Type
REMARK                         _______ _______ _______ _____ _____    ______ ____
ROOT
ATOM      1  C   UNL     1      52.193 157.556  28.883  0.00  0.00    +0.144 C 
ATOM      2  C   UNL     1      52.639 157.201  27.624  0.00  0.00    +0.037 C 
ATOM      3  C   UNL     1      52.742 155.882  27.235  0.00  0.00    +0.009 C 
ATOM      4  C   UNL     1      52.407 154.832  28.078  0.00  0.00    +0.068 C 
ATOM      5  C   UNL     1      52.521 153.511  27.654  0.00  0.00    +0.139 C 
ATOM      6  C   UNL     1      52.967 153.263  26.391  0.00  0.00    +0.064 C 
ATOM      7  C   UNL     1      53.312 154.287  25.517  0.00  0.00    -0.016 C 
ATOM      8  C   UNL     1      53.191 155.563  25.961  0.00  0.00    -0.004 C 
ATOM      9  C   UNL     1      53.787 153.885  24.179  0.00  0.00    +0.027 C 
ATOM     10  C   UNL     1      54.774 152.726  24.322  0.00  0.00    +0.013 C 
ATOM     11  C   UNL     1      54.116 151.488  24.876  0.00  0.00    +0.070 C 
ATOM     12  C   UNL     1      53.094 151.897  25.858  0.00  0.00    +0.176 C 
ATOM     13  O   UNL     1      52.278 151.047  26.273  0.00  0.00    -0.291 OA
ATOM     14  C   UNL     1      51.959 155.164  29.341  0.00  0.00    +0.140 C 
ATOM     15  C   UNL     1      51.863 156.526  29.717  0.00  0.00    +0.074 C 
ENDROOT
BRANCH   5  16
ATOM     16  O   UNL     1      52.189 152.512  28.502  0.00  0.00    -0.505 OA
ATOM     17  H   UNL     1      51.641 151.811  28.208  0.00  0.00    +0.292 HD
ENDBRANCH   5  16
BRANCH  14  18
ATOM     18  O   UNL     1      51.609 154.216  30.233  0.00  0.00    -0.505 OA
ATOM     19  H   UNL     1      51.160 154.456  31.020  0.00  0.00    +0.292 HD
ENDBRANCH  14  18
BRANCH   1  20
ATOM     20  O   UNL     1      52.110 158.889  29.219  0.00  0.00    -0.453 OA
BRANCH  20  22
ATOM     21  O   UNL     1      50.300 159.321  30.698  0.00  0.00    -0.293 OA
ATOM     22  C   UNL     1      51.675 159.463  30.396  0.00  0.00    +0.286 C 
ATOM     23  C   UNL     1      51.415 160.953  30.369  0.00  0.00    +0.141 C 
ATOM     24  C   UNL     1      50.072 160.474  29.973  0.00  0.00    +0.286 C 
ATOM     25  O   UNL     1      49.117 160.894  29.287  0.00  0.00    -0.188 OA
ENDBRANCH  20  22
ENDBRANCH   1  20
TORSDOF 4
ENDMDL
