REMARK  Name = =
REMARK  4 active torsions:
REMARK  status: ('A' for Active; 'I' for Inactive)
REMARK    1  A    between atoms: C_1  and  O_18
REMARK    2  A    between atoms: C_5  and  O_16
REMARK    3  A    between atoms: C_14  and  O_17
REMARK    4  A    between atoms: O_18  and  C_20
REMARK                            x       y       z     vdW  Elec       q    Type
REMARK                         _______ _______ _______ _____ _____    ______ ____
ROOT
ATOM      1  C   UNL     1      51.316 151.222  28.352  0.00  0.00    +0.144 C 
ATOM      2  C   UNL     1      51.616 152.537  28.049  0.00  0.00    +0.037 C 
ATOM      3  C   UNL     1      52.343 152.876  26.928  0.00  0.00    +0.009 C 
ATOM      4  C   UNL     1      52.819 151.925  26.037  0.00  0.00    +0.068 C 
ATOM      5  C   UNL     1      53.549 152.300  24.913  0.00  0.00    +0.139 C 
ATOM      6  C   UNL     1      53.790 153.624  24.698  0.00  0.00    +0.064 C 
ATOM      7  C   UNL     1      53.331 154.606  25.567  0.00  0.00    -0.016 C 
ATOM      8  C   UNL     1      52.623 154.207  26.654  0.00  0.00    -0.004 C 
ATOM      9  C   UNL     1      53.664 156.003  25.225  0.00  0.00    +0.027 C 
ATOM     10  C   UNL     1      55.129 156.080  24.795  0.00  0.00    +0.013 C 
ATOM     11  C   UNL     1      55.387 155.309  23.525  0.00  0.00    +0.070 C 
ATOM     12  C   UNL     1      54.534 154.106  23.523  0.00  0.00    +0.176 C 
ATOM     13  O   UNL     1      54.422 153.444  22.470  0.00  0.00    -0.291 OA
ATOM     14  C   UNL     1      52.531 150.604  26.320  0.00  0.00    +0.140 C 
ATOM     15  C   UNL     1      51.782 150.282  27.478  0.00  0.00    +0.074 C 
ENDROOT
BRANCH   5  16
ATOM     16  O   UNL     1      54.000 151.347  24.067  0.00  0.00    -0.505 OA
ATOM     17  H   UNL     1      53.819 150.444  24.240  0.00  0.00    +0.292 HD
ENDBRANCH   5  16
BRANCH  14  18
ATOM     18  O   UNL     1      52.948 149.607  25.516  0.00  0.00    -0.505 OA
ATOM     19  H   UNL     1      53.445 149.803  24.746  0.00  0.00    +0.292 HD
ENDBRANCH  14  18
BRANCH   1  20
ATOM     20  O   UNL     1      50.586 150.940  29.486  0.00  0.00    -0.453 OA
BRANCH  20  22
ATOM     21  O   UNL     1      48.574 149.798  30.034  0.00  0.00    -0.293 OA
ATOM     22  C   UNL     1      49.978 149.758  29.856  0.00  0.00    +0.286 C 
ATOM     23  C   UNL     1      50.055 149.384  31.319  0.00  0.00    +0.141 C 
ATOM     24  C   UNL     1      48.801 150.170  31.345  0.00  0.00    +0.286 C 
ATOM     25  O   UNL     1      48.180 150.874  32.167  0.00  0.00    -0.188 OA
ENDBRANCH  20  22
ENDBRANCH   1  20
TORSDOF 4
