REMARK  Name = =
REMARK  3 active torsions:
REMARK  status: ('A' for Active; 'I' for Inactive)
REMARK    1  A    between atoms: C_1  and  S_6
REMARK    2  A    between atoms: S_6  and  C_7
REMARK    3  A    between atoms: C_7  and  C_9
REMARK                            x       y       z     vdW  Elec       q    Type
REMARK                         _______ _______ _______ _____ _____    ______ ____
ROOT
ATOM      1  C   UNL     1      51.498 155.416  28.646  0.00  0.00    +0.207 A 
ATOM      2  N   UNL     1      52.296 156.484  28.733  0.00  0.00    -0.234 N 
ATOM      3  N   UNL     1      51.702 157.368  29.520  0.00  0.00    -0.046 NA
ATOM      4  N   UNL     1      50.557 156.850  29.911  0.00  0.00    -0.022 NA
ATOM      5  N   UNL     1      50.410 155.649  29.385  0.00  0.00    -0.102 NA
ATOM      6  H   UNL     1      53.169 156.594  28.291  0.00  0.00    +0.193 HD
ENDROOT
BRANCH   1   7
ATOM      7  S   UNL     1      51.777 153.920  27.727  0.00  0.00    -0.074 S 
BRANCH   7   8
ATOM      8  C   UNL     1      53.162 154.033  26.602  0.00  0.00    +0.065 C 
BRANCH   8  10
ATOM      9  C   UNL     1      54.239 155.288  24.821  0.00  0.00    +0.001 C 
ATOM     10  C   UNL     1      52.875 154.875  25.373  0.00  0.00    +0.012 C 
ENDBRANCH   8  10
ENDBRANCH   7   8
ENDBRANCH   1   7
TORSDOF 3
