REMARK  Name = =
REMARK  5 active torsions:
REMARK  status: ('A' for Active; 'I' for Inactive)
REMARK    1  A    between atoms: S_1  and  C_2
REMARK    2  A    between atoms: S_1  and  C_7
REMARK    3  A    between atoms: C_7  and  C_8
REMARK    4  A    between atoms: C_8  and  C_9
REMARK    5  A    between atoms: C_9  and  C_11
REMARK                            x       y       z     vdW  Elec       q    Type
REMARK                         _______ _______ _______ _____ _____    ______ ____
ROOT
ATOM      1  S   UNL     1      51.300 155.650  28.891  0.00  0.00    -0.074 S 
ENDROOT
BRANCH   1   2
ATOM      2  C   UNL     1      51.956 154.264  27.951  0.00  0.00    +0.207 A 
ATOM      3  N   UNL     1      51.322 153.114  27.669  0.00  0.00    -0.234 N 
ATOM      4  N   UNL     1      52.126 152.348  26.964  0.00  0.00    -0.046 NA
ATOM      5  N   UNL     1      53.264 152.975  26.781  0.00  0.00    -0.022 NA
ATOM      6  N   UNL     1      53.166 154.143  27.380  0.00  0.00    -0.102 NA
ATOM      7  H   UNL     1      50.406 152.882  27.945  0.00  0.00    +0.193 HD
ENDBRANCH   1   2
BRANCH   1   8
ATOM      8  C   UNL     1      52.639 156.818  29.141  0.00  0.00    +0.066 C 
BRANCH   8   9
ATOM      9  C   UNL     1      52.187 158.252  29.133  0.00  0.00    +0.018 C 
BRANCH   9  10
ATOM     10  C   UNL     1      50.982 158.406  30.034  0.00  0.00    +0.047 C 
BRANCH  10  12
ATOM     11  N   UNL     1      49.610 160.151  30.859  0.00  0.00    -0.302 NA
ATOM     12  C   UNL     1      50.501 159.800  30.011  0.00  0.00    +0.062 C 
ATOM     13  H   UNL     1      49.273 161.076  30.864  0.00  0.00    +0.186 HD
ENDBRANCH  10  12
ENDBRANCH   9  10
ENDBRANCH   8   9
ENDBRANCH   1   8
TORSDOF 5
