REMARK  Name = =
REMARK  6 active torsions:
REMARK  status: ('A' for Active; 'I' for Inactive)
REMARK    1  A    between atoms: C_1  and  C_3
REMARK    2  A    between atoms: C_1  and  C_10
REMARK    3  A    between atoms: N_2  and  C_9
REMARK    4  A    between atoms: C_10  and  C_11
REMARK    5  A    between atoms: C_11  and  S_12
REMARK    6  A    between atoms: S_12  and  C_13
REMARK                            x       y       z     vdW  Elec       q    Type
REMARK                         _______ _______ _______ _____ _____    ______ ____
ROOT
ATOM      1  C   UNL     1      52.759 152.913  27.605  0.00  0.00    +0.048 C 
ENDROOT
BRANCH   1   3
ATOM      2  N   UNL     1      52.644 154.994  28.724  0.00  0.00    -0.248 NA
ATOM      3  C   UNL     1      52.321 153.762  28.786  0.00  0.00    +0.072 C 
BRANCH   2   9
ATOM      4  C   UNL     1      52.482 157.286  29.248  0.00  0.00    +0.019 C 
ATOM      5  C   UNL     1      51.559 158.199  29.122  0.00  0.00    +0.002 C 
ATOM      6  C   UNL     1      50.209 157.894  29.533  0.00  0.00    +0.000 C 
ATOM      7  C   UNL     1      49.941 156.708  30.020  0.00  0.00    +0.002 C 
ATOM      8  C   UNL     1      50.899 155.612  30.203  0.00  0.00    +0.019 C 
ATOM      9  C   UNL     1      52.292 155.924  29.782  0.00  0.00    +0.081 C 
ENDBRANCH   2   9
ENDBRANCH   1   3
BRANCH   1  10
ATOM     10  C   UNL     1      51.735 153.154  26.538  0.00  0.00    +0.018 C 
BRANCH  10  11
ATOM     11  C   UNL     1      51.389 154.565  26.293  0.00  0.00    +0.066 C 
BRANCH  11  12
ATOM     12  S   UNL     1      52.651 155.511  25.481  0.00  0.00    -0.074 S 
BRANCH  12  13
ATOM     13  C   UNL     1      53.914 154.657  24.629  0.00  0.00    +0.207 A 
ATOM     14  N   UNL     1      55.206 154.531  25.076  0.00  0.00    -0.234 N 
ATOM     15  N   UNL     1      55.895 153.868  24.165  0.00  0.00    -0.046 NA
ATOM     16  N   UNL     1      55.117 153.556  23.145  0.00  0.00    -0.022 NA
ATOM     17  N   UNL     1      53.924 154.040  23.443  0.00  0.00    -0.102 NA
ATOM     18  H   UNL     1      55.558 154.875  25.928  0.00  0.00    +0.193 HD
ENDBRANCH  12  13
ENDBRANCH  11  12
ENDBRANCH  10  11
ENDBRANCH   1  10
TORSDOF 6
