REMARK  Name = =
REMARK  8 active torsions:
REMARK  status: ('A' for Active; 'I' for Inactive)
REMARK    1  A    between atoms: N_1  and  C_9
REMARK    2  A    between atoms: C_2  and  C_16
REMARK    3  A    between atoms: N_3  and  S_10
REMARK    4  A    between atoms: S_10  and  N_13
REMARK    5  A    between atoms: C_16  and  C_17
REMARK    6  A    between atoms: C_17  and  C_18
REMARK    7  A    between atoms: C_18  and  S_19
REMARK    8  A    between atoms: S_19  and  C_20
REMARK                            x       y       z     vdW  Elec       q    Type
REMARK                         _______ _______ _______ _____ _____    ______ ____
ROOT
ATOM      1  N   UNL     1      50.886 156.799  29.606  0.00  0.00    -0.234 NA
ATOM      2  C   UNL     1      51.813 157.602  29.317  0.00  0.00    +0.125 C 
ATOM      3  N   UNL     1      51.610 158.956  29.731  0.00  0.00    -0.190 N 
ATOM      4  H   UNL     1      52.349 159.604  29.685  0.00  0.00    +0.176 HD
ENDROOT
BRANCH   1  10
ATOM      5  C   UNL     1      51.552 154.558  30.218  0.00  0.00    +0.019 C 
ATOM      6  C   UNL     1      52.205 153.530  29.757  0.00  0.00    +0.002 C 
ATOM      7  C   UNL     1      52.135 153.149  28.342  0.00  0.00    +0.000 C 
ATOM      8  C   UNL     1      51.388 153.873  27.530  0.00  0.00    +0.002 C 
ATOM      9  C   UNL     1      50.619 155.042  27.944  0.00  0.00    +0.019 C 
ATOM     10  C   UNL     1      50.705 155.405  29.380  0.00  0.00    +0.082 C 
ENDBRANCH   1  10
BRANCH   3  11
ATOM     11  S   UNL     1      50.037 159.453  30.320  0.00  0.00    +0.127 S 
ATOM     12  O   UNL     1      49.433 160.506  29.452  0.00  0.00    -0.135 OA
ATOM     13  O   UNL     1      49.184 158.189  30.352  0.00  0.00    -0.135 OA
BRANCH  11  14
ATOM     14  N   UNL     1      50.240 160.086  31.904  0.00  0.00    -0.165 N 
ATOM     15  C   UNL     1      49.113 160.408  32.672  0.00  0.00    +0.320 C 
ATOM     16  O   UNL     1      47.927 160.260  32.267  0.00  0.00    -0.263 OA
ATOM     17  H   UNL     1      51.144 160.222  32.270  0.00  0.00    +0.178 HD
ENDBRANCH  11  14
ENDBRANCH   3  11
BRANCH   2  18
ATOM     18  C   UNL     1      53.025 157.195  28.624  0.00  0.00    +0.063 C 
BRANCH  18  19
ATOM     19  C   UNL     1      52.810 156.649  27.243  0.00  0.00    +0.020 C 
BRANCH  19  20
ATOM     20  C   UNL     1      53.895 156.905  26.255  0.00  0.00    +0.066 C 
BRANCH  20  21
ATOM     21  S   UNL     1      53.325 156.131  24.679  0.00  0.00    -0.074 S 
BRANCH  21  22
ATOM     22  C   UNL     1      53.796 154.413  24.645  0.00  0.00    +0.207 A 
ATOM     23  N   UNL     1      53.595 153.618  23.583  0.00  0.00    -0.234 N 
ATOM     24  N   UNL     1      54.056 152.423  23.912  0.00  0.00    -0.046 NA
ATOM     25  N   UNL     1      54.528 152.454  25.123  0.00  0.00    -0.022 NA
ATOM     26  N   UNL     1      54.374 153.700  25.603  0.00  0.00    -0.102 NA
ATOM     27  H   UNL     1      53.184 153.874  22.726  0.00  0.00    +0.193 HD
ENDBRANCH  21  22
ENDBRANCH  20  21
ENDBRANCH  19  20
ENDBRANCH  18  19
ENDBRANCH   2  18
TORSDOF 8
