MODEL 1
REMARK VINA RESULT:    -8.987      0.000      0.000
REMARK INTER + INTRA:         -10.706
REMARK INTER:                 -10.300
REMARK INTRA:                  -0.406
REMARK UNBOUND:                -0.406
REMARK  Name = =
REMARK  3 active torsions:
REMARK  status: ('A' for Active; 'I' for Inactive)
REMARK    1  A    between atoms: S_1  and  N_10
REMARK    2  A    between atoms: C_4  and  C_20
REMARK    3  A    between atoms: C_20  and  O_22
REMARK                            x       y       z     vdW  Elec       q    Type
REMARK                         _______ _______ _______ _____ _____    ______ ____
ROOT
ATOM      1  S   UNL     1      52.433 155.250  27.982  0.00  0.00    -0.156 S 
ATOM      2  C   UNL     1      51.784 153.617  27.286  0.00  0.00    +0.079 C 
ATOM      3  C   UNL     1      52.872 153.038  26.508  0.00  0.00    +0.006 C 
ATOM      4  C   UNL     1      53.752 153.686  25.768  0.00  0.00    +0.123 C 
ATOM      5  N   UNL     1      53.670 155.088  25.689  0.00  0.00    -0.271 N 
ATOM      6  C   UNL     1      52.813 155.945  26.469  0.00  0.00    +0.140 C 
ATOM      7  C   UNL     1      53.902 156.957  26.378  0.00  0.00    +0.085 C 
ATOM      8  C   UNL     1      54.150 156.257  25.066  0.00  0.00    +0.213 C 
ATOM      9  O   UNL     1      54.590 156.609  23.944  0.00  0.00    -0.202 OA
ATOM     10  H   UNL     1      53.505 155.344  28.814  0.00  0.00    +0.100 HD
ENDROOT
BRANCH   1  11
ATOM     11  N   UNL     1      51.541 155.906  29.201  0.00  0.00    -0.240 NA
ATOM     12  C   UNL     1      52.007 157.171  29.656  0.00  0.00    +0.108 C 
ATOM     13  C   UNL     1      50.978 158.177  29.914  0.00  0.00    -0.009 C 
ATOM     14  C   UNL     1      49.665 157.861  30.129  0.00  0.00    -0.023 C 
ATOM     15  C   UNL     1      48.714 158.814  30.369  0.00  0.00    -0.004 C 
ATOM     16  C   UNL     1      49.110 160.141  30.391  0.00  0.00    -0.000 C 
ATOM     17  C   UNL     1      50.422 160.494  30.179  0.00  0.00    -0.000 C 
ATOM     18  C   UNL     1      51.370 159.521  29.938  0.00  0.00    -0.003 C 
ATOM     19  C   UNL     1      49.309 156.408  30.090  0.00  0.00    +0.044 C 
ATOM     20  C   UNL     1      50.137 155.798  28.983  0.00  0.00    +0.087 C 
ENDBRANCH   1  11
BRANCH   4  21
ATOM     21  C   UNL     1      54.799 152.930  25.040  0.00  0.00    +0.351 C 
ATOM     22  O   UNL     1      54.538 151.929  24.360  0.00  0.00    -0.244 OA
BRANCH  21  23
ATOM     23  O   UNL     1      56.112 153.363  25.127  0.00  0.00    -0.476 OA
ATOM     24  H   UNL     1      56.611 153.504  24.346  0.00  0.00    +0.295 HD
ENDBRANCH  21  23
ENDBRANCH   4  21
TORSDOF 3
ENDMDL
