MODEL 1
REMARK VINA RESULT:    -5.567      0.000      0.000
REMARK INTER + INTRA:         -10.336
REMARK INTER:                  -9.310
REMARK INTRA:                  -1.026
REMARK UNBOUND:                -1.026
REMARK  Name = =
REMARK  13 active torsions:
REMARK  status: ('A' for Active; 'I' for Inactive)
REMARK    1  A    between atoms: S_1  and  C_3
REMARK    2  A    between atoms: S_1  and  P_14
REMARK    3  A    between atoms: S_1  and  S_18
REMARK    4  A    between atoms: C_2  and  N_4
REMARK    5  A    between atoms: P_14  and  O_16
REMARK    6  A    between atoms: P_14  and  O_17
REMARK    7  A    between atoms: S_18  and  C_19
REMARK    8  A    between atoms: S_18  and  S_25
REMARK    9  A    between atoms: C_19  and  N_21
REMARK   10  A    between atoms: N_21  and  S_22
REMARK   11  A    between atoms: S_22  and  N_23
REMARK   12  A    between atoms: S_25  and  C_26
REMARK   13  A    between atoms: C_26  and  N_28
REMARK                            x       y       z     vdW  Elec       q    Type
REMARK                         _______ _______ _______ _____ _____    ______ ____
ROOT
ATOM      1  S   UNL     1      54.739 162.754  42.824  0.00  0.00    -0.043 S 
ATOM      2  H   UNL     1      55.124 162.740  44.128  0.00  0.00    +0.116 HD
ENDROOT
BRANCH   1   4
ATOM      3  C   UNL     1      52.537 164.467  42.228  0.00  0.00    +0.011 C 
ATOM      4  C   UNL     1      53.617 163.631  42.532  0.00  0.00    -0.016 C 
BRANCH   3   5
ATOM      5  N   UNL     1      51.494 165.271  41.928  0.00  0.00    -0.263 N 
ATOM      6  C   UNL     1      51.260 165.915  40.712  0.00  0.00    +0.105 C 
ATOM      7  C   UNL     1      49.751 166.271  40.549  0.00  0.00    +0.048 C 
ATOM      8  C   UNL     1      48.877 165.252  41.162  0.00  0.00    -0.023 C 
ATOM      9  C   UNL     1      49.268 164.754  42.404  0.00  0.00    -0.006 C 
ATOM     10  C   UNL     1      50.428 165.347  43.029  0.00  0.00    +0.126 C 
ATOM     11  C   UNL     1      48.517 163.767  42.952  0.00  0.00    -0.003 C 
ATOM     12  C   UNL     1      47.422 163.241  42.383  0.00  0.00    -0.000 C 
ATOM     13  C   UNL     1      47.022 163.763  41.104  0.00  0.00    -0.000 C 
ATOM     14  C   UNL     1      47.773 164.752  40.545  0.00  0.00    -0.004 C 
ENDBRANCH   3   5
ENDBRANCH   1   4
BRANCH   1  15
ATOM     15  P   UNL     1      54.211 161.147  42.188  0.00  0.00    +0.385 P 
ATOM     16  O   UNL     1      54.701 160.938  40.776  0.00  0.00    -0.246 OA
BRANCH  15  17
ATOM     17  O   UNL     1      52.586 160.871  42.410  0.00  0.00    -0.316 OA
ATOM     18  H   UNL     1      52.407 160.730  43.352  0.00  0.00    +0.221 HD
ENDBRANCH  15  17
BRANCH  15  19
ATOM     19  O   UNL     1      55.010 159.870  43.034  0.00  0.00    -0.316 OA
ATOM     20  H   UNL     1      55.296 159.192  42.402  0.00  0.00    +0.221 HD
ENDBRANCH  15  19
ENDBRANCH   1  15
BRANCH   1  21
ATOM     21  S   UNL     1      56.164 163.352  41.555  0.00  0.00    -0.101 S 
ATOM     22  H   UNL     1      56.060 163.138  40.215  0.00  0.00    +0.110 HD
BRANCH  21  23
ATOM     23  C   UNL     1      57.399 162.551  42.261  0.00  0.00    +0.115 C 
ATOM     24  S   UNL     1      58.637 163.565  42.689  0.00  0.00    -0.028 S 
BRANCH  23  25
ATOM     25  N   UNL     1      57.565 161.211  42.643  0.00  0.00    -0.256 N 
ATOM     26  H   UNL     1      56.868 160.796  43.201  0.00  0.00    +0.163 HD
BRANCH  25  27
ATOM     27  S   UNL     1      58.938 160.242  42.181  0.00  0.00    +0.127 S 
BRANCH  27  28
ATOM     28  N   UNL     1      58.742 158.555  42.681  0.00  0.00    +0.025 NA
ATOM     29  O   UNL     1      58.071 157.807  42.041  0.00  0.00    -0.134 OA
ENDBRANCH  27  28
ENDBRANCH  25  27
ENDBRANCH  23  25
ENDBRANCH  21  23
BRANCH  21  30
ATOM     30  S   UNL     1      56.242 164.809  41.790  0.00  0.00    -0.041 S 
BRANCH  30  31
ATOM     31  C   UNL     1      56.516 166.184  40.946  0.00  0.00    +0.114 C 
ATOM     32  S   UNL     1      55.288 167.320  40.766  0.00  0.00    -0.028 S 
BRANCH  31  33
ATOM     33  N   UNL     1      57.729 166.582  40.317  0.00  0.00    -0.346 N 
ATOM     34  H   UNL     1      58.534 166.745  40.860  0.00  0.00    +0.143 HD
ATOM     35  H   UNL     1      57.763 166.694  39.340  0.00  0.00    +0.143 HD
ENDBRANCH  31  33
ENDBRANCH  30  31
ENDBRANCH  21  30
ENDBRANCH   1  21
TORSDOF 13
ENDMDL
