MODEL 1
REMARK VINA RESULT:    -9.215      0.000      0.000
REMARK INTER + INTRA:         -10.849
REMARK INTER:                 -10.292
REMARK INTRA:                  -0.557
REMARK UNBOUND:                -0.557
REMARK  Name = =
REMARK  2 active torsions:
REMARK  status: ('A' for Active; 'I' for Inactive)
REMARK    1  A    between atoms: S_1  and  C_29
REMARK    2  A    between atoms: C_26  and  C_36
REMARK                            x       y       z     vdW  Elec       q    Type
REMARK                         _______ _______ _______ _____ _____    ______ ____
ROOT
ATOM      1  S   UNL     1      -1.262  -4.655  30.055  0.00  0.00    -0.185 S 
ATOM      2  S   UNL     1      -0.164  -5.427  28.720  0.00  0.00    -0.103 S 
ATOM      3  C   UNL     1      -0.581  -7.158  28.534  0.00  0.00    +0.077 C 
ATOM      4  C   UNL     1       0.704  -7.984  28.388  0.00  0.00    +0.097 C 
ATOM      5  C   UNL     1       1.791  -7.188  29.012  0.00  0.00    +0.224 C 
ATOM      6  O   UNL     1       1.618  -6.800  30.210  0.00  0.00    -0.275 OA
ATOM      7  N   UNL     1       2.977  -6.867  28.311  0.00  0.00    -0.297 N 
ATOM      8  C   UNL     1       3.412  -7.690  27.210  0.00  0.00    +0.176 C 
ATOM      9  C   UNL     1       3.364  -6.945  25.913  0.00  0.00    +0.243 C 
ATOM     10  O   UNL     1       2.250  -6.926  25.318  0.00  0.00    -0.273 OA
ATOM     11  N   UNL     1       4.478  -6.286  25.351  0.00  0.00    -0.295 N 
ATOM     12  C   UNL     1       5.492  -5.590  26.115  0.00  0.00    +0.176 C 
ATOM     13  C   UNL     1       6.175  -4.569  25.246  0.00  0.00    +0.243 C 
ATOM     14  O   UNL     1       7.155  -4.909  24.551  0.00  0.00    -0.273 OA
ATOM     15  N   UNL     1       5.731  -3.217  25.194  0.00  0.00    -0.295 N 
ATOM     16  C   UNL     1       4.611  -2.827  25.990  0.00  0.00    +0.176 C 
ATOM     17  C   UNL     1       3.917  -1.640  25.443  0.00  0.00    +0.243 C 
ATOM     18  O   UNL     1       4.486  -1.031  24.483  0.00  0.00    -0.273 OA
ATOM     19  N   UNL     1       2.691  -1.183  25.939  0.00  0.00    -0.295 N 
ATOM     20  C   UNL     1       2.138  -1.714  27.143  0.00  0.00    +0.176 C 
ATOM     21  C   UNL     1       0.706  -1.463  27.326  0.00  0.00    +0.243 C 
ATOM     22  O   UNL     1       0.113  -0.629  26.596  0.00  0.00    -0.273 OA
ATOM     23  N   UNL     1      -0.015  -2.150  28.317  0.00  0.00    -0.302 N 
ATOM     24  C   UNL     1       0.657  -2.889  29.344  0.00  0.00    +0.100 C 
ATOM     25  C   UNL     1      -0.273  -3.283  30.475  0.00  0.00    +0.067 C 
ATOM     26  H   UNL     1      -1.555  -5.427  31.135  0.00  0.00    +0.094 HD
ATOM     27  H   UNL     1       3.507  -6.081  28.575  0.00  0.00    +0.150 HD
ATOM     28  H   UNL     1       4.572  -6.301  24.371  0.00  0.00    +0.150 HD
ATOM     29  H   UNL     1       6.188  -2.562  24.618  0.00  0.00    +0.150 HD
ATOM     30  H   UNL     1       2.201  -0.483  25.449  0.00  0.00    +0.150 HD
ATOM     31  H   UNL     1      -0.999  -2.123  28.306  0.00  0.00    +0.150 HD
ENDROOT
BRANCH   1  35
ATOM     32  C   UNL     1      -3.902  -2.983  31.227  0.00  0.00    +0.004 C 
ATOM     33  C   UNL     1      -4.042  -4.443  31.604  0.00  0.00    +0.001 C 
ATOM     34  C   UNL     1      -3.918  -5.184  30.268  0.00  0.00    +0.010 C 
ATOM     35  C   UNL     1      -2.888  -4.379  29.550  0.00  0.00    +0.037 C 
ATOM     36  C   UNL     1      -3.336  -2.960  29.836  0.00  0.00    +0.010 C 
BRANCH  32  42
ATOM     37  N   UNL     1      -7.276  -2.836  32.511  0.00  0.00    -0.216 NA
ATOM     38  C   UNL     1      -7.762  -1.666  31.832  0.00  0.00    +0.107 C 
ATOM     39  C   UNL     1      -7.272  -0.376  32.402  0.00  0.00    +0.107 C 
ATOM     40  N   UNL     1      -5.858  -0.210  32.375  0.00  0.00    -0.216 NA
ATOM     41  C   UNL     1      -5.190  -0.836  31.279  0.00  0.00    +0.090 C 
ATOM     42  C   UNL     1      -5.273  -2.352  31.318  0.00  0.00    +0.035 C 
ATOM     43  C   UNL     1      -5.848  -2.713  32.676  0.00  0.00    +0.090 C 
ENDBRANCH  32  42
ENDBRANCH   1  35
TORSDOF 2
ENDMDL
