REMARK  Name = =
REMARK  2 active torsions:
REMARK  status: ('A' for Active; 'I' for Inactive)
REMARK    1  A    between atoms: S_1  and  C_29
REMARK    2  A    between atoms: C_26  and  C_36
REMARK                            x       y       z     vdW  Elec       q    Type
REMARK                         _______ _______ _______ _____ _____    ______ ____
ROOT
ATOM      1  S   UNL     1      -7.014  -5.322  21.069  0.00  0.00    -0.185 S 
ATOM      2  S   UNL     1      -8.344  -5.893  22.288  0.00  0.00    -0.103 S 
ATOM      3  C   UNL     1      -7.960  -7.546  22.857  0.00  0.00    +0.077 C 
ATOM      4  C   UNL     1      -9.244  -8.386  22.903  0.00  0.00    +0.097 C 
ATOM      5  C   UNL     1     -10.195  -7.756  21.952  0.00  0.00    +0.224 C 
ATOM      6  O   UNL     1      -9.796  -7.577  20.759  0.00  0.00    -0.275 OA
ATOM      7  N   UNL     1     -11.496  -7.367  22.348  0.00  0.00    -0.297 N 
ATOM      8  C   UNL     1     -12.130  -8.002  23.476  0.00  0.00    +0.176 C 
ATOM      9  C   UNL     1     -12.338  -7.041  24.604  0.00  0.00    +0.243 C 
ATOM     10  O   UNL     1     -11.360  -6.873  25.385  0.00  0.00    -0.273 OA
ATOM     11  N   UNL     1     -13.544  -6.340  24.818  0.00  0.00    -0.295 N 
ATOM     12  C   UNL     1     -14.396  -5.830  23.764  0.00  0.00    +0.176 C 
ATOM     13  C   UNL     1     -15.241  -4.702  24.291  0.00  0.00    +0.243 C 
ATOM     14  O   UNL     1     -16.334  -4.955  24.838  0.00  0.00    -0.273 OA
ATOM     15  N   UNL     1     -14.824  -3.344  24.183  0.00  0.00    -0.295 N 
ATOM     16  C   UNL     1     -13.574  -3.054  23.556  0.00  0.00    +0.176 C 
ATOM     17  C   UNL     1     -13.006  -1.762  24.003  0.00  0.00    +0.243 C 
ATOM     18  O   UNL     1     -13.754  -1.019  24.713  0.00  0.00    -0.273 OA
ATOM     19  N   UNL     1     -11.710  -1.349  23.674  0.00  0.00    -0.295 N 
ATOM     20  C   UNL     1     -10.932  -2.059  22.711  0.00  0.00    +0.176 C 
ATOM     21  C   UNL     1      -9.493  -1.785  22.760  0.00  0.00    +0.243 C 
ATOM     22  O   UNL     1      -9.058  -0.813  23.427  0.00  0.00    -0.273 OA
ATOM     23  N   UNL     1      -8.590  -2.605  22.062  0.00  0.00    -0.302 N 
ATOM     24  C   UNL     1      -9.046  -3.539  21.076  0.00  0.00    +0.100 C 
ATOM     25  C   UNL     1      -7.912  -4.086  20.230  0.00  0.00    +0.067 C 
ATOM     26  H   UNL     1      -6.513  -6.258  20.219  0.00  0.00    +0.094 HD
ATOM     27  H   UNL     1     -11.970  -6.661  21.852  0.00  0.00    +0.150 HD
ATOM     28  H   UNL     1     -13.826  -6.187  25.749  0.00  0.00    +0.150 HD
ATOM     29  H   UNL     1     -15.388  -2.618  24.535  0.00  0.00    +0.150 HD
ATOM     30  H   UNL     1     -11.329  -0.555  24.114  0.00  0.00    +0.150 HD
ATOM     31  H   UNL     1      -7.627  -2.536  22.254  0.00  0.00    +0.150 HD
ENDROOT
BRANCH   1  35
ATOM     32  C   UNL     1      -3.774  -5.652  20.340  0.00  0.00    +0.004 C 
ATOM     33  C   UNL     1      -4.176  -6.760  21.290  0.00  0.00    +0.001 C 
ATOM     34  C   UNL     1      -4.800  -6.021  22.479  0.00  0.00    +0.010 C 
ATOM     35  C   UNL     1      -5.518  -4.895  21.814  0.00  0.00    +0.037 C 
ATOM     36  C   UNL     1      -4.497  -4.419  20.802  0.00  0.00    +0.010 C 
BRANCH  32  42
ATOM     37  N   UNL     1      -0.445  -7.030  20.612  0.00  0.00    -0.216 NA
ATOM     38  C   UNL     1       0.340  -5.827  20.559  0.00  0.00    +0.107 C 
ATOM     39  C   UNL     1       0.475  -5.240  19.193  0.00  0.00    +0.107 C 
ATOM     40  N   UNL     1      -0.754  -4.860  18.582  0.00  0.00    -0.216 NA
ATOM     41  C   UNL     1      -1.772  -4.417  19.481  0.00  0.00    +0.090 C 
ATOM     42  C   UNL     1      -2.270  -5.514  20.406  0.00  0.00    +0.035 C 
ATOM     43  C   UNL     1      -1.673  -6.811  19.888  0.00  0.00    +0.090 C 
ENDBRANCH  32  42
ENDBRANCH   1  35
TORSDOF 2
