REMARK  Name = =
REMARK  11 active torsions:
REMARK  status: ('A' for Active; 'I' for Inactive)
REMARK    1  A    between atoms: C_1  and  C_8
REMARK    2  A    between atoms: C_1  and  O_17
REMARK    3  A    between atoms: C_3  and  C_9
REMARK    4  A    between atoms: C_4  and  C_14
REMARK    5  A    between atoms: C_9  and  O_11
REMARK    6  A    between atoms: O_11  and  C_12
REMARK    7  A    between atoms: C_14  and  O_16
REMARK    8  A    between atoms: O_17  and  N_18
REMARK    9  A    between atoms: C_21  and  S_24
REMARK   10  A    between atoms: C_23  and  S_26
REMARK   11  A    between atoms: S_26  and  C_27
REMARK                            x       y       z     vdW  Elec       q    Type
REMARK                         _______ _______ _______ _____ _____    ______ ____
ROOT
ATOM      1  C   UNL     1       2.999  -7.121  23.902  0.00  0.00    +0.361 C 
ATOM      2  O   UNL     1       1.977  -7.398  24.571  0.00  0.00    -0.243 OA
ENDROOT
BRANCH   1   8
ATOM      3  C   UNL     1       4.708  -5.307  24.302  0.00  0.00    +0.087 C 
ATOM      4  C   UNL     1       5.034  -3.910  24.064  0.00  0.00    +0.079 C 
ATOM      5  C   UNL     1       4.236  -3.057  23.397  0.00  0.00    +0.121 C 
ATOM      6  N   UNL     1       3.026  -3.518  22.888  0.00  0.00    -0.328 N 
ATOM      7  C   UNL     1       2.655  -4.873  23.079  0.00  0.00    +0.065 C 
ATOM      8  C   UNL     1       3.390  -5.742  23.719  0.00  0.00    +0.098 C 
ATOM      9  H   UNL     1       2.430  -2.906  22.398  0.00  0.00    +0.147 HD
BRANCH   3  10
ATOM     10  C   UNL     1       4.613  -5.576  25.776  0.00  0.00    +0.348 C 
ATOM     11  O   UNL     1       3.861  -4.868  26.516  0.00  0.00    -0.244 OA
BRANCH  10  12
ATOM     12  O   UNL     1       5.338  -6.591  26.338  0.00  0.00    -0.381 OA
BRANCH  12  13
ATOM     13  C   UNL     1       6.106  -6.377  27.477  0.00  0.00    +0.425 C 
ATOM     14  O   UNL     1       7.066  -5.558  27.490  0.00  0.00    -0.237 OA
ENDBRANCH  12  13
ENDBRANCH  10  12
ENDBRANCH   3  10
BRANCH   4  15
ATOM     15  C   UNL     1       6.306  -3.357  24.529  0.00  0.00    +0.336 C 
ATOM     16  O   UNL     1       6.464  -2.165  24.839  0.00  0.00    -0.245 OA
BRANCH  15  17
ATOM     17  O   UNL     1       7.449  -4.179  24.652  0.00  0.00    -0.477 OA
ATOM     18  H   UNL     1       7.397  -5.089  24.434  0.00  0.00    +0.295 HD
ENDBRANCH  15  17
ENDBRANCH   4  15
ENDBRANCH   1   8
BRANCH   1  19
ATOM     19  O   UNL     1       3.709  -8.183  23.367  0.00  0.00    -0.360 OA
BRANCH  19  20
ATOM     20  N   UNL     1       3.077  -9.354  22.950  0.00  0.00    -0.108 NA
ATOM     21  C   UNL     1       3.073  -9.339  21.526  0.00  0.00    +0.115 C 
ATOM     22  C   UNL     1       2.836 -10.684  20.893  0.00  0.00    +0.034 C 
ATOM     23  C   UNL     1       2.419 -11.723  21.911  0.00  0.00    +0.080 C 
ATOM     24  C   UNL     1       3.482 -11.782  22.968  0.00  0.00    +0.044 C 
ATOM     25  C   UNL     1       3.770 -10.443  23.551  0.00  0.00    +0.150 C 
BRANCH  23  26
ATOM     26  S   UNL     1       2.440 -13.329  21.058  0.00  0.00    +0.018 S 
ATOM     27  O   UNL     1       3.363 -13.273  19.835  0.00  0.00    -0.260 OA
ATOM     28  H   UNL     1       1.179 -13.638  20.654  0.00  0.00    +0.139 HD
ENDBRANCH  23  26
BRANCH  25  29
ATOM     29  S   UNL     1       3.391 -10.405  25.345  0.00  0.00    -0.055 S 
BRANCH  29  30
ATOM     30  C   UNL     1       3.742 -11.988  26.095  0.00  0.00    +0.209 A 
ATOM     31  N   UNL     1       4.965 -12.321  26.537  0.00  0.00    -0.234 N 
ATOM     32  N   UNL     1       4.851 -13.537  27.019  0.00  0.00    -0.046 NA
ATOM     33  N   UNL     1       3.615 -13.963  26.892  0.00  0.00    -0.022 NA
ATOM     34  N   UNL     1       2.909 -13.014  26.320  0.00  0.00    -0.102 NA
ATOM     35  H   UNL     1       5.779 -11.768  26.506  0.00  0.00    +0.193 HD
ENDBRANCH  29  30
ENDBRANCH  25  29
ENDBRANCH  19  20
ENDBRANCH   1  19
TORSDOF 11
