REMARK  Name = =
REMARK  0 active torsions:
REMARK  status: ('A' for Active; 'I' for Inactive)
REMARK                            x       y       z     vdW  Elec       q    Type
REMARK                         _______ _______ _______ _____ _____    ______ ____
ROOT
ATOM      1  N   UNL     1      51.834 156.004  28.477  0.00  0.00    -0.287 N 
ATOM      2  C   UNL     1      50.970 155.684  29.598  0.00  0.00    +0.112 C 
ATOM      3  C   UNL     1      50.382 157.056  29.905  0.00  0.00    +0.112 C 
ATOM      4  N   UNL     1      51.539 157.907  29.724  0.00  0.00    -0.287 N 
ATOM      5  C   UNL     1      52.440 157.267  28.828  0.00  0.00    +0.301 C 
ATOM      6  O   UNL     1      53.557 157.696  28.404  0.00  0.00    -0.253 OA
ATOM      7  H   UNL     1      51.976 155.477  27.658  0.00  0.00    +0.151 HD
ATOM      8  H   UNL     1      51.679 158.783  30.150  0.00  0.00    +0.151 HD
ENDROOT
TORSDOF 0
