REMARK  Name = =
REMARK  2 active torsions:
REMARK  status: ('A' for Active; 'I' for Inactive)
REMARK    1  A    between atoms: N_1  and  N_7
REMARK    2  A    between atoms: N_7  and  N_8
REMARK                            x       y       z     vdW  Elec       q    Type
REMARK                         _______ _______ _______ _____ _____    ______ ____
ROOT
ATOM      1  N   UNL     1      51.897 155.971  28.556  0.00  0.00    -0.195 N 
ATOM      2  C   UNL     1      50.855 155.798  29.538  0.00  0.00    +0.135 C 
ATOM      3  C   UNL     1      50.449 157.174  29.909  0.00  0.00    +0.114 C 
ATOM      4  N   UNL     1      51.714 157.908  29.751  0.00  0.00    -0.286 N 
ATOM      5  C   UNL     1      52.512 157.225  28.794  0.00  0.00    +0.318 C 
ATOM      6  O   UNL     1      53.558 157.671  28.274  0.00  0.00    -0.251 OA
ATOM      7  H   UNL     1      51.965 158.732  30.227  0.00  0.00    +0.151 HD
ENDROOT
BRANCH   1   8
ATOM      8  N   UNL     1      52.188 155.045  27.591  0.00  0.00    -0.174 NA
ATOM      9  H   UNL     1      51.646 155.273  26.757  0.00  0.00    +0.164 HD
BRANCH   8  10
ATOM     10  N   UNL     1      53.528 154.985  27.234  0.00  0.00    -0.254 NA
ATOM     11  H   UNL     1      54.089 154.758  28.055  0.00  0.00    +0.138 HD
ATOM     12  H   UNL     1      53.821 155.888  26.861  0.00  0.00    +0.138 HD
ENDBRANCH   8  10
ENDBRANCH   1   8
TORSDOF 2
