REMARK  Name = =
REMARK  3 active torsions:
REMARK  status: ('A' for Active; 'I' for Inactive)
REMARK    1  A    between atoms: N_1  and  C_11
REMARK    2  A    between atoms: N_1  and  N_12
REMARK    3  A    between atoms: N_12  and  N_13
REMARK                            x       y       z     vdW  Elec       q    Type
REMARK                         _______ _______ _______ _____ _____    ______ ____
ROOT
ATOM      1  N   UNL     1      53.677 155.535  27.227  0.00  0.00    -0.263 N 
ATOM      2  H   UNL     1      54.579 155.674  27.597  0.00  0.00    +0.168 HD
ENDROOT
BRANCH   1  12
ATOM      3  C   UNL     1      52.578 153.387  27.530  0.00  0.00    +0.036 C 
ATOM      4  C   UNL     1      52.285 152.139  26.998  0.00  0.00    +0.102 C 
ATOM      5  N   UNL     1      52.709 151.800  25.773  0.00  0.00    -0.225 NA
ATOM      6  C   UNL     1      53.432 152.631  25.000  0.00  0.00    +0.167 C 
ATOM      7  N   UNL     1      53.864 152.285  23.775  0.00  0.00    -0.205 NA
ATOM      8  C   UNL     1      54.588 153.080  22.983  0.00  0.00    +0.200 C 
ATOM      9  N   UNL     1      54.923 154.312  23.412  0.00  0.00    -0.222 NA
ATOM     10  C   UNL     1      54.504 154.706  24.654  0.00  0.00    +0.105 C 
ATOM     11  C   UNL     1      53.757 153.892  25.478  0.00  0.00    +0.069 C 
ATOM     12  C   UNL     1      53.330 154.258  26.733  0.00  0.00    +0.065 C 
ENDBRANCH   1  12
BRANCH   1  13
ATOM     13  N   UNL     1      52.785 156.604  27.207  0.00  0.00    -0.156 NA
ATOM     14  H   UNL     1      52.256 156.587  26.335  0.00  0.00    +0.168 HD
BRANCH  13  15
ATOM     15  N   UNL     1      51.898 156.506  28.293  0.00  0.00    -0.192 N 
ATOM     16  C   UNL     1      50.882 155.483  28.421  0.00  0.00    +0.136 C 
ATOM     17  C   UNL     1      50.327 155.589  29.824  0.00  0.00    +0.114 C 
ATOM     18  N   UNL     1      51.154 156.584  30.467  0.00  0.00    -0.286 N 
ATOM     19  C   UNL     1      51.802 157.347  29.449  0.00  0.00    +0.318 C 
ATOM     20  O   UNL     1      52.216 158.508  29.511  0.00  0.00    -0.251 OA
ATOM     21  H   UNL     1      51.253 156.713  31.438  0.00  0.00    +0.151 HD
ENDBRANCH  13  15
ENDBRANCH   1  13
TORSDOF 3
