REMARK  Name = =
REMARK  2 active torsions:
REMARK  status: ('A' for Active; 'I' for Inactive)
REMARK    1  A    between atoms: C_3  and  N_10
REMARK    2  A    between atoms: N_10  and  N_11
REMARK                            x       y       z     vdW  Elec       q    Type
REMARK                         _______ _______ _______ _____ _____    ______ ____
ROOT
ATOM      1  C   UNL     1     -13.453 -42.672  27.529  0.00  0.00    +0.182 C 
ATOM      2  N   UNL     1     -12.770 -42.602  28.621  0.00  0.00    -0.209 NA
ATOM      3  C   UNL     1     -12.073 -43.856  28.774  0.00  0.00    +0.303 C 
ATOM      4  N   UNL     1     -12.466 -44.611  27.628  0.00  0.00    -0.224 NA
ATOM      5  C   UNL     1     -13.266 -43.889  26.930  0.00  0.00    +0.134 C 
ATOM      6  C   UNL     1     -13.904 -44.205  25.729  0.00  0.00    +0.122 C 
ATOM      7  N   UNL     1     -14.695 -43.267  25.204  0.00  0.00    -0.221 NA
ATOM      8  C   UNL     1     -14.886 -42.075  25.778  0.00  0.00    +0.200 C 
ATOM      9  N   UNL     1     -14.281 -41.775  26.917  0.00  0.00    -0.204 NA
ENDROOT
BRANCH   3  10
ATOM     10  N   UNL     1     -10.676 -43.560  28.821  0.00  0.00    -0.218 N 
ATOM     11  H   UNL     1     -10.118 -44.018  29.491  0.00  0.00    +0.173 HD
BRANCH  10  12
ATOM     12  N   UNL     1     -10.073 -42.650  27.957  0.00  0.00    -0.179 NA
ATOM     13  C   UNL     1      -9.102 -41.928  28.367  0.00  0.00    +0.139 C 
ENDBRANCH  10  12
ENDBRANCH   3  10
TORSDOF 2
