REMARK  Name = =
REMARK  6 active torsions:
REMARK  status: ('A' for Active; 'I' for Inactive)
REMARK    1  A    between atoms: N_1  and  C_4
REMARK    2  A    between atoms: N_1  and  N_11
REMARK    3  A    between atoms: N_1  and  N_13
REMARK    4  A    between atoms: N_13  and  P_14
REMARK    5  A    between atoms: P_14  and  N_16
REMARK    6  A    between atoms: P_14  and  N_17
REMARK                            x       y       z     vdW  Elec       q    Type
REMARK                         _______ _______ _______ _____ _____    ______ ____
ROOT
ATOM      1  N   UNL     1     -11.447 -43.350  29.633  0.00  0.00    -0.125 N 
ENDROOT
BRANCH   1   4
ATOM      2  C   UNL     1     -13.240 -42.203  27.143  0.00  0.00    +0.182 C 
ATOM      3  N   UNL     1     -12.270 -41.893  27.917  0.00  0.00    -0.208 NA
ATOM      4  C   UNL     1     -11.531 -43.084  28.217  0.00  0.00    +0.321 C 
ATOM      5  N   UNL     1     -12.246 -44.095  27.488  0.00  0.00    -0.223 NA
ATOM      6  C   UNL     1     -13.234 -43.542  26.875  0.00  0.00    +0.134 C 
ATOM      7  C   UNL     1     -14.244 -44.022  26.037  0.00  0.00    +0.122 C 
ATOM      8  N   UNL     1     -15.159 -43.200  25.533  0.00  0.00    -0.221 NA
ATOM      9  C   UNL     1     -15.164 -41.892  25.796  0.00  0.00    +0.200 C 
ATOM     10  N   UNL     1     -14.187 -41.427  26.606  0.00  0.00    -0.204 NA
ENDBRANCH   1   4
BRANCH   1  11
ATOM     11  N   UNL     1     -10.345 -44.074  30.090  0.00  0.00    -0.161 NA
ATOM     12  C   UNL     1      -9.215 -43.453  30.176  0.00  0.00    +0.141 C 
ENDBRANCH   1  11
BRANCH   1  13
ATOM     13  N   UNL     1     -12.377 -42.934  30.542  0.00  0.00    -0.143 NA
ATOM     14  H   UNL     1     -12.836 -42.109  30.157  0.00  0.00    +0.156 HD
BRANCH  13  15
ATOM     15  P   UNL     1     -13.594 -44.048  30.967  0.00  0.00    +0.293 P 
ATOM     16  O   UNL     1     -13.686 -44.125  32.485  0.00  0.00    -0.268 OA
BRANCH  15  17
ATOM     17  N   UNL     1     -13.227 -45.688  30.423  0.00  0.00    -0.256 NA
ATOM     18  H   UNL     1     -12.300 -45.956  30.752  0.00  0.00    +0.128 HD
ATOM     19  H   UNL     1     -13.248 -45.721  29.404  0.00  0.00    +0.128 HD
ENDBRANCH  15  17
BRANCH  15  20
ATOM     20  N   UNL     1     -15.186 -43.626  30.385  0.00  0.00    -0.256 NA
ATOM     21  H   UNL     1     -15.419 -42.680  30.688  0.00  0.00    +0.128 HD
ATOM     22  H   UNL     1     -15.870 -44.282  30.761  0.00  0.00    +0.128 HD
ENDBRANCH  15  20
ENDBRANCH  13  15
ENDBRANCH   1  13
TORSDOF 6
