REMARK  Name = =
REMARK  9 active torsions:
REMARK  status: ('A' for Active; 'I' for Inactive)
REMARK    1  A    between atoms: N_1  and  P_2
REMARK    2  A    between atoms: N_1  and  N_6
REMARK    3  A    between atoms: P_2  and  N_4
REMARK    4  A    between atoms: P_2  and  N_5
REMARK    5  A    between atoms: N_6  and  C_9
REMARK    6  A    between atoms: N_6  and  N_16
REMARK    7  A    between atoms: N_20  and  C_21
REMARK    8  A    between atoms: C_21  and  C_23
REMARK    9  A    between atoms: C_23  and  O_25
REMARK                            x       y       z     vdW  Elec       q    Type
REMARK                         _______ _______ _______ _____ _____    ______ ____
ROOT
ATOM      1  N   UNL     1     -12.224 -43.349  28.813  0.00  0.00    -0.095 N 
ENDROOT
BRANCH   1   4
ATOM      2  C   UNL     1     -14.282 -42.445  26.409  0.00  0.00    +0.182 C 
ATOM      3  N   UNL     1     -14.040 -42.226  27.668  0.00  0.00    -0.208 NA
ATOM      4  C   UNL     1     -13.524 -43.455  28.217  0.00  0.00    +0.323 C 
ATOM      5  N   UNL     1     -13.505 -44.392  27.113  0.00  0.00    -0.223 NA
ATOM      6  C   UNL     1     -13.959 -43.739  26.090  0.00  0.00    +0.134 C 
ATOM      7  C   UNL     1     -14.160 -44.144  24.765  0.00  0.00    +0.122 C 
ATOM      8  N   UNL     1     -14.647 -43.306  23.840  0.00  0.00    -0.221 NA
ATOM      9  C   UNL     1     -14.961 -42.039  24.162  0.00  0.00    +0.200 C 
ATOM     10  N   UNL     1     -14.773 -41.638  25.428  0.00  0.00    -0.204 NA
ENDBRANCH   1   4
BRANCH   1  11
ATOM     11  N   UNL     1     -12.071 -43.274  30.201  0.00  0.00    +0.034 NA
ATOM     12  O   UNL     1     -10.896 -43.802  30.597  0.00  0.00    -0.089 OA
BRANCH  11  13
ATOM     13  P   UNL     1     -13.338 -44.138  31.036  0.00  0.00    +0.322 P 
ATOM     14  O   UNL     1     -12.828 -44.529  32.402  0.00  0.00    -0.266 OA
BRANCH  13  15
ATOM     15  N   UNL     1     -14.725 -43.114  31.213  0.00  0.00    -0.254 NA
ATOM     16  H   UNL     1     -14.457 -42.261  31.703  0.00  0.00    +0.128 HD
ATOM     17  H   UNL     1     -15.442 -43.603  31.749  0.00  0.00    +0.128 HD
ENDBRANCH  13  15
BRANCH  13  18
ATOM     18  N   UNL     1     -13.796 -45.595  30.199  0.00  0.00    -0.254 NA
ATOM     19  H   UNL     1     -14.145 -45.358  29.270  0.00  0.00    +0.128 HD
ATOM     20  H   UNL     1     -14.527 -46.074  30.725  0.00  0.00    +0.128 HD
ENDBRANCH  13  18
ENDBRANCH  11  13
ENDBRANCH   1  11
BRANCH   1  21
ATOM     21  N   UNL     1     -11.072 -43.318  28.038  0.00  0.00    -0.158 NA
ATOM     22  C   UNL     1     -10.734 -42.399  27.225  0.00  0.00    +0.141 C 
ENDBRANCH   1  21
TORSDOF 6
REMARK  Name = =
REMARK  9 active torsions:
REMARK  status: ('A' for Active; 'I' for Inactive)
REMARK    1  A    between atoms: N_1  and  P_2
REMARK    2  A    between atoms: N_1  and  N_6
REMARK    3  A    between atoms: P_2  and  N_4
REMARK    4  A    between atoms: P_2  and  N_5
REMARK    5  A    between atoms: N_6  and  C_9
REMARK    6  A    between atoms: N_6  and  N_16
REMARK    7  A    between atoms: N_20  and  C_21
REMARK    8  A    between atoms: C_21  and  C_23
REMARK    9  A    between atoms: C_23  and  O_25
REMARK                            x       y       z     vdW  Elec       q    Type
REMARK                         _______ _______ _______ _____ _____    ______ ____
ROOT
ATOM      1  I   UNL     1      -9.326 -42.635  30.058  0.00  0.00    -0.107 I 
ATOM      2  H   UNL     1      -7.765 -42.635  30.058  0.00  0.00    +0.107 HD
ENDROOT
TORSDOF 0
REMARK  Name = =
REMARK  9 active torsions:
REMARK  status: ('A' for Active; 'I' for Inactive)
REMARK    1  A    between atoms: N_1  and  P_2
REMARK    2  A    between atoms: N_1  and  N_6
REMARK    3  A    between atoms: P_2  and  N_4
REMARK    4  A    between atoms: P_2  and  N_5
REMARK    5  A    between atoms: N_6  and  C_9
REMARK    6  A    between atoms: N_6  and  N_16
REMARK    7  A    between atoms: N_20  and  C_21
REMARK    8  A    between atoms: C_21  and  C_23
REMARK    9  A    between atoms: C_23  and  O_25
REMARK                            x       y       z     vdW  Elec       q    Type
REMARK                         _______ _______ _______ _____ _____    ______ ____
ROOT
ATOM      1  C   UNL     1      -7.119 -43.352  32.061  0.00  0.00    +0.337 C 
ATOM      2  O   UNL     1      -6.907 -44.354  31.322  0.00  0.00    -0.261 OA
ENDROOT
BRANCH   1   3
ATOM      3  N   UNL     1      -8.136 -42.415  31.743  0.00  0.00    -0.225 NA
ATOM      4  H   UNL     1      -8.290 -41.638  32.328  0.00  0.00    +0.173 HD
ENDBRANCH   1   3
BRANCH   1   5
ATOM      5  C   UNL     1      -6.301 -43.170  33.250  0.00  0.00    +0.394 C 
ATOM      6  O   UNL     1      -6.478 -42.152  33.985  0.00  0.00    -0.240 OA
BRANCH   5   7
ATOM      7  O   UNL     1      -5.315 -44.058  33.643  0.00  0.00    -0.474 OA
ATOM      8  H   UNL     1      -5.146 -44.826  33.133  0.00  0.00    +0.296 HD
ENDBRANCH   5   7
ENDBRANCH   1   5
TORSDOF 3
