MODEL 1
REMARK VINA RESULT:    -9.991      0.000      0.000
REMARK INTER + INTRA:         -16.676
REMARK INTER:                 -14.664
REMARK INTRA:                  -2.012
REMARK UNBOUND:                -2.012
REMARK  Name = =
REMARK  9 active torsions:
REMARK  status: ('A' for Active; 'I' for Inactive)
REMARK    1  A    between atoms: O_1  and  C_2
REMARK    2  A    between atoms: O_1  and  O_21
REMARK    3  A    between atoms: C_6  and  C_17
REMARK    4  A    between atoms: C_13  and  O_20
REMARK    5  A    between atoms: C_17  and  O_19
REMARK    6  A    between atoms: O_21  and  N_22
REMARK    7  A    between atoms: N_22  and  C_26
REMARK    8  A    between atoms: C_23  and  C_30
REMARK    9  A    between atoms: C_33  and  C_35
REMARK                            x       y       z     vdW  Elec       q    Type
REMARK                         _______ _______ _______ _____ _____    ______ ____
ROOT
ATOM      1  O   UNL     1       2.498  -4.895  30.540  0.00  0.00    -0.313 OA
ENDROOT
BRANCH   1   2
ATOM      2  C   UNL     1       2.243  -5.190  31.872  0.00  0.00    +0.188 C 
ATOM      3  C   UNL     1       1.180  -6.057  32.088  0.00  0.00    +0.073 C 
ATOM      4  C   UNL     1       0.853  -6.404  33.363  0.00  0.00    -0.011 C 
ATOM      5  C   UNL     1       1.614  -5.865  34.438  0.00  0.00    +0.003 C 
ATOM      6  C   UNL     1       2.662  -5.012  34.218  0.00  0.00    +0.078 C 
ATOM      7  C   UNL     1       2.977  -4.673  32.925  0.00  0.00    +0.047 C 
ATOM      8  C   UNL     1      -0.252  -7.306  33.688  0.00  0.00    +0.053 C 
ATOM      9  C   UNL     1      -0.975  -7.836  32.532  0.00  0.00    -0.012 C 
ATOM     10  C   UNL     1      -2.046  -8.733  32.785  0.00  0.00    -0.004 C 
ATOM     11  C   UNL     1      -2.776  -9.269  31.767  0.00  0.00    +0.003 C 
ATOM     12  C   UNL     1      -2.485  -8.951  30.463  0.00  0.00    +0.037 C 
ATOM     13  C   UNL     1      -1.435  -8.074  30.202  0.00  0.00    +0.136 C 
ATOM     14  C   UNL     1      -0.692  -7.525  31.231  0.00  0.00    +0.069 C 
ATOM     15  C   UNL     1       0.412  -6.612  30.977  0.00  0.00    +0.201 C 
ATOM     16  O   UNL     1       0.718  -6.290  29.819  0.00  0.00    -0.286 OA
BRANCH   6  17
ATOM     17  C   UNL     1       3.434  -4.465  35.352  0.00  0.00    +0.338 C 
ATOM     18  O   UNL     1       4.451  -3.777  35.133  0.00  0.00    -0.245 OA
BRANCH  17  19
ATOM     19  O   UNL     1       3.064  -4.691  36.658  0.00  0.00    -0.477 OA
ATOM     20  H   UNL     1       2.522  -5.426  36.871  0.00  0.00    +0.295 HD
ENDBRANCH  17  19
ENDBRANCH   6  17
BRANCH  13  21
ATOM     21  O   UNL     1      -1.105  -7.725  28.908  0.00  0.00    -0.505 OA
ATOM     22  H   UNL     1      -1.748  -7.334  28.349  0.00  0.00    +0.292 HD
ENDBRANCH  13  21
ENDBRANCH   1   2
BRANCH   1  23
ATOM     23  O   UNL     1       2.366  -3.698  29.980  0.00  0.00    -0.059 OA
BRANCH  23  24
ATOM     24  N   UNL     1       2.474  -3.722  28.638  0.00  0.00    -0.098 N 
ATOM     25  C   UNL     1       1.392  -3.271  27.815  0.00  0.00    +0.331 C 
ATOM     26  O   UNL     1       1.490  -3.244  26.568  0.00  0.00    -0.262 OA
BRANCH  24  28
ATOM     27  C   UNL     1       3.890  -5.459  27.633  0.00  0.00    -0.004 C 
ATOM     28  C   UNL     1       3.645  -4.182  27.962  0.00  0.00    +0.081 C 
ATOM     29  C   UNL     1       4.747  -3.351  27.525  0.00  0.00    +0.013 C 
ATOM     30  C   UNL     1       5.648  -4.150  26.934  0.00  0.00    -0.020 C 
ATOM     31  C   UNL     1       5.177  -5.564  26.953  0.00  0.00    +0.053 C 
ENDBRANCH  24  28
BRANCH  25  32
ATOM     32  C   UNL     1       0.119  -2.826  28.411  0.00  0.00    +0.279 C 
ATOM     33  N   UNL     1      -0.431  -1.674  28.293  0.00  0.00    -0.230 NA
ATOM     34  C   UNL     1      -1.691  -1.613  29.031  0.00  0.00    +0.179 C 
ATOM     35  C   UNL     1      -1.998  -3.103  29.103  0.00  0.00    +0.235 C 
ATOM     36  O   UNL     1      -0.679  -3.619  29.205  0.00  0.00    -0.453 OA
BRANCH  35  37
ATOM     37  C   UNL     1      -2.806  -3.477  30.273  0.00  0.00    +0.141 C 
ATOM     38  N   UNL     1      -3.262  -2.518  31.120  0.00  0.00    -0.146 NA
ATOM     39  N   UNL     1      -3.980  -2.878  32.149  0.00  0.00    -0.125 NA
ATOM     40  C   UNL     1      -4.260  -4.155  32.366  0.00  0.00    +0.222 C 
ATOM     41  N   UNL     1      -3.834  -5.126  31.562  0.00  0.00    -0.220 NA
ATOM     42  C   UNL     1      -3.090  -4.802  30.490  0.00  0.00    +0.121 C 
ENDBRANCH  35  37
ENDBRANCH  25  32
ENDBRANCH  23  24
ENDBRANCH   1  23
TORSDOF 9
ENDMDL
