MODEL 1
REMARK VINA RESULT:    -8.224      0.000      0.000
REMARK INTER + INTRA:         -12.966
REMARK INTER:                 -11.590
REMARK INTRA:                  -1.376
REMARK UNBOUND:                -1.376
REMARK  Name = =
REMARK  8 active torsions:
REMARK  status: ('A' for Active; 'I' for Inactive)
REMARK    1  A    between atoms: C_1  and  N_22
REMARK    2  A    between atoms: C_3  and  S_40
REMARK    3  A    between atoms: C_4  and  O_41
REMARK    4  A    between atoms: C_6  and  N_7
REMARK    5  A    between atoms: C_8  and  N_16
REMARK    6  A    between atoms: N_22  and  C_27
REMARK    7  A    between atoms: N_25  and  C_33
REMARK    8  A    between atoms: C_31  and  C_35
REMARK                            x       y       z     vdW  Elec       q    Type
REMARK                         _______ _______ _______ _____ _____    ______ ____
ROOT
ATOM      1  C   UNL     1       0.864  -6.337  29.790  0.00  0.00    +0.070 C 
ATOM      2  C   UNL     1       0.767  -7.059  30.990  0.00  0.00    +0.025 C 
ATOM      3  C   UNL     1       1.271  -6.483  32.146  0.00  0.00    +0.057 C 
ATOM      4  C   UNL     1       1.854  -5.240  32.143  0.00  0.00    +0.140 C 
ATOM      5  C   UNL     1       1.925  -4.572  30.940  0.00  0.00    +0.053 C 
ATOM      6  C   UNL     1       1.439  -5.099  29.757  0.00  0.00    +0.069 C 
ENDROOT
BRANCH   6   7
ATOM      7  N   UNL     1       1.642  -4.308  28.597  0.00  0.00    -0.274 N 
ATOM      8  C   UNL     1       0.778  -3.515  27.790  0.00  0.00    +0.143 C 
ATOM      9  C   UNL     1       1.657  -2.933  26.714  0.00  0.00    +0.065 C 
ATOM     10  C   UNL     1       3.011  -3.425  26.960  0.00  0.00    -0.005 C 
ATOM     11  C   UNL     1       2.993  -4.225  28.051  0.00  0.00    +0.049 C 
ATOM     12  C   UNL     1       4.194  -4.799  28.450  0.00  0.00    +0.015 C 
ATOM     13  C   UNL     1       5.372  -4.583  27.786  0.00  0.00    +0.001 C 
ATOM     14  C   UNL     1       5.374  -3.767  26.681  0.00  0.00    -0.000 C 
ATOM     15  C   UNL     1       4.188  -3.196  26.282  0.00  0.00    -0.003 C 
BRANCH   8  16
ATOM     16  N   UNL     1       0.147  -2.406  28.473  0.00  0.00    -0.253 NA
ATOM     17  C   UNL     1      -0.705  -2.877  29.510  0.00  0.00    +0.106 C 
ATOM     18  C   UNL     1      -2.097  -2.334  29.490  0.00  0.00    +0.160 C 
ATOM     19  O   UNL     1      -2.175  -1.024  29.038  0.00  0.00    -0.351 OA
ATOM     20  C   UNL     1      -1.767  -1.039  27.715  0.00  0.00    +0.160 C 
ATOM     21  C   UNL     1      -0.315  -1.354  27.662  0.00  0.00    +0.106 C 
ENDBRANCH   8  16
ENDBRANCH   6   7
BRANCH   1  22
ATOM     22  N   UNL     1       0.349  -6.877  28.601  0.00  0.00    -0.236 N 
ATOM     23  C   UNL     1      -1.039  -6.657  28.342  0.00  0.00    +0.308 C 
ATOM     24  O   UNL     1      -1.790  -5.998  29.105  0.00  0.00    -0.265 OA
BRANCH  22  27
ATOM     25  N   UNL     1       1.285  -9.766  26.520  0.00  0.00    -0.270 NA
ATOM     26  C   UNL     1       0.400  -8.921  27.251  0.00  0.00    +0.111 C 
ATOM     27  C   UNL     1       1.104  -7.616  27.647  0.00  0.00    +0.170 C 
ATOM     28  N   UNL     1       1.322  -6.890  26.451  0.00  0.00    -0.197 NA
ATOM     29  C   UNL     1       2.032  -7.659  25.465  0.00  0.00    +0.108 C 
ATOM     30  C   UNL     1       2.338  -9.070  25.849  0.00  0.00    +0.091 C 
BRANCH  25  33
ATOM     31  C   UNL     1       2.721 -12.537  26.523  0.00  0.00    +0.027 C 
ATOM     32  C   UNL     1       3.145 -11.357  26.790  0.00  0.00    +0.018 C 
ATOM     33  C   UNL     1       1.832 -10.893  27.248  0.00  0.00    +0.058 C 
ATOM     34  C   UNL     1       1.357 -12.243  26.908  0.00  0.00    +0.018 C 
BRANCH  31  35
ATOM     35  C   UNL     1       3.347 -13.778  25.989  0.00  0.00    +0.103 C 
ATOM     36  S   UNL     1       3.886 -13.559  24.241  0.00  0.00    -0.124 S 
ATOM     37  C   UNL     1       5.254 -14.803  24.376  0.00  0.00    +0.076 C 
ATOM     38  C   UNL     1       5.615 -14.510  25.817  0.00  0.00    +0.081 C 
ATOM     39  N   UNL     1       4.507 -14.229  26.610  0.00  0.00    -0.289 NA
ATOM     40  H   UNL     1       4.790 -13.512  27.279  0.00  0.00    +0.124 HD
ENDBRANCH  31  35
ENDBRANCH  25  33
ENDBRANCH  22  27
ENDBRANCH   1  22
BRANCH   3  41
ATOM     41  S   UNL     1       1.142  -7.423  33.684  0.00  0.00    -0.138 S 
ATOM     42  H   UNL     1       0.507  -8.601  33.445  0.00  0.00    +0.107 HD
ENDBRANCH   3  41
BRANCH   4  43
ATOM     43  O   UNL     1       2.349  -4.684  33.316  0.00  0.00    -0.505 OA
ATOM     44  H   UNL     1       3.191  -4.273  33.321  0.00  0.00    +0.292 HD
ENDBRANCH   4  43
TORSDOF 8
ENDMDL
