MODEL 1
REMARK VINA RESULT:    -4.706      0.000      0.000
REMARK INTER + INTRA:          -7.662
REMARK INTER:                  -7.319
REMARK INTRA:                  -0.343
REMARK UNBOUND:                -0.343
REMARK  Name = =
REMARK  10 active torsions:
REMARK  status: ('A' for Active; 'I' for Inactive)
REMARK    1  A    between atoms: C_1  and  C_16
REMARK    2  A    between atoms: C_12  and  C_29
REMARK    3  A    between atoms: N_15  and  O_21
REMARK    4  A    between atoms: O_21  and  C_22
REMARK    5  A    between atoms: N_24  and  S_25
REMARK    6  A    between atoms: S_25  and  O_28
REMARK    7  A    between atoms: C_31  and  O_35
REMARK    8  A    between atoms: O_35  and  C_36
REMARK    9  A    between atoms: C_36  and  O_38
REMARK   10  A    between atoms: O_38  and  C_39
REMARK                            x       y       z     vdW  Elec       q    Type
REMARK                         _______ _______ _______ _____ _____    ______ ____
ROOT
ATOM      1  C   UNL     1      52.855 152.135  26.275  0.00  0.00    -0.003 C 
ATOM      2  C   UNL     1      52.373 150.884  26.595  0.00  0.00    -0.003 C 
ATOM      3  C   UNL     1      51.597 150.618  27.719  0.00  0.00    +0.001 C 
ATOM      4  C   UNL     1      51.296 151.663  28.553  0.00  0.00    +0.019 C 
ATOM      5  C   UNL     1      51.756 152.950  28.273  0.00  0.00    +0.081 C 
ATOM      6  C   UNL     1      52.526 153.189  27.153  0.00  0.00    +0.015 C 
ATOM      7  C   UNL     1      52.889 154.486  26.855  0.00  0.00    +0.003 C 
ATOM      8  C   UNL     1      52.498 155.568  27.651  0.00  0.00    +0.018 C 
ATOM      9  C   UNL     1      51.730 155.271  28.759  0.00  0.00    +0.081 C 
ATOM     10  N   UNL     1      51.386 153.985  29.036  0.00  0.00    -0.245 NA
ATOM     11  C   UNL     1      51.267 156.294  29.549  0.00  0.00    +0.019 C 
ATOM     12  C   UNL     1      51.536 157.621  29.287  0.00  0.00    +0.002 C 
ATOM     13  C   UNL     1      52.310 157.907  28.175  0.00  0.00    +0.000 C 
ATOM     14  C   UNL     1      52.785 156.877  27.368  0.00  0.00    +0.001 C 
ENDROOT
BRANCH   1  16
ATOM     15  N   UNL     1      55.156 152.118  25.562  0.00  0.00    -0.113 NA
ATOM     16  C   UNL     1      53.766 152.368  25.143  0.00  0.00    +0.118 C 
ATOM     17  C   UNL     1      53.536 151.396  24.006  0.00  0.00    +0.024 C 
ATOM     18  C   UNL     1      53.683 149.960  24.351  0.00  0.00    +0.003 C 
ATOM     19  C   UNL     1      55.104 149.692  24.791  0.00  0.00    +0.021 C 
ATOM     20  C   UNL     1      55.747 150.891  25.417  0.00  0.00    +0.114 C 
BRANCH  15  21
ATOM     21  O   UNL     1      56.000 153.160  25.246  0.00  0.00    -0.349 OA
BRANCH  21  22
ATOM     22  C   UNL     1      55.532 154.286  24.610  0.00  0.00    +0.439 C 
ATOM     23  O   UNL     1      55.292 154.313  23.382  0.00  0.00    -0.223 OA
ATOM     24  N   UNL     1      55.274 155.530  25.285  0.00  0.00    -0.150 N 
ATOM     25  H   UNL     1      55.446 155.608  26.252  0.00  0.00    +0.180 HD
BRANCH  24  26
ATOM     26  S   UNL     1      54.659 156.896  24.401  0.00  0.00    +0.064 S 
ATOM     27  O   UNL     1      55.070 158.196  25.092  0.00  0.00    -0.053 OA
ATOM     28  O   UNL     1      53.191 156.835  24.181  0.00  0.00    -0.053 OA
BRANCH  26  29
ATOM     29  O   UNL     1      55.413 156.971  22.878  0.00  0.00    -0.256 OA
ATOM     30  H   UNL     1      56.246 156.475  22.905  0.00  0.00    +0.244 HD
ENDBRANCH  26  29
ENDBRANCH  24  26
ENDBRANCH  21  22
ENDBRANCH  15  21
ENDBRANCH   1  16
BRANCH  12  31
ATOM     31  C   UNL     1      50.965 158.635  30.152  0.00  0.00    +0.003 C 
ATOM     32  C   UNL     1      51.644 159.818  30.348  0.00  0.00    +0.038 C 
ATOM     33  C   UNL     1      51.167 160.837  31.187  0.00  0.00    +0.152 C 
ATOM     34  C   UNL     1      49.975 160.619  31.826  0.00  0.00    +0.038 C 
ATOM     35  C   UNL     1      49.257 159.435  31.653  0.00  0.00    +0.003 C 
ATOM     36  C   UNL     1      49.778 158.464  30.812  0.00  0.00    +0.000 C 
BRANCH  33  37
ATOM     37  O   UNL     1      51.882 162.008  31.354  0.00  0.00    -0.394 OA
BRANCH  37  38
ATOM     38  C   UNL     1      53.247 162.085  31.072  0.00  0.00    +0.518 C 
ATOM     39  O   UNL     1      53.531 162.526  29.922  0.00  0.00    -0.202 OA
BRANCH  38  40
ATOM     40  O   UNL     1      54.227 161.721  31.949  0.00  0.00    -0.385 OA
BRANCH  40  41
ATOM     41  C   UNL     1      55.578 162.124  31.828  0.00  0.00    +0.396 C 
ATOM     42  O   UNL     1      56.244 161.417  31.029  0.00  0.00    -0.167 OA
ENDBRANCH  40  41
ENDBRANCH  38  40
ENDBRANCH  37  38
ENDBRANCH  33  37
ENDBRANCH  12  31
TORSDOF 10
ENDMDL
