REMARK  Name = =
REMARK  2 active torsions:
REMARK  status: ('A' for Active; 'I' for Inactive)
REMARK    1  A    between atoms: C_10  and  N_18
REMARK    2  A    between atoms: N_18  and  O_19
REMARK                            x       y       z     vdW  Elec       q    Type
REMARK                         _______ _______ _______ _____ _____    ______ ____
ROOT
ATOM      1  C   UNL     1     -14.535  -5.636  20.382  0.00  0.00    +0.022 C 
ATOM      2  C   UNL     1     -14.542  -4.883  21.722  0.00  0.00    +0.004 C 
ATOM      3  C   UNL     1     -13.315  -5.396  22.441  0.00  0.00    +0.001 C 
ATOM      4  C   UNL     1     -13.642  -6.759  22.996  0.00  0.00    +0.004 C 
ATOM      5  C   UNL     1     -14.693  -7.467  22.178  0.00  0.00    +0.018 C 
ATOM      6  C   UNL     1     -14.469  -8.940  22.344  0.00  0.00    +0.009 C 
ATOM      7  C   UNL     1     -15.343  -9.800  21.499  0.00  0.00    +0.026 C 
ATOM      8  C   UNL     1     -15.124  -9.360  20.075  0.00  0.00    -0.030 C 
ATOM      9  C   UNL     1     -15.114 -10.236  19.087  0.00  0.00    -0.013 C 
ATOM     10  C   UNL     1     -14.903  -9.836  17.685  0.00  0.00    +0.102 C 
ATOM     11  C   UNL     1     -14.176  -8.515  17.561  0.00  0.00    +0.027 C 
ATOM     12  C   UNL     1     -14.949  -7.480  18.388  0.00  0.00    +0.027 C 
ATOM     13  C   UNL     1     -14.923  -7.937  19.800  0.00  0.00    -0.034 C 
ATOM     14  C   UNL     1     -14.725  -7.060  20.757  0.00  0.00    -0.049 C 
ATOM     15  C   UNL     1     -14.138  -6.539  24.412  0.00  0.00    +0.000 C 
ATOM     16  C   UNL     1     -14.074  -5.048  24.642  0.00  0.00    +0.000 C 
ATOM     17  C   UNL     1     -13.021  -4.579  23.651  0.00  0.00    +0.000 C 
ENDROOT
BRANCH  10  18
ATOM     18  N   UNL     1     -16.182  -9.670  16.983  0.00  0.00    -0.191 NA
ATOM     19  H   UNL     1     -16.001  -9.435  16.007  0.00  0.00    +0.155 HD
BRANCH  18  20
ATOM     20  O   UNL     1     -16.899 -10.804  17.040  0.00  0.00    -0.314 OA
ATOM     21  H   UNL     1     -17.073 -11.030  17.967  0.00  0.00    +0.236 HD
ENDBRANCH  18  20
ENDBRANCH  10  18
TORSDOF 2
