REMARK  Name = =
REMARK  2 active torsions:
REMARK  status: ('A' for Active; 'I' for Inactive)
REMARK    1  A    between atoms: C_19  and  N_27
REMARK    2  A    between atoms: N_27  and  O_28
REMARK                            x       y       z     vdW  Elec       q    Type
REMARK                         _______ _______ _______ _____ _____    ______ ____
ROOT
ATOM      1  C   UNL     1     -13.753  -6.208  24.594  0.00  0.00    +0.058 C 
ATOM      2  C   UNL     1     -15.154  -6.641  24.772  0.00  0.00    +0.005 C 
ATOM      3  C   UNL     1     -16.004  -5.771  23.888  0.00  0.00    +0.000 C 
ATOM      4  C   UNL     1     -15.427  -5.513  22.547  0.00  0.00    +0.003 C 
ATOM      5  C   UNL     1     -14.631  -6.402  21.874  0.00  0.00    +0.037 C 
ATOM      6  C   UNL     1     -14.591  -7.904  22.140  0.00  0.00    +0.063 C 
ATOM      7  N   UNL     1     -13.521  -8.164  23.081  0.00  0.00    -0.268 NA
ATOM      8  C   UNL     1     -12.876  -7.070  23.702  0.00  0.00    +0.197 C 
ATOM      9  N   UNL     1     -11.795  -7.442  24.529  0.00  0.00    -0.211 NA
ATOM     10  C   UNL     1     -10.636  -6.921  24.523  0.00  0.00    +0.214 C 
ATOM     11  N   UNL     1     -10.221  -5.899  23.650  0.00  0.00    -0.186 NA
ATOM     12  C   UNL     1     -11.084  -5.505  22.732  0.00  0.00    +0.187 C 
ATOM     13  N   UNL     1     -12.305  -6.136  22.639  0.00  0.00    -0.253 N 
ATOM     14  N   UNL     1     -10.763  -4.422  21.879  0.00  0.00    -0.331 N 
ATOM     15  N   UNL     1      -9.676  -7.410  25.479  0.00  0.00    -0.328 N 
ATOM     16  C   UNL     1     -14.398  -8.508  20.764  0.00  0.00    +0.037 C 
ATOM     17  C   UNL     1     -13.635  -7.743  19.782  0.00  0.00    -0.048 C 
ATOM     18  C   UNL     1     -13.499  -8.042  18.527  0.00  0.00    +0.040 C 
ATOM     19  C   UNL     1     -12.693  -7.205  17.588  0.00  0.00    +0.084 C 
ATOM     20  C   UNL     1     -12.380  -5.839  18.024  0.00  0.00    +0.023 C 
ATOM     21  C   UNL     1     -12.026  -5.708  19.532  0.00  0.00    +0.024 C 
ATOM     22  C   UNL     1     -12.933  -6.493  20.302  0.00  0.00    -0.034 C 
ATOM     23  C   UNL     1     -13.187  -6.246  21.547  0.00  0.00    +0.097 C 
ATOM     24  C   UNL     1     -16.717  -5.175  21.769  0.00  0.00    +0.000 C 
ATOM     25  C   UNL     1     -17.690  -6.204  22.271  0.00  0.00    +0.000 C 
ATOM     26  C   UNL     1     -17.351  -6.390  23.718  0.00  0.00    +0.000 C 
ATOM     27  H   UNL     1     -12.804  -8.690  22.581  0.00  0.00    +0.126 HD
ATOM     28  H   UNL     1      -9.887  -3.979  21.955  0.00  0.00    +0.145 HD
ATOM     29  H   UNL     1     -11.416  -4.112  21.210  0.00  0.00    +0.145 HD
ATOM     30  H   UNL     1      -9.927  -8.125  26.108  0.00  0.00    +0.145 HD
ATOM     31  H   UNL     1      -8.768  -7.029  25.504  0.00  0.00    +0.145 HD
ENDROOT
BRANCH  19  32
ATOM     32  N   UNL     1     -13.329  -7.156  16.291  0.00  0.00    -0.195 NA
ATOM     33  H   UNL     1     -12.756  -6.588  15.667  0.00  0.00    +0.154 HD
BRANCH  32  34
ATOM     34  O   UNL     1     -14.569  -6.626  16.343  0.00  0.00    -0.314 OA
ATOM     35  H   UNL     1     -15.124  -7.159  16.934  0.00  0.00    +0.236 HD
ENDBRANCH  32  34
ENDBRANCH  19  32
TORSDOF 2
