REMARK  Name = =
REMARK  0 active torsions:
REMARK  status: ('A' for Active; 'I' for Inactive)
REMARK                            x       y       z     vdW  Elec       q    Type
REMARK                         _______ _______ _______ _____ _____    ______ ____
ROOT
ATOM      1  N   UNL     1      51.002 154.672  28.040  0.00  0.00    -0.314 N 
ATOM      2  C   UNL     1      52.378 154.956  27.934  0.00  0.00    +0.294 C 
ATOM      3  O   UNL     1      52.866 156.014  28.439  0.00  0.00    -0.253 OA
ATOM      4  N   UNL     1      53.292 154.095  27.267  0.00  0.00    -0.314 N 
ATOM      5  H   UNL     1      50.405 155.297  28.511  0.00  0.00    +0.146 HD
ATOM      6  H   UNL     1      50.637 153.848  27.643  0.00  0.00    +0.146 HD
ATOM      7  H   UNL     1      52.971 153.260  26.856  0.00  0.00    +0.146 HD
ATOM      8  H   UNL     1      54.246 154.334  27.216  0.00  0.00    +0.146 HD
ENDROOT
TORSDOF 0
