REMARK  Name = =
REMARK  7 active torsions:
REMARK  status: ('A' for Active; 'I' for Inactive)
REMARK    1  A    between atoms: C_1  and  C_4
REMARK    2  A    between atoms: N_3  and  N_13
REMARK    3  A    between atoms: C_5  and  O_12
REMARK    4  A    between atoms: C_7  and  N_11
REMARK    5  A    between atoms: N_16  and  N_17
REMARK    6  A    between atoms: N_17  and  C_18
REMARK    7  A    between atoms: C_18  and  N_20
REMARK                            x       y       z     vdW  Elec       q    Type
REMARK                         _______ _______ _______ _____ _____    ______ ____
ROOT
ATOM      1  C   UNL     1      50.257 156.547  29.796  0.00  0.00    +0.264 C 
ATOM      2  O   UNL     1      49.409 155.879  29.153  0.00  0.00    -0.269 OA
ATOM      3  N   UNL     1      51.522 155.947  30.096  0.00  0.00    -0.229 N 
ATOM      4  H   UNL     1      52.219 156.429  30.597  0.00  0.00    +0.173 HD
ENDROOT
BRANCH   1   5
ATOM      5  C   UNL     1      49.959 157.893  30.224  0.00  0.00    +0.089 C 
ATOM      6  C   UNL     1      48.646 158.377  30.244  0.00  0.00    +0.139 C 
ATOM      7  C   UNL     1      48.387 159.689  30.673  0.00  0.00    +0.052 C 
ATOM      8  C   UNL     1      49.384 160.534  31.080  0.00  0.00    +0.055 C 
ATOM      9  C   UNL     1      50.668 160.050  31.056  0.00  0.00    +0.071 C 
ATOM     10  C   UNL     1      50.955 158.766  30.641  0.00  0.00    +0.020 C 
ATOM     11 CL   UNL     1      51.953 161.137  31.578  0.00  0.00    -0.081 Cl
BRANCH   8  12
ATOM     12  N   UNL     1      49.074 161.871  31.506  0.00  0.00    -0.356 N 
ATOM     13  H   UNL     1      48.140 162.182  31.509  0.00  0.00    +0.142 HD
ATOM     14  H   UNL     1      49.796 162.476  31.794  0.00  0.00    +0.142 HD
ENDBRANCH   8  12
BRANCH   6  15
ATOM     15  O   UNL     1      47.578 157.638  29.866  0.00  0.00    -0.505 OA
ATOM     16  H   UNL     1      47.699 156.757  29.572  0.00  0.00    +0.292 HD
ENDBRANCH   6  15
ENDBRANCH   1   5
BRANCH   3  17
ATOM     17  N   UNL     1      51.715 154.621  29.632  0.00  0.00    -0.217 N 
ATOM     18  C   UNL     1      52.474 154.372  28.459  0.00  0.00    +0.332 C 
ATOM     19  O   UNL     1      52.967 155.357  27.853  0.00  0.00    -0.250 OA
ATOM     20  N   UNL     1      52.675 153.039  27.975  0.00  0.00    -0.218 N 
ATOM     21  H   UNL     1      51.320 153.868  30.127  0.00  0.00    +0.174 HD
ATOM     22  H   UNL     1      52.276 152.287  28.471  0.00  0.00    +0.174 HD
BRANCH  20  23
ATOM     23  N   UNL     1      53.416 152.771  26.826  0.00  0.00    -0.245 N 
ATOM     24  H   UNL     1      54.105 153.409  26.529  0.00  0.00    +0.172 HD
BRANCH  23  25
ATOM     25  C   UNL     1      53.182 151.568  26.070  0.00  0.00    +0.144 C 
ATOM     26  S   UNL     1      54.031 151.350  24.688  0.00  0.00    -0.018 S 
BRANCH  25  27
ATOM     27  N   UNL     1      52.237 150.637  26.562  0.00  0.00    -0.340 N 
ATOM     28  H   UNL     1      51.755 150.821  27.400  0.00  0.00    +0.144 HD
ATOM     29  H   UNL     1      52.061 149.805  26.066  0.00  0.00    +0.144 HD
ENDBRANCH  25  27
ENDBRANCH  23  25
ENDBRANCH  20  23
ENDBRANCH   3  17
TORSDOF 7
