REMARK  Name = =
REMARK  5 active torsions:
REMARK  status: ('A' for Active; 'I' for Inactive)
REMARK    1  A    between atoms: C_1  and  C_8
REMARK    2  A    between atoms: C_2  and  O_13
REMARK    3  A    between atoms: C_3  and  N_10
REMARK    4  A    between atoms: O_13  and  C_14
REMARK    5  A    between atoms: C_15  and  C_16
REMARK                            x       y       z     vdW  Elec       q    Type
REMARK                         _______ _______ _______ _____ _____    ______ ____
ROOT
ATOM      1  C   UNL     1      48.950 160.148  31.597  0.00  0.00    +0.089 C 
ATOM      2  C   UNL     1      50.105 159.551  31.145  0.00  0.00    +0.163 C 
ATOM      3  C   UNL     1      50.026 158.472  30.262  0.00  0.00    +0.086 C 
ATOM      4  C   UNL     1      48.795 158.031  29.864  0.00  0.00    +0.018 C 
ATOM      5  C   UNL     1      47.602 158.612  30.303  0.00  0.00    +0.002 C 
ATOM      6  C   UNL     1      47.716 159.662  31.164  0.00  0.00    +0.008 C 
ENDROOT
BRANCH   1   8
ATOM      7  N   UNL     1      49.074 162.589  32.028  0.00  0.00    -0.325 N 
ATOM      8  C   UNL     1      48.972 161.272  32.515  0.00  0.00    +0.246 C 
ATOM      9  O   UNL     1      48.901 161.093  33.745  0.00  0.00    -0.270 OA
ATOM     10  H   UNL     1      49.131 162.752  31.059  0.00  0.00    +0.145 HD
ATOM     11  H   UNL     1      49.088 163.347  32.657  0.00  0.00    +0.145 HD
ENDBRANCH   1   8
BRANCH   3  12
ATOM     12  N   UNL     1      51.260 157.927  29.862  0.00  0.00    -0.274 N 
ATOM     13  C   UNL     1      51.528 156.568  29.633  0.00  0.00    +0.304 C 
ATOM     14  O   UNL     1      50.659 155.698  29.769  0.00  0.00    -0.265 OA
ATOM     15  H   UNL     1      52.005 158.557  29.730  0.00  0.00    +0.155 HD
ENDBRANCH   3  12
BRANCH   2  16
ATOM     16  O   UNL     1      51.315 160.059  31.595  0.00  0.00    -0.448 OA
BRANCH  16  17
ATOM     17  C   UNL     1      52.167 160.797  30.826  0.00  0.00    +0.191 C 
ATOM     18  C   UNL     1      53.139 161.552  31.282  0.00  0.00    +0.119 C 
BRANCH  18  19
ATOM     19  C   UNL     1      54.008 162.309  30.423  0.00  0.00    +0.104 C 
ATOM     20  N   UNL     1      54.700 162.932  29.746  0.00  0.00    -0.191 NA
ENDBRANCH  18  19
ENDBRANCH  16  17
ENDBRANCH   2  16
TORSDOF 5
