REMARK  Name = =
REMARK  6 active torsions:
REMARK  status: ('A' for Active; 'I' for Inactive)
REMARK    1  A    between atoms: C_1  and  C_8
REMARK    2  A    between atoms: C_2  and  O_19
REMARK    3  A    between atoms: C_3  and  N_16
REMARK    4  A    between atoms: N_7  and  C_15
REMARK    5  A    between atoms: O_19  and  C_20
REMARK    6  A    between atoms: C_21  and  C_22
REMARK                            x       y       z     vdW  Elec       q    Type
REMARK                         _______ _______ _______ _____ _____    ______ ____
ROOT
ATOM      1  C   UNL     1      48.845 160.802  32.881  0.00  0.00    +0.089 C 
ATOM      2  C   UNL     1      49.572 160.890  31.743  0.00  0.00    +0.163 C 
ATOM      3  C   UNL     1      49.421 159.983  30.668  0.00  0.00    +0.086 C 
ATOM      4  C   UNL     1      48.512 158.974  30.777  0.00  0.00    +0.018 C 
ATOM      5  C   UNL     1      47.745 158.856  31.953  0.00  0.00    +0.002 C 
ATOM      6  C   UNL     1      47.912 159.749  32.971  0.00  0.00    +0.008 C 
ENDROOT
BRANCH   1   8
ATOM      7  N   UNL     1      47.939 161.996  34.971  0.00  0.00    -0.302 N 
ATOM      8  C   UNL     1      48.880 161.777  33.956  0.00  0.00    +0.249 C 
ATOM      9  O   UNL     1      49.902 162.575  34.009  0.00  0.00    -0.270 OA
ATOM     10  H   UNL     1      47.146 161.413  34.999  0.00  0.00    +0.150 HD
BRANCH   7  16
ATOM     11  C   UNL     1      47.089 164.136  35.761  0.00  0.00    +0.020 C 
ATOM     12  C   UNL     1      45.686 163.782  36.204  0.00  0.00    +0.002 C 
ATOM     13  C   UNL     1      45.633 163.471  37.685  0.00  0.00    +0.000 C 
ATOM     14  C   UNL     1      47.026 163.302  38.256  0.00  0.00    +0.002 C 
ATOM     15  C   UNL     1      47.747 162.348  37.327  0.00  0.00    +0.020 C 
ATOM     16  C   UNL     1      48.062 163.033  35.987  0.00  0.00    +0.072 C 
ENDBRANCH   7  16
ENDBRANCH   1   8
BRANCH   3  17
ATOM     17  N   UNL     1      50.244 160.187  29.546  0.00  0.00    -0.274 N 
ATOM     18  C   UNL     1      51.429 159.479  29.252  0.00  0.00    +0.304 C 
ATOM     19  O   UNL     1      51.855 158.578  29.993  0.00  0.00    -0.265 OA
ATOM     20  H   UNL     1      49.969 160.886  28.909  0.00  0.00    +0.155 HD
ENDBRANCH   3  17
BRANCH   2  21
ATOM     21  O   UNL     1      50.538 161.909  31.597  0.00  0.00    -0.448 OA
BRANCH  21  22
ATOM     22  C   UNL     1      51.861 161.456  31.792  0.00  0.00    +0.191 C 
ATOM     23  C   UNL     1      52.924 162.088  31.324  0.00  0.00    +0.119 C 
BRANCH  23  24
ATOM     24  C   UNL     1      54.251 161.540  31.577  0.00  0.00    +0.104 C 
ATOM     25  N   UNL     1      55.317 161.083  31.798  0.00  0.00    -0.191 NA
ENDBRANCH  23  24
ENDBRANCH  21  22
ENDBRANCH   2  21
TORSDOF 6
