REMARK  Name = =
REMARK  6 active torsions:
REMARK  status: ('A' for Active; 'I' for Inactive)
REMARK    1  A    between atoms: C_1  and  C_19
REMARK    2  A    between atoms: C_2  and  O_27
REMARK    3  A    between atoms: C_3  and  N_7
REMARK    4  A    between atoms: N_18  and  C_26
REMARK    5  A    between atoms: O_27  and  C_28
REMARK    6  A    between atoms: C_29  and  C_30
REMARK                            x       y       z     vdW  Elec       q    Type
REMARK                         _______ _______ _______ _____ _____    ______ ____
ROOT
ATOM      1  C   UNL     1      47.859 162.668  31.236  0.00  0.00    +0.089 C 
ATOM      2  C   UNL     1      46.591 162.976  30.793  0.00  0.00    +0.164 C 
ATOM      3  C   UNL     1      46.033 164.215  31.086  0.00  0.00    +0.097 C 
ATOM      4  C   UNL     1      46.742 165.146  31.818  0.00  0.00    +0.018 C 
ATOM      5  C   UNL     1      48.013 164.854  32.266  0.00  0.00    +0.002 C 
ATOM      6  C   UNL     1      48.551 163.641  31.976  0.00  0.00    +0.008 C 
ENDROOT
BRANCH   3   7
ATOM      7  N   UNL     1      44.741 164.523  30.614  0.00  0.00    -0.182 N 
ATOM      8  C   UNL     1      43.605 164.922  31.302  0.00  0.00    +0.317 C 
ATOM      9  O   UNL     1      42.547 165.091  30.555  0.00  0.00    -0.252 OA
ATOM     10  N   UNL     1      43.427 165.168  32.648  0.00  0.00    -0.261 N 
ATOM     11  C   UNL     1      42.057 165.596  33.101  0.00  0.00    +0.112 C 
ATOM     12  C   UNL     1      42.240 166.520  34.290  0.00  0.00    +0.090 C 
ATOM     13  N   UNL     1      43.528 167.226  34.084  0.00  0.00    -0.295 NA
ATOM     14  C   UNL     1      44.510 166.254  34.593  0.00  0.00    +0.090 C 
ATOM     15  C   UNL     1      44.433 165.049  33.659  0.00  0.00    +0.112 C 
ATOM     16  C   UNL     1      44.659 164.420  29.152  0.00  0.00    +0.314 C 
ATOM     17  O   UNL     1      45.681 164.112  28.508  0.00  0.00    -0.264 OA
ATOM     18  H   UNL     1      43.561 168.096  34.616  0.00  0.00    +0.123 HD
ENDBRANCH   3   7
BRANCH   1  20
ATOM     19  N   UNL     1      48.246 160.320  30.229  0.00  0.00    -0.302 N 
ATOM     20  C   UNL     1      48.549 161.420  31.040  0.00  0.00    +0.249 C 
ATOM     21  O   UNL     1      49.655 161.242  31.708  0.00  0.00    -0.270 OA
ATOM     22  H   UNL     1      47.426 160.342  29.685  0.00  0.00    +0.150 HD
BRANCH  19  28
ATOM     23  C   UNL     1      48.435 157.842  29.967  0.00  0.00    +0.020 C 
ATOM     24  C   UNL     1      49.496 156.842  29.472  0.00  0.00    +0.002 C 
ATOM     25  C   UNL     1      50.836 157.178  30.141  0.00  0.00    +0.000 C 
ATOM     26  C   UNL     1      51.363 158.482  29.559  0.00  0.00    +0.002 C 
ATOM     27  C   UNL     1      50.187 159.352  29.108  0.00  0.00    +0.020 C 
ATOM     28  C   UNL     1      49.102 159.146  30.163  0.00  0.00    +0.072 C 
ENDBRANCH  19  28
ENDBRANCH   1  20
BRANCH   2  29
ATOM     29  O   UNL     1      45.836 162.123  30.073  0.00  0.00    -0.448 OA
BRANCH  29  30
ATOM     30  C   UNL     1      44.609 162.174  29.574  0.00  0.00    +0.191 C 
ATOM     31  C   UNL     1      43.375 162.071  29.725  0.00  0.00    +0.119 C 
BRANCH  31  32
ATOM     32  C   UNL     1      42.484 162.305  28.496  0.00  0.00    +0.104 C 
ATOM     33  N   UNL     1      41.819 162.480  27.606  0.00  0.00    -0.191 NA
ENDBRANCH  31  32
ENDBRANCH  29  30
ENDBRANCH   2  29
TORSDOF 6
