MODEL 1
REMARK VINA RESULT:    -6.928      0.000      0.000
REMARK INTER + INTRA:          -8.115
REMARK INTER:                  -8.143
REMARK INTRA:                   0.028
REMARK UNBOUND:                 0.028
REMARK  Name = =
REMARK  4 active torsions:
REMARK  status: ('A' for Active; 'I' for Inactive)
REMARK    1  A    between atoms: S_1  and  C_22
REMARK    2  A    between atoms: C_24  and  O_34
REMARK    3  A    between atoms: C_25  and  C_27
REMARK    4  A    between atoms: C_35  and  O_37
REMARK                            x       y       z     vdW  Elec       q    Type
REMARK                         _______ _______ _______ _____ _____    ______ ____
ROOT
ATOM      1  S   UNL     1      59.968 164.548  36.732  0.00  0.00    -0.104 S 
ATOM      2  N   UNL     1      60.866 163.483  37.611  0.00  0.00    -0.219 N 
ATOM      3  C   UNL     1      60.248 162.222  37.865  0.00  0.00    +0.101 C 
ATOM      4  C   UNL     1      60.512 161.292  38.868  0.00  0.00    +0.157 C 
ATOM      5  N   UNL     1      59.809 160.155  38.952  0.00  0.00    -0.227 NA
ATOM      6  C   UNL     1      58.825 159.909  38.047  0.00  0.00    +0.101 C 
ATOM      7  C   UNL     1      58.522 160.805  37.026  0.00  0.00    +0.028 C 
ATOM      8  C   UNL     1      59.247 161.969  36.945  0.00  0.00    +0.047 C 
ATOM      9  N   UNL     1      61.508 161.388  39.900  0.00  0.00    -0.214 N 
ATOM     10  C   UNL     1      62.762 162.046  39.803  0.00  0.00    +0.064 C 
ATOM     11  C   UNL     1      63.070 163.155  39.003  0.00  0.00    +0.069 C 
ATOM     12  C   UNL     1      64.340 163.667  39.044  0.00  0.00    +0.006 C 
ATOM     13  C   UNL     1      65.348 163.140  39.844  0.00  0.00    +0.000 C 
ATOM     14  C   UNL     1      65.009 162.052  40.616  0.00  0.00    +0.001 C 
ATOM     15  C   UNL     1      63.733 161.497  40.607  0.00  0.00    +0.015 C 
ATOM     16  C   UNL     1      62.176 163.851  38.074  0.00  0.00    +0.262 C 
ATOM     17  O   UNL     1      62.597 164.916  37.610  0.00  0.00    -0.269 OA
ATOM     18  C   UNL     1      61.220 160.771  41.115  0.00  0.00    +0.312 C 
ATOM     19  O   UNL     1      60.119 160.128  41.201  0.00  0.00    -0.264 OA
ATOM     20  C   UNL     1      59.074 163.839  35.509  0.00  0.00    +0.213 C 
ATOM     21  S   UNL     1      59.134 162.210  35.253  0.00  0.00    -0.073 S 
ATOM     22  H   UNL     1      59.099 165.126  37.604  0.00  0.00    +0.110 HD
ENDROOT
BRANCH   1  25
ATOM     23 CL   UNL     1      60.218 167.505  37.831  0.00  0.00    -0.082 Cl
ATOM     24  C   UNL     1      61.176 166.964  36.429  0.00  0.00    +0.063 C 
ATOM     25  C   UNL     1      61.068 165.692  35.957  0.00  0.00    +0.037 C 
ATOM     26  C   UNL     1      61.800 165.277  34.888  0.00  0.00    +0.043 C 
ATOM     27  C   UNL     1      62.695 166.135  34.228  0.00  0.00    +0.132 C 
ATOM     28  C   UNL     1      62.794 167.408  34.713  0.00  0.00    +0.039 C 
ATOM     29  C   UNL     1      62.040 167.831  35.814  0.00  0.00    +0.013 C 
BRANCH  28  30
ATOM     30  C   UNL     1      63.718 168.378  34.059  0.00  0.00    +0.176 C 
ATOM     31  N   UNL     1      65.054 167.778  33.940  0.00  0.00    -0.279 N 
ATOM     32  C   UNL     1      65.683 168.031  35.172  0.00  0.00    +0.307 C 
ATOM     33  O   UNL     1      66.683 167.416  35.649  0.00  0.00    -0.252 OA
ATOM     34  N   UNL     1      65.000 169.120  35.826  0.00  0.00    -0.238 N 
ATOM     35  C   UNL     1      63.929 169.534  34.958  0.00  0.00    +0.252 C 
ATOM     36  O   UNL     1      63.336 170.644  34.991  0.00  0.00    -0.273 OA
ATOM     37  H   UNL     1      65.428 167.301  33.165  0.00  0.00    +0.152 HD
ATOM     38  H   UNL     1      65.225 169.507  36.703  0.00  0.00    +0.159 HD
ENDBRANCH  28  30
BRANCH  27  39
ATOM     39  O   UNL     1      63.421 165.667  33.143  0.00  0.00    -0.506 OA
ATOM     40  H   UNL     1      64.136 166.169  32.805  0.00  0.00    +0.292 HD
ENDBRANCH  27  39
ENDBRANCH   1  25
BRANCH  20  41
ATOM     41  O   UNL     1      58.254 164.570  34.665  0.00  0.00    -0.366 OA
ATOM     42  H   UNL     1      57.441 164.813  35.135  0.00  0.00    +0.212 HD
ENDBRANCH  20  41
TORSDOF 4
ENDMDL
