MODEL 1
REMARK VINA RESULT:    -6.368      0.000      0.000
REMARK INTER + INTRA:          -7.652
REMARK INTER:                  -7.857
REMARK INTRA:                   0.205
REMARK UNBOUND:                 0.205
REMARK  Name = =
REMARK  4 active torsions:
REMARK  status: ('A' for Active; 'I' for Inactive)
REMARK    1  A    between atoms: C_1  and  C_8
REMARK    2  A    between atoms: C_1  and  O_20
REMARK    3  A    between atoms: C_15  and  C_18
REMARK    4  A    between atoms: O_20  and  C_22
REMARK                            x       y       z     vdW  Elec       q    Type
REMARK                         _______ _______ _______ _____ _____    ______ ____
ROOT
ATOM      1  C   UNL     1      60.866 162.064  39.199  0.00  0.00    +0.279 C 
ATOM      2  O   UNL     1      61.937 162.374  38.349  0.00  0.00    -0.420 OA
ATOM      3  C   UNL     1      63.076 162.956  38.824  0.00  0.00    +0.319 C 
ATOM      4  O   UNL     1      64.209 162.470  38.605  0.00  0.00    -0.250 OA
ATOM      5  C   UNL     1      62.970 164.197  39.619  0.00  0.00    +0.110 C 
ATOM      6  C   UNL     1      61.464 164.423  39.820  0.00  0.00    +0.019 C 
ATOM      7  C   UNL     1      60.950 163.092  40.336  0.00  0.00    +0.085 C 
ENDROOT
BRANCH   1   8
ATOM      8  C   UNL     1      61.056 160.678  39.735  0.00  0.00    +0.106 C 
ATOM      9  C   UNL     1      62.270 160.582  40.664  0.00  0.00    +0.059 C 
ATOM     10  C   UNL     1      62.360 159.207  41.256  0.00  0.00    +0.206 C 
ATOM     11  O   UNL     1      61.208 158.424  41.185  0.00  0.00    -0.476 OA
ATOM     12  C   UNL     1      59.959 159.027  41.228  0.00  0.00    +0.135 C 
ATOM     13  C   UNL     1      59.865 160.206  40.474  0.00  0.00    +0.019 C 
ATOM     14  C   UNL     1      58.684 160.862  40.461  0.00  0.00    +0.009 C 
ATOM     15  C   UNL     1      57.575 160.366  41.191  0.00  0.00    +0.068 C 
ATOM     16  C   UNL     1      57.688 159.206  41.925  0.00  0.00    +0.013 C 
ATOM     17  C   UNL     1      58.896 158.529  41.943  0.00  0.00    +0.037 C 
BRANCH  15  18
ATOM     18  C   UNL     1      56.317 161.060  41.180  0.00  0.00    +0.100 C 
ATOM     19  N   UNL     1      55.299 161.610  41.189  0.00  0.00    -0.191 NA
ENDBRANCH  15  18
ENDBRANCH   1   8
BRANCH   1  20
ATOM     20  O   UNL     1      59.691 162.175  38.488  0.00  0.00    -0.419 OA
BRANCH  20  22
ATOM     21  O   UNL     1      59.514 163.958  37.074  0.00  0.00    -0.420 OA
ATOM     22  C   UNL     1      59.424 162.667  37.260  0.00  0.00    +0.302 C 
ATOM     23  C   UNL     1      59.064 161.870  36.198  0.00  0.00    +0.120 C 
ATOM     24  C   UNL     1      58.814 162.471  34.985  0.00  0.00    +0.205 C 
ATOM     25  O   UNL     1      58.485 161.735  34.017  0.00  0.00    -0.286 OA
ATOM     26  C   UNL     1      58.932 163.836  34.879  0.00  0.00    +0.083 C 
ATOM     27  C   UNL     1      59.297 164.593  35.975  0.00  0.00    +0.186 C 
ENDBRANCH  20  22
ENDBRANCH   1  20
TORSDOF 4
ENDMDL
