REMARK  Name = =
REMARK  4 active torsions:
REMARK  status: ('A' for Active; 'I' for Inactive)
REMARK    1  A    between atoms: C_1  and  C_8
REMARK    2  A    between atoms: C_1  and  O_20
REMARK    3  A    between atoms: C_15  and  C_18
REMARK    4  A    between atoms: O_20  and  C_22
REMARK                            x       y       z     vdW  Elec       q    Type
REMARK                         _______ _______ _______ _____ _____    ______ ____
ROOT
ATOM      1  C   UNL     1      52.601 153.436  26.176  0.00  0.00    +0.279 C 
ATOM      2  O   UNL     1      52.712 152.767  27.403  0.00  0.00    -0.420 OA
ATOM      3  C   UNL     1      52.202 151.513  27.578  0.00  0.00    +0.319 C 
ATOM      4  O   UNL     1      52.898 150.571  28.018  0.00  0.00    -0.250 OA
ATOM      5  C   UNL     1      50.787 151.260  27.238  0.00  0.00    +0.110 C 
ATOM      6  C   UNL     1      50.284 152.562  26.596  0.00  0.00    +0.019 C 
ATOM      7  C   UNL     1      51.320 152.883  25.535  0.00  0.00    +0.085 C 
ENDROOT
BRANCH   1   8
ATOM      8  C   UNL     1      53.791 153.102  25.330  0.00  0.00    +0.106 C 
ATOM      9  C   UNL     1      54.084 154.191  24.293  0.00  0.00    +0.059 C 
ATOM     10  C   UNL     1      55.339 153.863  23.540  0.00  0.00    +0.206 C 
ATOM     11  O   UNL     1      56.179 152.912  24.119  0.00  0.00    -0.476 OA
ATOM     12  C   UNL     1      56.248 152.800  25.500  0.00  0.00    +0.135 C 
ATOM     13  C   UNL     1      55.007 152.896  26.146  0.00  0.00    +0.019 C 
ATOM     14  C   UNL     1      54.980 152.801  27.493  0.00  0.00    +0.009 C 
ATOM     15  C   UNL     1      56.177 152.607  28.227  0.00  0.00    +0.068 C 
ATOM     16  C   UNL     1      57.386 152.514  27.573  0.00  0.00    +0.013 C 
ATOM     17  C   UNL     1      57.420 152.612  26.192  0.00  0.00    +0.037 C 
BRANCH  15  18
ATOM     18  C   UNL     1      56.154 152.504  29.659  0.00  0.00    +0.100 C 
ATOM     19  N   UNL     1      56.156 152.419  30.814  0.00  0.00    -0.191 NA
ENDBRANCH  15  18
ENDBRANCH   1   8
BRANCH   1  20
ATOM     20  O   UNL     1      52.515 154.790  26.416  0.00  0.00    -0.419 OA
BRANCH  20  22
ATOM     21  O   UNL     1      53.254 156.117  28.120  0.00  0.00    -0.420 OA
ATOM     22  C   UNL     1      52.263 155.490  27.542  0.00  0.00    +0.302 C 
ATOM     23  C   UNL     1      51.011 155.572  28.106  0.00  0.00    +0.120 C 
ATOM     24  C   UNL     1      50.859 156.313  29.256  0.00  0.00    +0.205 C 
ATOM     25  O   UNL     1      49.710 156.384  29.767  0.00  0.00    -0.286 OA
ATOM     26  C   UNL     1      51.956 156.940  29.797  0.00  0.00    +0.083 C 
ATOM     27  C   UNL     1      53.193 156.827  29.193  0.00  0.00    +0.186 C 
ENDBRANCH  20  22
ENDBRANCH   1  20
TORSDOF 4
