REMARK  Name = =
REMARK  0 active torsions:
REMARK  status: ('A' for Active; 'I' for Inactive)
REMARK                            x       y       z     vdW  Elec       q    Type
REMARK                         _______ _______ _______ _____ _____    ______ ____
ROOT
ATOM      1  N   UNL     1      51.540 156.056  29.206  0.00  0.00    -0.242 NA
ATOM      2  C   UNL     1      52.418 157.063  29.078  0.00  0.00    +0.099 C 
ATOM      3  C   UNL     1      52.045 158.328  29.483  0.00  0.00    +0.021 C 
ATOM      4  C   UNL     1      50.783 158.518  30.006  0.00  0.00    +0.003 C 
ATOM      5  C   UNL     1      49.907 157.452  30.120  0.00  0.00    +0.021 C 
ATOM      6  C   UNL     1      50.302 156.197  29.709  0.00  0.00    +0.099 C 
ENDROOT
TORSDOF 0
