REMARK  Name = =
REMARK  0 active torsions:
REMARK  status: ('A' for Active; 'I' for Inactive)
REMARK                            x       y       z     vdW  Elec       q    Type
REMARK                         _______ _______ _______ _____ _____    ______ ____
ROOT
ATOM      1  I   UNL     1      50.061 155.519  29.544  0.00  0.00    -0.107 I 
ATOM      2  H   UNL     1      51.622 155.519  29.544  0.00  0.00    +0.107 HD
ENDROOT
TORSDOF 0
REMARK  Name = =
REMARK  0 active torsions:
REMARK  status: ('A' for Active; 'I' for Inactive)
REMARK                            x       y       z     vdW  Elec       q    Type
REMARK                         _______ _______ _______ _____ _____    ______ ____
ROOT
ATOM      1  N   UNL     1      51.750 158.058  29.637  0.00  0.00    -0.242 NA
ATOM      2  C   UNL     1      51.950 159.363  29.869  0.00  0.00    +0.099 C 
ATOM      3  C   UNL     1      50.970 160.225  30.328  0.00  0.00    +0.021 C 
ATOM      4  C   UNL     1      49.721 159.704  30.558  0.00  0.00    +0.003 C 
ATOM      5  C   UNL     1      49.522 158.362  30.318  0.00  0.00    +0.021 C 
ATOM      6  C   UNL     1      50.530 157.541  29.860  0.00  0.00    +0.099 C 
ENDROOT
TORSDOF 0
REMARK  Name = =
REMARK  0 active torsions:
REMARK  status: ('A' for Active; 'I' for Inactive)
REMARK                            x       y       z     vdW  Elec       q    Type
REMARK                         _______ _______ _______ _____ _____    ______ ____
ROOT
ATOM      1  C   UNL     1      51.473 154.746  28.212  0.00  0.00    +0.000 C 
ATOM      2  C   UNL     1      51.742 155.287  26.972  0.00  0.00    +0.000 C 
ATOM      3  C   UNL     1      52.693 154.731  26.126  0.00  0.00    +0.000 C 
ATOM      4  C   UNL     1      53.380 153.623  26.528  0.00  0.00    +0.000 C 
ATOM      5  C   UNL     1      53.140 153.061  27.747  0.00  0.00    +0.000 C 
ATOM      6  C   UNL     1      52.179 153.626  28.596  0.00  0.00    +0.000 C 
ENDROOT
TORSDOF 0
