REMARK  Name = =
REMARK  1 active torsions:
REMARK  status: ('A' for Active; 'I' for Inactive)
REMARK    1  A    between atoms: C_6  and  C_7
REMARK                            x       y       z     vdW  Elec       q    Type
REMARK                         _______ _______ _______ _____ _____    ______ ____
ROOT
ATOM      1  C   UNL     1      52.571 155.292  27.248  0.00  0.00    +0.002 C 
ATOM      2  C   UNL     1      52.972 156.517  26.796  0.00  0.00    +0.000 C 
ATOM      3  C   UNL     1      53.684 156.632  25.601  0.00  0.00    +0.000 C 
ATOM      4  C   UNL     1      53.992 155.520  24.863  0.00  0.00    +0.000 C 
ATOM      5  C   UNL     1      53.584 154.278  25.326  0.00  0.00    +0.002 C 
ATOM      6  C   UNL     1      52.885 154.166  26.499  0.00  0.00    +0.021 C 
ENDROOT
BRANCH   6   7
ATOM      7  C   UNL     1      52.459 152.877  26.984  0.00  0.00    +0.122 C 
ATOM      8  N   UNL     1      52.098 152.742  28.272  0.00  0.00    -0.145 NA
ATOM      9  N   UNL     1      51.704 151.584  28.751  0.00  0.00    -0.125 NA
ATOM     10  C   UNL     1      51.640 150.483  27.989  0.00  0.00    +0.222 C 
ATOM     11  N   UNL     1      51.995 150.598  26.705  0.00  0.00    -0.219 NA
ATOM     12  C   UNL     1      52.408 151.785  26.179  0.00  0.00    +0.122 C 
ENDBRANCH   6   7
TORSDOF 1
REMARK  Name = =
REMARK  1 active torsions:
REMARK  status: ('A' for Active; 'I' for Inactive)
REMARK    1  A    between atoms: C_6  and  C_7
REMARK                            x       y       z     vdW  Elec       q    Type
REMARK                         _______ _______ _______ _____ _____    ______ ____
ROOT
ATOM      1  I   UNL     1      51.502 155.053  29.031  0.00  0.00    -0.107 I 
ATOM      2  H   UNL     1      53.063 155.053  29.031  0.00  0.00    +0.107 HD
ENDROOT
TORSDOF 0
REMARK  Name = =
REMARK  1 active torsions:
REMARK  status: ('A' for Active; 'I' for Inactive)
REMARK    1  A    between atoms: C_6  and  C_7
REMARK                            x       y       z     vdW  Elec       q    Type
REMARK                         _______ _______ _______ _____ _____    ______ ____
ROOT
ATOM      1  N   UNL     1      51.729 157.950  29.749  0.00  0.00    -0.242 NA
ATOM      2  C   UNL     1      51.320 159.175  30.132  0.00  0.00    +0.099 C 
ATOM      3  C   UNL     1      49.994 159.449  30.415  0.00  0.00    +0.021 C 
ATOM      4  C   UNL     1      49.083 158.418  30.291  0.00  0.00    +0.003 C 
ATOM      5  C   UNL     1      49.510 157.171  29.899  0.00  0.00    +0.021 C 
ATOM      6  C   UNL     1      50.848 156.939  29.626  0.00  0.00    +0.099 C 
ENDROOT
TORSDOF 0
