REMARK  Name = =
REMARK  0 active torsions:
REMARK  status: ('A' for Active; 'I' for Inactive)
REMARK                            x       y       z     vdW  Elec       q    Type
REMARK                         _______ _______ _______ _____ _____    ______ ____
ROOT
ATOM      1  C   UNL     1      -4.365  -4.049  30.611  0.00  0.00    +0.027 C 
ATOM      2  C   UNL     1      -4.100  -4.569  31.988  0.00  0.00    +0.013 C 
ATOM      3  C   UNL     1      -3.125  -5.693  32.016  0.00  0.00    +0.069 C 
ATOM      4  C   UNL     1      -2.306  -5.812  30.805  0.00  0.00    +0.173 C 
ATOM      5  O   UNL     1      -1.761  -6.922  30.502  0.00  0.00    -0.291 OA
ATOM      6  C   UNL     1      -2.114  -4.653  29.944  0.00  0.00    +0.033 C 
ATOM      7  C   UNL     1      -3.114  -3.795  29.849  0.00  0.00    -0.023 C 
ENDROOT
TORSDOF 0
