MODEL 1
REMARK VINA RESULT:    -9.431      0.000      0.000
REMARK INTER + INTRA:         -17.457
REMARK INTER:                 -15.220
REMARK INTRA:                  -2.237
REMARK UNBOUND:                -2.237
REMARK  Name = =
REMARK  13 active torsions:
REMARK  status: ('A' for Active; 'I' for Inactive)
REMARK    1  A    between atoms: C_1  and  N_2
REMARK    2  A    between atoms: C_1  and  C_3
REMARK    3  A    between atoms: C_1  and  C_21
REMARK    4  A    between atoms: N_2  and  N_42
REMARK    5  A    between atoms: C_3  and  N_10
REMARK    6  A    between atoms: C_13  and  O_19
REMARK    7  A    between atoms: C_20  and  O_29
REMARK    8  A    between atoms: C_22  and  O_28
REMARK    9  A    between atoms: C_23  and  O_27
REMARK   10  A    between atoms: C_24  and  O_26
REMARK   11  A    between atoms: O_29  and  C_31
REMARK   12  A    between atoms: N_42  and  C_43
REMARK   13  A    between atoms: C_43  and  N_45
REMARK                            x       y       z     vdW  Elec       q    Type
REMARK                         _______ _______ _______ _____ _____    ______ ____
ROOT
ATOM      1  C   UNL     1     -21.346 -41.502  22.622  0.00  0.00    +0.145 C 
ENDROOT
BRANCH   1   2
ATOM      2  C   UNL     1     -22.355 -41.012  23.607  0.00  0.00    +0.133 C 
ATOM      3  C   UNL     1     -22.308 -39.457  23.534  0.00  0.00    +0.027 C 
ATOM      4  C   UNL     1     -23.581 -38.809  23.156  0.00  0.00    +0.003 C 
ATOM      5  C   UNL     1     -24.327 -39.373  21.994  0.00  0.00    +0.008 C 
ATOM      6  C   UNL     1     -24.109 -40.863  21.830  0.00  0.00    +0.066 C 
ATOM      7  C   UNL     1     -23.694 -41.388  23.218  0.00  0.00    +0.169 C 
ATOM      8  O   UNL     1     -24.537 -42.014  23.757  0.00  0.00    -0.294 OA
BRANCH   2   9
ATOM      9  N   UNL     1     -21.918 -41.294  24.946  0.00  0.00    -0.281 N 
ATOM     10  C   UNL     1     -21.633 -42.472  25.518  0.00  0.00    +0.055 C 
ATOM     11  C   UNL     1     -21.266 -42.287  26.838  0.00  0.00    +0.049 C 
ATOM     12  C   UNL     1     -20.935 -43.375  27.652  0.00  0.00    +0.135 C 
ATOM     13  C   UNL     1     -20.959 -44.677  27.173  0.00  0.00    +0.037 C 
ATOM     14  C   UNL     1     -21.327 -44.846  25.859  0.00  0.00    +0.004 C 
ATOM     15  C   UNL     1     -21.652 -43.768  25.066  0.00  0.00    +0.015 C 
ATOM     16  C   UNL     1     -21.341 -40.936  27.046  0.00  0.00    +0.020 C 
ATOM     17  C   UNL     1     -21.740 -40.354  25.878  0.00  0.00    +0.066 C 
BRANCH  12  18
ATOM     18  O   UNL     1     -20.567 -43.200  28.969  0.00  0.00    -0.505 OA
ATOM     19  H   UNL     1     -20.469 -43.943  29.531  0.00  0.00    +0.292 HD
ENDBRANCH  12  18
ENDBRANCH   2   9
ENDBRANCH   1   2
BRANCH   1  21
ATOM     20  C   UNL     1     -18.946 -40.940  22.946  0.00  0.00    +0.149 C 
ATOM     21  C   UNL     1     -20.132 -40.816  22.211  0.00  0.00    +0.069 C 
ATOM     22  C   UNL     1     -20.021 -40.048  21.091  0.00  0.00    +0.171 C 
ATOM     23  C   UNL     1     -18.806 -39.436  20.716  0.00  0.00    +0.202 C 
ATOM     24  C   UNL     1     -17.678 -39.594  21.478  0.00  0.00    +0.174 C 
ATOM     25  C   UNL     1     -17.755 -40.362  22.614  0.00  0.00    +0.077 C 
BRANCH  24  26
ATOM     26  O   UNL     1     -16.467 -39.013  21.152  0.00  0.00    -0.503 OA
ATOM     27  H   UNL     1     -16.034 -38.453  21.766  0.00  0.00    +0.292 HD
ENDBRANCH  24  26
BRANCH  23  28
ATOM     28  O   UNL     1     -18.735 -38.665  19.574  0.00  0.00    -0.501 OA
ATOM     29  H   UNL     1     -19.457 -38.644  18.978  0.00  0.00    +0.292 HD
ENDBRANCH  23  28
BRANCH  22  30
ATOM     30  O   UNL     1     -21.080 -39.818  20.242  0.00  0.00    -0.503 OA
ATOM     31  H   UNL     1     -21.959 -39.919  20.552  0.00  0.00    +0.292 HD
ENDBRANCH  22  30
BRANCH  20  32
ATOM     32  O   UNL     1     -18.970 -41.695  24.081  0.00  0.00    -0.450 OA
BRANCH  32  34
ATOM     33  C   UNL     1     -18.020 -41.634  26.192  0.00  0.00    +0.083 C 
ATOM     34  C   UNL     1     -17.911 -41.976  24.934  0.00  0.00    +0.187 C 
ATOM     35  C   UNL     1     -16.720 -42.630  24.456  0.00  0.00    +0.230 C 
ATOM     36  O   UNL     1     -16.667 -42.943  23.219  0.00  0.00    -0.283 OA
ATOM     37  C   UNL     1     -15.609 -42.940  25.313  0.00  0.00    +0.045 C 
ATOM     38  C   UNL     1     -15.723 -42.576  26.656  0.00  0.00    +0.042 C 
ATOM     39  C   UNL     1     -14.672 -42.870  27.496  0.00  0.00    +0.003 C 
ATOM     40  C   UNL     1     -13.556 -43.499  27.029  0.00  0.00    +0.000 C 
ATOM     41  C   UNL     1     -13.445 -43.860  25.698  0.00  0.00    +0.000 C 
ATOM     42  C   UNL     1     -14.467 -43.585  24.832  0.00  0.00    +0.003 C 
ATOM     43  C   UNL     1     -16.939 -41.911  27.122  0.00  0.00    +0.199 C 
ATOM     44  O   UNL     1     -17.022 -41.588  28.348  0.00  0.00    -0.286 OA
ENDBRANCH  32  34
ENDBRANCH  20  32
ENDBRANCH   1  21
BRANCH   1  45
ATOM     45  N   UNL     1     -21.566 -42.590  22.065  0.00  0.00    -0.127 NA
BRANCH  45  46
ATOM     46  N   UNL     1     -21.703 -43.692  21.485  0.00  0.00    -0.244 N 
ATOM     47  H   UNL     1     -20.881 -44.067  21.093  0.00  0.00    +0.170 HD
BRANCH  46  48
ATOM     48  C   UNL     1     -22.885 -44.489  21.307  0.00  0.00    +0.143 C 
ATOM     49  S   UNL     1     -23.232 -45.086  19.829  0.00  0.00    -0.018 S 
BRANCH  48  50
ATOM     50  N   UNL     1     -23.794 -44.806  22.341  0.00  0.00    -0.340 N 
ATOM     51  H   UNL     1     -24.627 -45.288  22.133  0.00  0.00    +0.144 HD
ATOM     52  H   UNL     1     -23.594 -44.546  23.268  0.00  0.00    +0.144 HD
ENDBRANCH  48  50
ENDBRANCH  46  48
ENDBRANCH  45  46
ENDBRANCH   1  45
TORSDOF 13
ENDMDL
