REMARK  Name = =
REMARK  0 active torsions:
REMARK  status: ('A' for Active; 'I' for Inactive)
REMARK                            x       y       z     vdW  Elec       q    Type
REMARK                         _______ _______ _______ _____ _____    ______ ____
ROOT
ATOM      1  C   UNL     1     -12.851 -44.969  29.223  0.00  0.00    +0.110 C 
ATOM      2  C   UNL     1     -12.405 -43.659  29.833  0.00  0.00    +0.111 C 
ATOM      3  N   UNL     1     -12.289 -43.193  28.473  0.00  0.00    -0.255 N 
ATOM      4  C   UNL     1     -11.358 -42.219  28.070  0.00  0.00    +0.068 C 
ATOM      5  C   UNL     1     -10.344 -41.987  28.879  0.00  0.00    +0.016 C 
ATOM      6  C   UNL     1     -10.112 -42.667  30.168  0.00  0.00    -0.002 C 
ATOM      7  C   UNL     1     -11.109 -43.671  30.575  0.00  0.00    -0.006 C 
ATOM      8  C   UNL     1     -13.341 -44.084  28.134  0.00  0.00    +0.232 C 
ATOM      9  O   UNL     1     -14.240 -44.035  27.261  0.00  0.00    -0.274 OA
ENDROOT
TORSDOF 0
