REMARK  Name = =
REMARK  10 active torsions:
REMARK  status: ('A' for Active; 'I' for Inactive)
REMARK    1  A    between atoms: C_1  and  C_4
REMARK    2  A    between atoms: C_1  and  C_14
REMARK    3  A    between atoms: C_2  and  C_29
REMARK    4  A    between atoms: S_3  and  N_10
REMARK    5  A    between atoms: C_11  and  O_13
REMARK    6  A    between atoms: C_14  and  S_17
REMARK    7  A    between atoms: S_17  and  C_18
REMARK    8  A    between atoms: S_17  and  P_25
REMARK    9  A    between atoms: P_25  and  O_27
REMARK   10  A    between atoms: P_25  and  O_28
REMARK                            x       y       z     vdW  Elec       q    Type
REMARK                         _______ _______ _______ _____ _____    ______ ____
ROOT
ATOM      1  C   UNL     1     -21.410 -42.347  24.248  0.00  0.00    -0.015 C 
ATOM      2  C   UNL     1     -20.402 -42.218  25.019  0.00  0.00    -0.006 C 
ENDROOT
BRANCH   1   4
ATOM      3  S   UNL     1     -23.766 -42.351  25.513  0.00  0.00    -0.148 S 
ATOM      4  C   UNL     1     -22.472 -43.299  24.728  0.00  0.00    +0.099 C 
ATOM      5  N   UNL     1     -22.090 -44.120  25.848  0.00  0.00    -0.263 NA
ATOM      6  C   UNL     1     -22.173 -43.532  27.100  0.00  0.00    +0.084 C 
ATOM      7  C   UNL     1     -23.002 -42.539  27.234  0.00  0.00    +0.072 C 
ATOM      8  C   UNL     1     -21.825 -45.251  24.930  0.00  0.00    +0.076 C 
ATOM      9  C   UNL     1     -22.881 -44.494  24.037  0.00  0.00    +0.046 C 
ATOM     10  H   UNL     1     -25.036 -42.766  25.257  0.00  0.00    +0.103 HD
BRANCH   3  11
ATOM     11  N   UNL     1     -24.015 -40.728  25.049  0.00  0.00    -0.243 N 
ATOM     12  C   UNL     1     -25.207 -40.369  24.401  0.00  0.00    +0.406 C 
ATOM     13  O   UNL     1     -26.072 -41.247  24.174  0.00  0.00    -0.226 OA
ATOM     14  H   UNL     1     -23.327 -40.048  25.235  0.00  0.00    +0.164 HD
BRANCH  12  15
ATOM     15  O   UNL     1     -25.494 -39.067  23.985  0.00  0.00    -0.466 OA
ATOM     16  H   UNL     1     -24.875 -38.380  24.135  0.00  0.00    +0.297 HD
ENDBRANCH  12  15
ENDBRANCH   3  11
ENDBRANCH   1   4
BRANCH   1  17
ATOM     17  C   UNL     1     -21.650 -41.637  22.958  0.00  0.00    +0.050 C 
ATOM     18  C   UNL     1     -22.656 -42.218  22.033  0.00  0.00    +0.014 C 
ATOM     19  C   UNL     1     -21.304 -42.653  21.755  0.00  0.00    +0.014 C 
BRANCH  17  20
ATOM     20  S   UNL     1     -20.887 -40.164  22.580  0.00  0.00    -0.111 S 
ATOM     21  H   UNL     1     -20.683 -39.422  23.702  0.00  0.00    +0.097 HD
BRANCH  20  22
ATOM     22  C   UNL     1     -21.872 -39.348  21.336  0.00  0.00    +0.154 C 
ATOM     23  O   UNL     1     -23.137 -39.063  21.849  0.00  0.00    -0.339 OA
ATOM     24  C   UNL     1     -23.916 -38.610  20.799  0.00  0.00    +0.207 C 
ATOM     25  C   UNL     1     -23.081 -38.041  19.694  0.00  0.00    +0.181 C 
ATOM     26  O   UNL     1     -23.306 -38.192  18.526  0.00  0.00    -0.293 OA
ATOM     27  C   UNL     1     -21.896 -37.237  20.099  0.00  0.00    +0.071 C 
ATOM     28  C   UNL     1     -21.201 -37.965  21.203  0.00  0.00    +0.048 C 
ENDBRANCH  20  22
BRANCH  20  29
ATOM     29  P   UNL     1     -19.326 -40.634  21.598  0.00  0.00    +0.370 P 
ATOM     30  O   UNL     1     -18.309 -39.561  21.819  0.00  0.00    -0.248 OA
BRANCH  29  31
ATOM     31  O   UNL     1     -18.805 -42.183  21.940  0.00  0.00    -0.317 OA
ATOM     32  H   UNL     1     -18.577 -42.247  22.881  0.00  0.00    +0.220 HD
ENDBRANCH  29  31
BRANCH  29  33
ATOM     33  O   UNL     1     -19.699 -40.631  19.926  0.00  0.00    -0.317 OA
ATOM     34  H   UNL     1     -18.908 -40.870  19.418  0.00  0.00    +0.220 HD
ENDBRANCH  29  33
ENDBRANCH  20  29
ENDBRANCH  17  20
ENDBRANCH   1  17
BRANCH   2  35
ATOM     35  C   UNL     1     -19.185 -41.469  25.043  0.00  0.00    -0.001 C 
ATOM     36  C   UNL     1     -18.346 -41.650  26.089  0.00  0.00    -0.000 C 
ENDBRANCH   2  35
TORSDOF 10
