REMARK  Name = =
REMARK  1 active torsions:
REMARK  status: ('A' for Active; 'I' for Inactive)
REMARK    1  A    between atoms: S_1  and  S_2
REMARK                            x       y       z     vdW  Elec       q    Type
REMARK                         _______ _______ _______ _____ _____    ______ ____
ROOT
ATOM      1  S   UNL     1      -4.054  -3.950  30.599  0.00  0.00    -0.114 S 
ATOM      2  H   UNL     1      -4.591  -4.875  31.438  0.00  0.00    +0.114 HD
ENDROOT
BRANCH   1   3
ATOM      3  S   UNL     1      -2.294  -4.744  29.700  0.00  0.00    -0.114 S 
ATOM      4  H   UNL     1      -1.757  -3.819  28.861  0.00  0.00    +0.114 HD
ENDBRANCH   1   3
TORSDOF 1
