REMARK  Name = =
REMARK  0 active torsions:
REMARK  status: ('A' for Active; 'I' for Inactive)
REMARK                            x       y       z     vdW  Elec       q    Type
REMARK                         _______ _______ _______ _____ _____    ______ ____
ROOT
ATOM      1  C   UNL     1      -4.059  -3.659  30.862  0.00  0.00    +0.140 C 
ATOM      2  N   UNL     1      -2.847  -2.880  31.103  0.00  0.00    -0.267 N 
ATOM      3  C   UNL     1      -1.862  -3.458  30.264  0.00  0.00    +0.402 C 
ATOM      4  O   UNL     1      -0.787  -2.960  29.856  0.00  0.00    -0.226 OA
ATOM      5  O   UNL     1      -2.285  -4.740  29.935  0.00  0.00    -0.433 OA
ATOM      6  C   UNL     1      -3.508  -5.027  30.583  0.00  0.00    +0.231 C 
ATOM      7  H   UNL     1      -2.738  -2.118  31.716  0.00  0.00    +0.153 HD
ENDROOT
TORSDOF 0
