REMARK  Name = =
REMARK  2 active torsions:
REMARK  status: ('A' for Active; 'I' for Inactive)
REMARK    1  A    between atoms: C_1  and  S_6
REMARK    2  A    between atoms: S_6  and  S_7
REMARK                            x       y       z     vdW  Elec       q    Type
REMARK                         _______ _______ _______ _____ _____    ______ ____
ROOT
ATOM      1  C   UNL     1      -5.829  -2.927  32.570  0.00  0.00    +0.223 C 
ATOM      2  N   UNL     1      -5.010  -3.553  31.705  0.00  0.00    -0.211 NA
ATOM      3  C   UNL     1      -3.992  -4.109  32.359  0.00  0.00    +0.304 C 
ATOM      4  O   UNL     1      -4.173  -3.830  33.631  0.00  0.00    -0.207 OA
ATOM      5  N   UNL     1      -5.272  -3.121  33.777  0.00  0.00    -0.102 NA
ENDROOT
BRANCH   1   6
ATOM      6  S   UNL     1      -7.307  -2.048  32.172  0.00  0.00    -0.019 S 
BRANCH   6   7
ATOM      7  S   UNL     1      -7.046   0.057  32.265  0.00  0.00    -0.102 S 
ATOM      8  H   UNL     1      -8.216   0.673  31.949  0.00  0.00    +0.114 HD
ENDBRANCH   6   7
ENDBRANCH   1   6
TORSDOF 2
