REMARK  Name = =
REMARK  3 active torsions:
REMARK  status: ('A' for Active; 'I' for Inactive)
REMARK    1  A    between atoms: S_1  and  N_2
REMARK    2  A    between atoms: S_1  and  C_8
REMARK    3  A    between atoms: S_1  and  S_13
REMARK                            x       y       z     vdW  Elec       q    Type
REMARK                         _______ _______ _______ _____ _____    ______ ____
ROOT
ATOM      1  S   UNL     1      -7.404  -0.493  31.570  0.00  0.00    -0.086 S 
ATOM      2  H   UNL     1      -6.898  -0.018  30.400  0.00  0.00    +0.116 HD
ENDROOT
BRANCH   1   3
ATOM      3  N   UNL     1      -8.893  -0.977  31.552  0.00  0.00    -0.231 NA
ATOM      4  C   UNL     1      -9.434  -1.538  30.363  0.00  0.00    +0.100 C 
ATOM      5  C   UNL     1     -10.851  -2.031  30.508  0.00  0.00    +0.087 C 
ATOM      6  N   UNL     1     -11.045  -2.923  31.606  0.00  0.00    -0.295 NA
ATOM      7  C   UNL     1      -9.926  -2.977  32.514  0.00  0.00    +0.087 C 
ATOM      8  C   UNL     1      -9.343  -1.607  32.768  0.00  0.00    +0.100 C 
ATOM      9  H   UNL     1     -11.204  -3.860  31.235  0.00  0.00    +0.123 HD
ENDBRANCH   1   3
BRANCH   1  10
ATOM     10  C   UNL     1      -6.420  -1.888  31.929  0.00  0.00    +0.214 C 
ATOM     11  N   UNL     1      -5.849  -2.730  31.052  0.00  0.00    -0.211 NA
ATOM     12  C   UNL     1      -5.167  -3.679  31.721  0.00  0.00    +0.304 C 
ATOM     13  O   UNL     1      -5.314  -3.427  32.987  0.00  0.00    -0.207 OA
ATOM     14  N   UNL     1      -6.064  -2.354  33.145  0.00  0.00    -0.103 NA
ENDBRANCH   1  10
BRANCH   1  15
ATOM     15  S   UNL     1      -7.357   0.792  32.625  0.00  0.00    -0.112 S 
ATOM     16  H   UNL     1      -7.849   0.405  33.832  0.00  0.00    +0.114 HD
ENDBRANCH   1  15
TORSDOF 3
