REMARK  Name = =
REMARK  4 active torsions:
REMARK  status: ('A' for Active; 'I' for Inactive)
REMARK    1  A    between atoms: N_1  and  C_16
REMARK    2  A    between atoms: C_8  and  N_22
REMARK    3  A    between atoms: C_11  and  N_17
REMARK    4  A    between atoms: N_17  and  N_20
REMARK                            x       y       z     vdW  Elec       q    Type
REMARK                         _______ _______ _______ _____ _____    ______ ____
ROOT
ATOM      1  N   UNL     1       0.540  -5.921  29.418  0.00  0.00    -0.221 N 
ATOM      2  C   UNL     1      -0.284  -6.957  29.974  0.00  0.00    +0.055 C 
ATOM      3  C   UNL     1      -0.428  -6.824  31.323  0.00  0.00    +0.015 C 
ATOM      4  C   UNL     1      -1.311  -7.711  31.965  0.00  0.00    -0.001 C 
ATOM      5  C   UNL     1      -2.006  -8.681  31.285  0.00  0.00    -0.000 C 
ATOM      6  C   UNL     1      -1.863  -8.823  29.935  0.00  0.00    +0.001 C 
ATOM      7  C   UNL     1      -0.999  -7.953  29.300  0.00  0.00    +0.015 C 
ATOM      8  C   UNL     1       0.477  -5.776  31.787  0.00  0.00    +0.160 C 
ATOM      9  C   UNL     1       0.904  -5.110  30.504  0.00  0.00    +0.251 C 
ATOM     10  O   UNL     1       1.493  -4.003  30.394  0.00  0.00    -0.273 OA
ENDROOT
BRANCH   1  16
ATOM     11  C   UNL     1       1.869  -4.747  27.688  0.00  0.00    +0.237 C 
ATOM     12  N   UNL     1       1.058  -3.561  27.688  0.00  0.00    -0.250 N 
ATOM     13  C   UNL     1      -0.223  -3.998  27.284  0.00  0.00    +0.404 C 
ATOM     14  O   UNL     1      -1.170  -3.214  26.922  0.00  0.00    -0.226 OA
ATOM     15  O   UNL     1      -0.282  -5.376  27.343  0.00  0.00    -0.415 OA
ATOM     16  C   UNL     1       0.876  -5.819  28.002  0.00  0.00    +0.294 C 
ATOM     17  H   UNL     1       1.334  -2.645  27.919  0.00  0.00    +0.154 HD
BRANCH  11  18
ATOM     18  N   UNL     1       2.295  -4.944  26.312  0.00  0.00    -0.150 N 
ATOM     19  C   UNL     1       3.158  -4.021  25.718  0.00  0.00    +0.325 C 
ATOM     20  O   UNL     1       3.552  -3.022  26.407  0.00  0.00    -0.263 OA
BRANCH  18  21
ATOM     21  N   UNL     1       1.862  -6.047  25.561  0.00  0.00    -0.170 NA
ATOM     22  C   UNL     1       2.719  -6.885  25.050  0.00  0.00    +0.140 C 
ENDBRANCH  18  21
ENDBRANCH  11  18
ENDBRANCH   1  16
BRANCH   8  23
ATOM     23  N   UNL     1       1.651  -6.307  32.373  0.00  0.00    -0.261 NA
ATOM     24  C   UNL     1       2.776  -5.398  32.453  0.00  0.00    +0.090 C 
ATOM     25  C   UNL     1       2.521  -4.428  33.585  0.00  0.00    +0.086 C 
ATOM     26  N   UNL     1       2.514  -5.183  34.820  0.00  0.00    -0.295 NA
ATOM     27  C   UNL     1       1.459  -6.183  34.805  0.00  0.00    +0.086 C 
ATOM     28  C   UNL     1       1.559  -7.055  33.569  0.00  0.00    +0.090 C 
ATOM     29  H   UNL     1       2.360  -4.546  35.601  0.00  0.00    +0.123 HD
ENDBRANCH   8  23
TORSDOF 4
