REMARK  Name = =
REMARK  4 active torsions:
REMARK  status: ('A' for Active; 'I' for Inactive)
REMARK    1  A    between atoms: N_1  and  S_14
REMARK    2  A    between atoms: C_5  and  C_7
REMARK    3  A    between atoms: S_14  and  C_15
REMARK    4  A    between atoms: S_14  and  S_20
REMARK                            x       y       z     vdW  Elec       q    Type
REMARK                         _______ _______ _______ _____ _____    ______ ____
ROOT
ATOM      1  N   UNL     1     -10.849  -3.026  32.145  0.00  0.00    -0.231 NA
ATOM      2  C   UNL     1      -9.515  -2.737  32.517  0.00  0.00    +0.100 C 
ATOM      3  C   UNL     1      -9.061  -1.346  32.208  0.00  0.00    +0.087 C 
ATOM      4  N   UNL     1      -9.296  -0.934  30.862  0.00  0.00    -0.296 NA
ATOM      5  C   UNL     1     -10.392  -1.582  30.215  0.00  0.00    +0.072 C 
ATOM      6  C   UNL     1     -11.418  -2.116  31.170  0.00  0.00    +0.098 C 
ATOM      7  H   UNL     1      -8.452  -1.124  30.321  0.00  0.00    +0.123 HD
ENDROOT
BRANCH   5   8
ATOM      8  C   UNL     1     -11.136  -0.630  29.266  0.00  0.00    +0.032 C 
ATOM      9  C   UNL     1     -10.523   0.706  29.406  0.00  0.00    +0.070 C 
ATOM     10  N   UNL     1     -11.310   1.820  29.074  0.00  0.00    -0.297 NA
ATOM     11  C   UNL     1     -11.955   1.832  27.826  0.00  0.00    +0.069 C 
ATOM     12  C   UNL     1     -13.211   1.001  27.889  0.00  0.00    +0.017 C 
ATOM     13  C   UNL     1     -13.403   0.460  29.271  0.00  0.00    +0.002 C 
ATOM     14  C   UNL     1     -12.577  -0.736  29.571  0.00  0.00    +0.003 C 
ATOM     15  H   UNL     1     -10.703   2.639  29.108  0.00  0.00    +0.123 HD
ENDBRANCH   5   8
BRANCH   1  16
ATOM     16  S   UNL     1     -11.937  -3.275  33.341  0.00  0.00    -0.086 S 
ATOM     17  H   UNL     1     -12.196  -4.595  33.141  0.00  0.00    +0.116 HD
BRANCH  16  18
ATOM     18  C   UNL     1     -13.201  -2.155  33.175  0.00  0.00    +0.214 C 
ATOM     19  N   UNL     1     -14.227  -2.138  32.299  0.00  0.00    -0.211 NA
ATOM     20  C   UNL     1     -14.948  -1.039  32.581  0.00  0.00    +0.304 C 
ATOM     21  O   UNL     1     -14.416  -0.386  33.582  0.00  0.00    -0.207 OA
ATOM     22  N   UNL     1     -13.380  -1.053  33.928  0.00  0.00    -0.103 NA
ENDBRANCH  16  18
BRANCH  16  23
ATOM     23  S   UNL     1     -11.513  -3.144  34.945  0.00  0.00    -0.112 S 
ATOM     24  H   UNL     1     -11.234  -1.845  35.236  0.00  0.00    +0.114 HD
ENDBRANCH  16  23
ENDBRANCH   1  16
TORSDOF 4
