REMARK  Name = =
REMARK  5 active torsions:
REMARK  status: ('A' for Active; 'I' for Inactive)
REMARK    1  A    between atoms: S_1  and  C_2
REMARK    2  A    between atoms: S_1  and  N_16
REMARK    3  A    between atoms: S_1  and  C_29
REMARK    4  A    between atoms: S_1  and  S_34
REMARK    5  A    between atoms: C_20  and  C_22
REMARK                            x       y       z     vdW  Elec       q    Type
REMARK                         _______ _______ _______ _____ _____    ______ ____
ROOT
ATOM      1  S   UNL     1     -13.309   0.145  28.124  0.00  0.00    -0.044 S 
ENDROOT
BRANCH   1   2
ATOM      2  C   UNL     1     -13.154   0.675  26.543  0.00  0.00    +0.036 C 
ATOM      3  C   UNL     1     -12.908  -0.249  25.537  0.00  0.00    +0.007 C 
ATOM      4  C   UNL     1     -12.714   0.111  24.236  0.00  0.00    +0.001 C 
ATOM      5  C   UNL     1     -12.765   1.452  23.892  0.00  0.00    +0.000 C 
ATOM      6  C   UNL     1     -13.005   2.382  24.849  0.00  0.00    +0.000 C 
ATOM      7  C   UNL     1     -13.201   1.997  26.174  0.00  0.00    +0.006 C 
ATOM      8  C   UNL     1     -13.461   2.962  27.122  0.00  0.00    +0.001 C 
ATOM      9  C   UNL     1     -13.523   4.273  26.774  0.00  0.00    +0.000 C 
ATOM     10  C   UNL     1     -13.336   4.694  25.489  0.00  0.00    +0.000 C 
ATOM     11  C   UNL     1     -13.073   3.739  24.510  0.00  0.00    +0.000 C 
ATOM     12  C   UNL     1     -12.877   4.122  23.200  0.00  0.00    +0.000 C 
ATOM     13  C   UNL     1     -12.948   5.482  22.880  0.00  0.00    +0.000 C 
ATOM     14  C   UNL     1     -13.208   6.422  23.852  0.00  0.00    +0.000 C 
ATOM     15  C   UNL     1     -13.401   6.034  25.150  0.00  0.00    +0.000 C 
ENDBRANCH   1   2
BRANCH   1  16
ATOM     16  N   UNL     1     -14.593   0.644  28.762  0.00  0.00    -0.225 NA
ATOM     17  C   UNL     1     -15.838   0.797  28.062  0.00  0.00    +0.100 C 
ATOM     18  C   UNL     1     -17.040   0.371  28.880  0.00  0.00    +0.087 C 
ATOM     19  N   UNL     1     -17.110   1.340  29.979  0.00  0.00    -0.296 NA
ATOM     20  C   UNL     1     -15.941   1.120  30.783  0.00  0.00    +0.072 C 
ATOM     21  C   UNL     1     -14.872   0.300  30.143  0.00  0.00    +0.099 C 
ATOM     22  H   UNL     1     -17.953   1.187  30.532  0.00  0.00    +0.123 HD
BRANCH  20  23
ATOM     23  C   UNL     1     -16.438   0.407  32.049  0.00  0.00    +0.032 C 
ATOM     24  C   UNL     1     -15.673  -0.900  32.260  0.00  0.00    +0.070 C 
ATOM     25  N   UNL     1     -15.734  -1.208  33.679  0.00  0.00    -0.297 NA
ATOM     26  C   UNL     1     -17.063  -1.544  34.107  0.00  0.00    +0.069 C 
ATOM     27  C   UNL     1     -17.960  -0.359  34.221  0.00  0.00    +0.017 C 
ATOM     28  C   UNL     1     -17.255   0.956  34.353  0.00  0.00    +0.002 C 
ATOM     29  C   UNL     1     -16.267   1.257  33.276  0.00  0.00    +0.003 C 
ATOM     30  H   UNL     1     -15.416  -0.394  34.205  0.00  0.00    +0.123 HD
ENDBRANCH  20  23
ENDBRANCH   1  16
BRANCH   1  31
ATOM     31  C   UNL     1     -11.821   0.456  28.912  0.00  0.00    +0.221 C 
ATOM     32  N   UNL     1     -11.245  -0.281  29.884  0.00  0.00    -0.211 NA
ATOM     33  C   UNL     1     -10.057   0.267  30.255  0.00  0.00    +0.304 C 
ATOM     34  O   UNL     1      -9.916   1.333  29.509  0.00  0.00    -0.207 OA
ATOM     35  N   UNL     1     -10.929   1.465  28.719  0.00  0.00    -0.102 NA
ENDBRANCH   1  31
BRANCH   1  36
ATOM     36  S   UNL     1     -13.385  -1.595  28.357  0.00  0.00    -0.104 S 
ATOM     37  H   UNL     1     -13.510  -1.870  29.683  0.00  0.00    +0.114 HD
ENDBRANCH   1  36
TORSDOF 5
