REMARK  Name = =
REMARK  5 active torsions:
REMARK  status: ('A' for Active; 'I' for Inactive)
REMARK    1  A    between atoms: N_1  and  C_16
REMARK    2  A    between atoms: C_8  and  N_22
REMARK    3  A    between atoms: C_11  and  N_17
REMARK    4  A    between atoms: N_17  and  N_20
REMARK    5  A    between atoms: C_26  and  N_28
REMARK                            x       y       z     vdW  Elec       q    Type
REMARK                         _______ _______ _______ _____ _____    ______ ____
ROOT
ATOM      1  N   UNL     1       0.291  -5.853  29.962  0.00  0.00    -0.221 N 
ATOM      2  C   UNL     1       0.614  -6.696  28.868  0.00  0.00    +0.055 C 
ATOM      3  C   UNL     1       0.895  -5.985  27.728  0.00  0.00    +0.015 C 
ATOM      4  C   UNL     1       1.210  -6.649  26.546  0.00  0.00    -0.001 C 
ATOM      5  C   UNL     1       1.242  -8.026  26.518  0.00  0.00    -0.000 C 
ATOM      6  C   UNL     1       0.959  -8.728  27.667  0.00  0.00    +0.001 C 
ATOM      7  C   UNL     1       0.643  -8.099  28.852  0.00  0.00    +0.015 C 
ATOM      8  C   UNL     1       0.813  -4.561  28.037  0.00  0.00    +0.160 C 
ATOM      9  C   UNL     1       0.379  -4.534  29.457  0.00  0.00    +0.251 C 
ATOM     10  O   UNL     1       0.134  -3.447  30.082  0.00  0.00    -0.273 OA
ENDROOT
BRANCH   1  16
ATOM     11  C   UNL     1       0.909  -7.126  31.962  0.00  0.00    +0.237 C 
ATOM     12  N   UNL     1       0.122  -8.236  32.415  0.00  0.00    -0.250 N 
ATOM     13  C   UNL     1      -1.238  -7.894  32.301  0.00  0.00    +0.404 C 
ATOM     14  O   UNL     1      -2.202  -8.431  32.855  0.00  0.00    -0.226 OA
ATOM     15  O   UNL     1      -1.299  -6.822  31.431  0.00  0.00    -0.415 OA
ATOM     16  C   UNL     1      -0.063  -6.189  31.325  0.00  0.00    +0.294 C 
ATOM     17  H   UNL     1       0.474  -9.093  32.749  0.00  0.00    +0.154 HD
BRANCH  11  18
ATOM     18  N   UNL     1       1.490  -6.484  33.134  0.00  0.00    -0.150 N 
ATOM     19  C   UNL     1       0.758  -6.296  34.334  0.00  0.00    +0.325 C 
ATOM     20  O   UNL     1      -0.443  -6.661  34.492  0.00  0.00    -0.263 OA
BRANCH  18  21
ATOM     21  N   UNL     1       2.810  -6.031  33.093  0.00  0.00    -0.170 NA
ATOM     22  C   UNL     1       3.152  -4.904  33.621  0.00  0.00    +0.140 C 
ENDBRANCH  18  21
ENDBRANCH  11  18
ENDBRANCH   1  16
BRANCH   8  23
ATOM     23  N   UNL     1       2.083  -3.881  27.960  0.00  0.00    -0.259 NA
ATOM     24  C   UNL     1       3.112  -4.467  28.734  0.00  0.00    +0.090 C 
ATOM     25  C   UNL     1       4.481  -4.463  28.097  0.00  0.00    +0.087 C 
ATOM     26  N   UNL     1       4.356  -4.853  26.718  0.00  0.00    -0.284 NA
ATOM     27  C   UNL     1       3.526  -3.946  25.956  0.00  0.00    +0.132 C 
ATOM     28  C   UNL     1       2.419  -3.311  26.712  0.00  0.00    +0.106 C 
ATOM     29  H   UNL     1       3.943  -5.785  26.678  0.00  0.00    +0.125 HD
BRANCH  27  30
ATOM     30  N   UNL     1       4.324  -2.911  25.328  0.00  0.00    -0.257 NA
ATOM     31  C   UNL     1       3.641  -2.198  24.297  0.00  0.00    +0.092 C 
ATOM     32  C   UNL     1       4.396  -0.882  24.087  0.00  0.00    +0.106 C 
ATOM     33  N   UNL     1       5.732  -0.985  24.600  0.00  0.00    -0.215 NA
ATOM     34  C   UNL     1       6.362  -2.253  24.271  0.00  0.00    +0.106 C 
ATOM     35  C   UNL     1       5.619  -3.405  24.912  0.00  0.00    +0.092 C 
ENDBRANCH  27  30
ENDBRANCH   8  23
TORSDOF 5
