REMARK  Name = =
REMARK  7 active torsions:
REMARK  status: ('A' for Active; 'I' for Inactive)
REMARK    1  A    between atoms: S_1  and  C_2
REMARK    2  A    between atoms: S_1  and  N_16
REMARK    3  A    between atoms: S_1  and  C_29
REMARK    4  A    between atoms: S_1  and  S_34
REMARK    5  A    between atoms: S_1  and  S_38
REMARK    6  A    between atoms: C_20  and  C_22
REMARK    7  A    between atoms: S_34  and  O_37
REMARK                            x       y       z     vdW  Elec       q    Type
REMARK                         _______ _______ _______ _____ _____    ______ ____
ROOT
ATOM      1  S   UNL     1     -15.139   1.447  28.486  0.00  0.00    -0.039 S 
ATOM      2  H   UNL     1     -15.871   2.582  28.648  0.00  0.00    +0.121 HD
ENDROOT
BRANCH   1   3
ATOM      3  C   UNL     1     -15.512   0.868  30.176  0.00  0.00    +0.034 C 
ATOM      4  C   UNL     1     -16.257   1.383  31.166  0.00  0.00    +0.007 C 
ATOM      5  C   UNL     1     -16.328   0.983  32.483  0.00  0.00    +0.001 C 
ATOM      6  C   UNL     1     -15.563  -0.053  32.840  0.00  0.00    +0.000 C 
ATOM      7  C   UNL     1     -14.754  -0.705  32.013  0.00  0.00    +0.000 C 
ATOM      8  C   UNL     1     -14.742  -0.239  30.716  0.00  0.00    +0.006 C 
ATOM      9  C   UNL     1     -13.874  -0.901  29.841  0.00  0.00    +0.000 C 
ATOM     10  C   UNL     1     -13.071  -1.951  30.202  0.00  0.00    +0.000 C 
ATOM     11  C   UNL     1     -13.103  -2.396  31.490  0.00  0.00    +0.000 C 
ATOM     12  C   UNL     1     -13.956  -1.757  32.390  0.00  0.00    +0.000 C 
ATOM     13  C   UNL     1     -13.962  -2.238  33.683  0.00  0.00    +0.000 C 
ATOM     14  C   UNL     1     -13.158  -3.295  34.044  0.00  0.00    +0.000 C 
ATOM     15  C   UNL     1     -12.313  -3.929  33.158  0.00  0.00    +0.000 C 
ATOM     16  C   UNL     1     -12.309  -3.447  31.870  0.00  0.00    +0.000 C 
ENDBRANCH   1   3
BRANCH   1  17
ATOM     17  N   UNL     1     -15.668   3.080  28.311  0.00  0.00    -0.227 NA
ATOM     18  C   UNL     1     -15.794   3.969  29.407  0.00  0.00    +0.100 C 
ATOM     19  C   UNL     1     -14.643   4.851  29.748  0.00  0.00    +0.087 C 
ATOM     20  N   UNL     1     -14.401   5.754  28.628  0.00  0.00    -0.296 NA
ATOM     21  C   UNL     1     -14.138   4.910  27.475  0.00  0.00    +0.072 C 
ATOM     22  C   UNL     1     -15.205   3.936  27.259  0.00  0.00    +0.099 C 
ATOM     23  H   UNL     1     -13.595   6.349  28.821  0.00  0.00    +0.123 HD
BRANCH  21  24
ATOM     24  C   UNL     1     -14.060   5.830  26.272  0.00  0.00    +0.032 C 
ATOM     25  C   UNL     1     -15.271   6.655  26.027  0.00  0.00    +0.070 C 
ATOM     26  N   UNL     1     -14.948   7.498  24.858  0.00  0.00    -0.297 NA
ATOM     27  C   UNL     1     -15.394   6.814  23.651  0.00  0.00    +0.069 C 
ATOM     28  C   UNL     1     -14.132   6.308  22.952  0.00  0.00    +0.017 C 
ATOM     29  C   UNL     1     -13.116   5.987  24.028  0.00  0.00    +0.002 C 
ATOM     30  C   UNL     1     -13.681   5.016  25.045  0.00  0.00    +0.003 C 
ATOM     31  H   UNL     1     -13.941   7.651  24.813  0.00  0.00    +0.123 HD
ENDBRANCH  21  24
ENDBRANCH   1  17
BRANCH   1  32
ATOM     32  C   UNL     1     -13.168   1.934  28.809  0.00  0.00    +0.219 C 
ATOM     33  N   UNL     1     -12.750   2.237  29.940  0.00  0.00    -0.211 NA
ATOM     34  C   UNL     1     -11.378   2.276  29.828  0.00  0.00    +0.304 C 
ATOM     35  O   UNL     1     -11.104   1.991  28.619  0.00  0.00    -0.207 OA
ATOM     36  N   UNL     1     -12.280   1.786  28.021  0.00  0.00    -0.103 NA
ENDBRANCH   1  32
BRANCH   1  37
ATOM     37  S   UNL     1     -15.091   0.918  26.674  0.00  0.00    +0.026 S 
ATOM     38  O   UNL     1     -14.327  -0.467  26.463  0.00  0.00    -0.062 OA
ATOM     39  O   UNL     1     -13.819   1.464  26.104  0.00  0.00    -0.062 OA
BRANCH  37  40
ATOM     40  O   UNL     1     -16.019   1.036  25.565  0.00  0.00    -0.263 OA
ATOM     41  H   UNL     1     -16.889   0.703  25.835  0.00  0.00    +0.243 HD
ENDBRANCH  37  40
ENDBRANCH   1  37
BRANCH   1  42
ATOM     42  S   UNL     1     -16.765  -0.209  28.336  0.00  0.00    -0.107 S 
ATOM     43  H   UNL     1     -16.166  -1.419  28.169  0.00  0.00    +0.114 HD
ENDBRANCH   1  42
TORSDOF 7
