MODEL 1
REMARK VINA RESULT:    -8.908      0.000      0.000
REMARK INTER + INTRA:         -10.523
REMARK INTER:                 -10.992
REMARK INTRA:                   0.469
REMARK UNBOUND:                 0.469
REMARK  Name = =
REMARK  4 active torsions:
REMARK  status: ('A' for Active; 'I' for Inactive)
REMARK    1  A    between atoms: C_1  and  C_18
REMARK    2  A    between atoms: C_11  and  S_22
REMARK    3  A    between atoms: N_15  and  O_21
REMARK    4  A    between atoms: S_22  and  N_25
REMARK                            x       y       z     vdW  Elec       q    Type
REMARK                         _______ _______ _______ _____ _____    ______ ____
ROOT
ATOM      1  C   UNL     1      50.534 159.281  42.330  0.00  0.00    +0.036 C 
ATOM      2  C   UNL     1      49.331 159.877  42.116  0.00  0.00    +0.022 C 
ATOM      3  C   UNL     1      49.181 161.239  41.895  0.00  0.00    +0.083 A 
ATOM      4  N   UNL     1      47.970 161.784  41.681  0.00  0.00    -0.244 NA
ATOM      5  C   UNL     1      47.829 163.102  41.461  0.00  0.00    +0.100 A 
ATOM      6  C   UNL     1      48.907 163.949  41.444  0.00  0.00    +0.118 A 
ATOM      7  N   UNL     1      48.774 165.277  41.223  0.00  0.00    -0.241 NA
ATOM      8  C   UNL     1      47.552 165.816  41.009  0.00  0.00    +0.099 C 
ATOM      9  C   UNL     1      46.420 165.027  41.010  0.00  0.00    +0.022 C 
ATOM     10  C   UNL     1      46.581 163.681  41.236  0.00  0.00    +0.022 C 
ATOM     11  C   UNL     1      50.170 163.387  41.666  0.00  0.00    +0.146 A 
ATOM     12  C   UNL     1      50.326 162.035  41.893  0.00  0.00    +0.038 A 
ATOM     13  C   UNL     1      51.561 161.442  42.110  0.00  0.00    +0.003 C 
ATOM     14  C   UNL     1      51.656 160.065  42.328  0.00  0.00    +0.003 C 
ENDROOT
BRANCH   1  18
ATOM     15  N   UNL     1      51.315 155.818  42.857  0.00  0.00    -0.029 NA
ATOM     16  C   UNL     1      49.989 155.788  42.913  0.00  0.00    +0.252 C 
ATOM     17  N   UNL     1      49.558 157.028  42.730  0.00  0.00    -0.231 NA
ATOM     18  C   UNL     1      50.618 157.840  42.558  0.00  0.00    +0.164 C 
ATOM     19  N   UNL     1      51.692 157.057  42.644  0.00  0.00    -0.117 NA
BRANCH  15  21
ATOM     20 CL   UNL     1      52.827 153.962  41.625  0.00  0.00    +0.086 Cl
ATOM     21  O   UNL     1      52.101 154.689  43.008  0.00  0.00    -0.164 OA
ENDBRANCH  15  21
ENDBRANCH   1  18
BRANCH  11  22
ATOM     22  S   UNL     1      51.524 164.453  41.644  0.00  0.00    +0.078 S 
ATOM     23  O   UNL     1      52.854 163.796  41.672  0.00  0.00    -0.150 OA
ATOM     24  O   UNL     1      51.469 165.367  42.874  0.00  0.00    -0.150 OA
BRANCH  22  25
ATOM     25  N   UNL     1      51.429 165.580  40.318  0.00  0.00    -0.178 N 
ATOM     26  C   UNL     1      52.370 166.619  40.193  0.00  0.00    +0.319 C 
ATOM     27  O   UNL     1      53.278 166.691  41.085  0.00  0.00    -0.264 OA
ATOM     28  H   UNL     1      50.711 165.489  39.650  0.00  0.00    +0.177 HD
ENDBRANCH  22  25
ENDBRANCH  11  22
TORSDOF 4
ENDMDL
