REMARK  Name = =
REMARK  4 active torsions:
REMARK  status: ('A' for Active; 'I' for Inactive)
REMARK    1  A    between atoms: C_1  and  C_18
REMARK    2  A    between atoms: C_11  and  S_22
REMARK    3  A    between atoms: N_15  and  O_21
REMARK    4  A    between atoms: S_22  and  N_25
REMARK                            x       y       z     vdW  Elec       q    Type
REMARK                         _______ _______ _______ _____ _____    ______ ____
ROOT
ATOM      1  C   UNL     1      52.341 156.817  28.605  0.00  0.00    +0.036 C 
ATOM      2  C   UNL     1      51.187 157.144  29.244  0.00  0.00    +0.022 C 
ATOM      3  C   UNL     1      51.045 158.273  30.038  0.00  0.00    +0.083 A 
ATOM      4  N   UNL     1      49.880 158.559  30.646  0.00  0.00    -0.244 NA
ATOM      5  C   UNL     1      49.744 159.657  31.409  0.00  0.00    +0.100 A 
ATOM      6  C   UNL     1      50.782 160.532  31.603  0.00  0.00    +0.118 A 
ATOM      7  N   UNL     1      50.654 161.640  32.369  0.00  0.00    -0.241 NA
ATOM      8  C   UNL     1      49.478 161.920  32.977  0.00  0.00    +0.099 C 
ATOM      9  C   UNL     1      48.388 161.086  32.828  0.00  0.00    +0.022 C 
ATOM     10  C   UNL     1      48.543 159.968  32.044  0.00  0.00    +0.022 C 
ATOM     11  C   UNL     1      51.997 160.239  30.972  0.00  0.00    +0.146 A 
ATOM     12  C   UNL     1      52.147 159.115  30.186  0.00  0.00    +0.038 A 
ATOM     13  C   UNL     1      53.332 158.796  29.541  0.00  0.00    +0.003 C 
ATOM     14  C   UNL     1      53.421 157.645  28.753  0.00  0.00    +0.003 C 
ENDROOT
BRANCH   1  18
ATOM     15  N   UNL     1      52.083 153.667  26.904  0.00  0.00    -0.029 NA
ATOM     16  C   UNL     1      53.111 154.214  26.266  0.00  0.00    +0.252 C 
ATOM     17  N   UNL     1      53.321 155.407  26.805  0.00  0.00    -0.231 NA
ATOM     18  C   UNL     1      52.420 155.610  27.785  0.00  0.00    +0.164 C 
ATOM     19  N   UNL     1      51.668 154.512  27.819  0.00  0.00    -0.117 NA
BRANCH  15  21
ATOM     20 CL   UNL     1      52.085 151.048  27.526  0.00  0.00    +0.086 Cl
ATOM     21  O   UNL     1      51.588 152.412  26.598  0.00  0.00    -0.164 OA
ENDBRANCH  15  21
ENDBRANCH   1  18
BRANCH  11  22
ATOM     22  S   UNL     1      53.300 161.341  31.216  0.00  0.00    +0.078 S 
ATOM     23  O   UNL     1      54.243 161.476  30.079  0.00  0.00    -0.150 OA
ATOM     24  O   UNL     1      54.136 160.879  32.416  0.00  0.00    -0.150 OA
BRANCH  22  25
ATOM     25  N   UNL     1      52.726 162.907  31.722  0.00  0.00    -0.178 N 
ATOM     26  C   UNL     1      53.629 163.966  31.930  0.00  0.00    +0.319 C 
ATOM     27  O   UNL     1      54.865 163.724  31.733  0.00  0.00    -0.264 OA
ATOM     28  H   UNL     1      51.763 163.052  31.863  0.00  0.00    +0.177 HD
ENDBRANCH  22  25
ENDBRANCH  11  22
TORSDOF 4
