REMARK  Name = =
REMARK  1 active torsions:
REMARK  status: ('A' for Active; 'I' for Inactive)
REMARK    1  A    between atoms: C_2  and  C_11
REMARK                            x       y       z     vdW  Elec       q    Type
REMARK                         _______ _______ _______ _____ _____    ______ ____
ROOT
ATOM      1  C   UNL     1      -3.322  -3.758  31.884  0.00  0.00    +0.033 C 
ATOM      2  C   UNL     1      -3.451  -2.498  31.088  0.00  0.00    +0.063 C 
ATOM      3  C   UNL     1      -3.242  -2.624  29.634  0.00  0.00    +0.011 C 
ATOM      4  C   UNL     1      -2.842  -3.940  29.104  0.00  0.00    +0.022 C 
ATOM      5  C   UNL     1      -1.358  -4.047  29.029  0.00  0.00    +0.004 C 
ATOM      6  C   UNL     1      -0.839  -3.094  27.984  0.00  0.00    +0.000 C 
ATOM      7  C   UNL     1      -1.683  -1.878  27.810  0.00  0.00    +0.000 C 
ATOM      8  C   UNL     1      -2.480  -1.494  29.013  0.00  0.00    +0.001 C 
ATOM      9  C   UNL     1      -3.398  -5.079  29.825  0.00  0.00    -0.031 C 
ATOM     10  C   UNL     1      -3.617  -4.981  31.125  0.00  0.00    -0.030 C 
ENDROOT
BRANCH   2  11
ATOM     11  C   UNL     1      -4.760  -1.860  31.366  0.00  0.00    +0.139 C 
ATOM     12  N   UNL     1      -5.819  -2.659  31.561  0.00  0.00    -0.228 NA
ATOM     13  C   UNL     1      -7.033  -2.135  31.816  0.00  0.00    +0.121 C 
ATOM     14  C   UNL     1      -7.215  -0.779  31.882  0.00  0.00    +0.121 C 
ATOM     15  N   UNL     1      -8.437  -0.267  32.139  0.00  0.00    -0.221 NA
ATOM     16  C   UNL     1      -9.502  -1.064  32.336  0.00  0.00    +0.199 C 
ATOM     17  N   UNL     1      -9.314  -2.397  32.268  0.00  0.00    -0.221 NA
ATOM     18  C   UNL     1      -8.133  -2.948  32.020  0.00  0.00    +0.121 C 
ATOM     19  C   UNL     1      -6.127   0.039  31.682  0.00  0.00    +0.121 C 
ATOM     20  N   UNL     1      -4.917  -0.530  31.426  0.00  0.00    -0.228 NA
ENDBRANCH   2  11
TORSDOF 1
