MODEL 1
REMARK VINA RESULT:    -9.715      0.000      0.000
REMARK INTER + INTRA:         -16.076
REMARK INTER:                 -15.111
REMARK INTRA:                  -0.965
REMARK UNBOUND:                -0.965
REMARK  Name = =
REMARK  10 active torsions:
REMARK  status: ('A' for Active; 'I' for Inactive)
REMARK    1  A    between atoms: N_1  and  C_2
REMARK    2  A    between atoms: N_1  and  C_11
REMARK    3  A    between atoms: N_1  and  N_25
REMARK    4  A    between atoms: C_5  and  O_9
REMARK    5  A    between atoms: C_10  and  C_12
REMARK    6  A    between atoms: C_10  and  C_18
REMARK    7  A    between atoms: C_11  and  C_23
REMARK    8  A    between atoms: N_25  and  C_26
REMARK    9  A    between atoms: C_29  and  C_32
REMARK   10  A    between atoms: C_33  and  C_34
REMARK                            x       y       z     vdW  Elec       q    Type
REMARK                         _______ _______ _______ _____ _____    ______ ____
ROOT
ATOM      1  N   UNL     1       3.695  -5.375  28.088  0.00  0.00    -0.228 N 
ENDROOT
BRANCH   1   2
ATOM      2  C   UNL     1       3.116  -6.395  27.306  0.00  0.00    +0.068 C 
ATOM      3  C   UNL     1       3.205  -7.736  27.492  0.00  0.00    +0.026 C 
ATOM      4  C   UNL     1       2.558  -8.633  26.642  0.00  0.00    +0.069 C 
ATOM      5  C   UNL     1       1.799  -8.210  25.575  0.00  0.00    +0.140 C 
ATOM      6  C   UNL     1       1.704  -6.853  25.379  0.00  0.00    +0.038 C 
ATOM      7  C   UNL     1       2.339  -5.966  26.211  0.00  0.00    +0.019 C 
ATOM      8 BR   UNL     1       2.702 -10.516  26.934  0.00  0.00    -0.046 Br
BRANCH   5   9
ATOM      9  O   UNL     1       1.151  -9.089  24.726  0.00  0.00    -0.505 OA
ATOM     10  H   UNL     1       0.895  -9.936  25.034  0.00  0.00    +0.292 HD
ENDBRANCH   5   9
ENDBRANCH   1   2
BRANCH   1  12
ATOM     11  C   UNL     1       4.305  -3.153  27.320  0.00  0.00    +0.066 C 
ATOM     12  C   UNL     1       4.566  -4.426  27.405  0.00  0.00    +0.111 C 
BRANCH  11  13
ATOM     13  C   UNL     1       3.067  -2.556  27.933  0.00  0.00    +0.156 C 
ATOM     14  N   UNL     1       3.175  -1.128  27.937  0.00  0.00    -0.276 NA
ATOM     15  C   UNL     1       2.072  -0.425  27.356  0.00  0.00    +0.098 C 
ATOM     16  C   UNL     1       1.743  -0.979  26.006  0.00  0.00    +0.007 C 
ATOM     17  C   UNL     1       1.679  -2.306  25.915  0.00  0.00    +0.056 C 
ATOM     18  N   UNL     1       1.941  -3.017  27.141  0.00  0.00    -0.318 N 
ATOM     19  H   UNL     1       4.016  -0.875  27.420  0.00  0.00    +0.125 HD
ATOM     20  H   UNL     1       1.385  -3.777  27.426  0.00  0.00    +0.148 HD
ENDBRANCH  11  13
BRANCH  11  21
ATOM     21  C   UNL     1       5.142  -2.254  26.557  0.00  0.00    +0.181 A 
ATOM     22  N   UNL     1       4.995  -1.716  25.344  0.00  0.00    -0.109 NA
ATOM     23  N   UNL     1       6.025  -0.980  25.063  0.00  0.00    -0.023 NA
ATOM     24  N   UNL     1       6.869  -1.013  26.070  0.00  0.00    -0.046 NA
ATOM     25  N   UNL     1       6.349  -1.783  26.988  0.00  0.00    -0.239 N 
ATOM     26  H   UNL     1       6.763  -1.991  27.857  0.00  0.00    +0.192 HD
ENDBRANCH  11  21
BRANCH  12  27
ATOM     27  C   UNL     1       5.783  -5.000  26.863  0.00  0.00    +0.250 C 
ATOM     28  O   UNL     1       6.666  -5.482  27.574  0.00  0.00    -0.282 OA
ENDBRANCH  12  27
ENDBRANCH   1  12
BRANCH   1  29
ATOM     29  N   UNL     1       3.535  -5.233  29.435  0.00  0.00    -0.201 NA
ATOM     30  H   UNL     1       4.264  -4.594  29.752  0.00  0.00    +0.148 HD
BRANCH  29  31
ATOM     31  C   UNL     1       2.318  -4.751  29.951  0.00  0.00    +0.189 C 
ATOM     32  O   UNL     1       2.271  -4.353  31.254  0.00  0.00    -0.339 OA
ATOM     33  C   UNL     1       2.263  -5.334  32.209  0.00  0.00    +0.148 C 
ATOM     34  C   UNL     1       1.040  -6.198  31.967  0.00  0.00    +0.051 C 
ATOM     35  C   UNL     1       1.292  -6.858  30.602  0.00  0.00    +0.011 C 
ATOM     36  C   UNL     1       1.217  -5.734  29.593  0.00  0.00    +0.048 C 
BRANCH  34  37
ATOM     37  C   UNL     1       0.781  -7.189  33.006  0.00  0.00    -0.029 C 
ATOM     38  C   UNL     1      -0.358  -7.835  33.085  0.00  0.00    -0.031 C 
BRANCH  38  39
ATOM     39  C   UNL     1      -1.538  -7.728  32.226  0.00  0.00    +0.022 C 
ATOM     40  C   UNL     1      -2.292  -6.411  32.508  0.00  0.00    +0.004 C 
ATOM     41  C   UNL     1      -3.685  -6.607  31.939  0.00  0.00    +0.000 C 
ATOM     42  C   UNL     1      -4.470  -7.369  33.013  0.00  0.00    +0.000 C 
ATOM     43  C   UNL     1      -3.526  -8.389  33.596  0.00  0.00    +0.000 C 
ATOM     44  C   UNL     1      -2.501  -8.859  32.594  0.00  0.00    +0.004 C 
ENDBRANCH  38  39
ENDBRANCH  34  37
ENDBRANCH  29  31
ENDBRANCH   1  29
TORSDOF 10
ENDMDL
