REMARK  Name = =
REMARK  0 active torsions:
REMARK  status: ('A' for Active; 'I' for Inactive)
REMARK                            x       y       z     vdW  Elec       q    Type
REMARK                         _______ _______ _______ _____ _____    ______ ____
ROOT
ATOM      1  N   UNL     1     -13.608 -42.331  27.555  0.00  0.00    -0.313 N 
ATOM      2  C   UNL     1     -12.386 -42.747  28.148  0.00  0.00    +0.301 C 
ATOM      3  O   UNL     1     -11.326 -42.295  27.645  0.00  0.00    -0.253 OA
ATOM      4  N   UNL     1     -12.295 -43.616  29.240  0.00  0.00    -0.259 N 
ATOM      5  C   UNL     1     -13.477 -44.188  29.884  0.00  0.00    +0.127 C 
ATOM      6  C   UNL     1     -13.033 -45.533  30.442  0.00  0.00    +0.164 C 
ATOM      7  O   UNL     1     -12.152 -45.311  31.486  0.00  0.00    -0.350 OA
ATOM      8  C   UNL     1     -11.272 -44.281  31.282  0.00  0.00    +0.164 C 
ATOM      9  C   UNL     1     -11.017 -44.004  29.801  0.00  0.00    +0.127 C 
ATOM     10  H   UNL     1     -14.465 -42.657  27.913  0.00  0.00    +0.146 HD
ATOM     11  H   UNL     1     -13.598 -41.716  26.786  0.00  0.00    +0.146 HD
ENDROOT
TORSDOF 0
