REMARK  Name = =
REMARK  6 active torsions:
REMARK  status: ('A' for Active; 'I' for Inactive)
REMARK    1  A    between atoms: C_1  and  C_22
REMARK    2  A    between atoms: C_1  and  C_30
REMARK    3  A    between atoms: C_5  and  C_8
REMARK    4  A    between atoms: C_22  and  N_29
REMARK    5  A    between atoms: C_30  and  O_32
REMARK    6  A    between atoms: O_32  and  N_33
REMARK                            x       y       z     vdW  Elec       q    Type
REMARK                         _______ _______ _______ _____ _____    ______ ____
ROOT
ATOM      1  C   UNL     1      53.549 153.504  26.382  0.00  0.00    +0.166 C 
ATOM      2  C   UNL     1      52.557 153.048  27.375  0.00  0.00    +0.162 C 
ATOM      3  O   UNL     1      52.795 152.066  28.030  0.00  0.00    -0.295 OA
ATOM      4  C   UNL     1      51.301 153.778  27.561  0.00  0.00    +0.065 C 
ATOM      5  C   UNL     1      51.444 155.270  27.493  0.00  0.00    +0.008 C 
ATOM      6  C   UNL     1      52.528 155.700  26.534  0.00  0.00    +0.001 C 
ATOM      7  C   UNL     1      53.833 154.959  26.732  0.00  0.00    +0.020 C 
ENDROOT
BRANCH   5   8
ATOM      8  C   UNL     1      51.708 155.948  28.814  0.00  0.00    +0.005 C 
ATOM      9  C   UNL     1      51.779 157.430  28.561  0.00  0.00    +0.026 C 
ATOM     10  C   UNL     1      51.154 158.269  29.618  0.00  0.00    -0.026 C 
ATOM     11  C   UNL     1      50.036 157.844  30.289  0.00  0.00    -0.026 C 
ATOM     12  C   UNL     1      49.447 158.599  31.246  0.00  0.00    -0.005 C 
ATOM     13  C   UNL     1      49.963 159.856  31.592  0.00  0.00    -0.000 C 
ATOM     14  C   UNL     1      51.082 160.280  30.920  0.00  0.00    -0.000 C 
ATOM     15  C   UNL     1      51.671 159.499  29.947  0.00  0.00    -0.005 C 
ATOM     16  C   UNL     1      51.614 161.529  31.248  0.00  0.00    -0.000 C 
ATOM     17  C   UNL     1      51.043 162.322  32.213  0.00  0.00    -0.000 C 
ATOM     18  C   UNL     1      49.918 161.853  32.863  0.00  0.00    -0.000 C 
ATOM     19  C   UNL     1      49.387 160.636  32.552  0.00  0.00    -0.000 C 
ATOM     20  C   UNL     1      49.530 156.512  29.909  0.00  0.00    +0.026 C 
ATOM     21  C   UNL     1      50.776 155.626  29.909  0.00  0.00    +0.005 C 
ENDBRANCH   5   8
BRANCH   1  22
ATOM     22  C   UNL     1      54.816 152.673  26.411  0.00  0.00    +0.160 C 
ATOM     23  C   UNL     1      54.739 151.466  25.576  0.00  0.00    +0.117 C 
ATOM     24  N   UNL     1      55.896 151.851  24.850  0.00  0.00    -0.301 N 
ATOM     25  C   UNL     1      55.777 153.156  25.389  0.00  0.00    +0.241 C 
ATOM     26  O   UNL     1      56.326 154.241  25.050  0.00  0.00    -0.273 OA
ATOM     27  H   UNL     1      56.518 151.402  24.233  0.00  0.00    +0.150 HD
BRANCH  22  30
ATOM     28  C   UNL     1      56.739 152.098  27.936  0.00  0.00    +0.300 C 
ATOM     29  O   UNL     1      57.415 151.648  26.994  0.00  0.00    -0.265 OA
ATOM     30  N   UNL     1      55.458 152.610  27.694  0.00  0.00    -0.291 N 
ATOM     31  H   UNL     1      54.956 152.955  28.467  0.00  0.00    +0.150 HD
ENDBRANCH  22  30
ENDBRANCH   1  22
BRANCH   1  32
ATOM     32  C   UNL     1      53.011 153.510  25.000  0.00  0.00    +0.342 C 
ATOM     33  O   UNL     1      51.809 153.335  24.716  0.00  0.00    -0.248 OA
BRANCH  32  34
ATOM     34  O   UNL     1      53.909 153.723  23.966  0.00  0.00    -0.371 OA
BRANCH  34  35
ATOM     35  N   UNL     1      53.642 153.374  22.662  0.00  0.00    -0.165 NA
ATOM     36  H   UNL     1      54.438 153.621  22.074  0.00  0.00    +0.163 HD
ATOM     37  H   UNL     1      52.813 153.873  22.339  0.00  0.00    +0.163 HD
ENDBRANCH  34  35
ENDBRANCH  32  34
ENDBRANCH   1  32
TORSDOF 6
