REMARK  Name = =
REMARK  0 active torsions:
REMARK  status: ('A' for Active; 'I' for Inactive)
REMARK                            x       y       z     vdW  Elec       q    Type
REMARK                         _______ _______ _______ _____ _____    ______ ____
ROOT
ATOM      1  C   UNL     1      51.390 156.364  29.338  0.00  0.00    +0.106 C 
ATOM      2  C   UNL     1      50.637 157.255  30.251  0.00  0.00    +0.089 C 
ATOM      3  N   UNL     1      51.427 158.407  29.860  0.00  0.00    -0.259 N 
ATOM      4  C   UNL     1      50.987 159.703  30.236  0.00  0.00    +0.063 C 
ATOM      5  C   UNL     1      49.741 159.852  30.656  0.00  0.00    -0.010 C 
ATOM      6  C   UNL     1      48.773 158.727  30.757  0.00  0.00    +0.029 C 
ATOM      7  C   UNL     1      49.206 157.552  29.904  0.00  0.00    +0.025 C 
ATOM      8  C   UNL     1      52.339 157.520  29.228  0.00  0.00    +0.231 C 
ATOM      9  O   UNL     1      53.498 157.698  28.770  0.00  0.00    -0.274 OA
ENDROOT
TORSDOF 0
