REMARK  Name = =
REMARK  2 active torsions:
REMARK  status: ('A' for Active; 'I' for Inactive)
REMARK    1  A    between atoms: P_2  and  O_4
REMARK    2  A    between atoms: P_2  and  O_5
REMARK                            x       y       z     vdW  Elec       q    Type
REMARK                         _______ _______ _______ _____ _____    ______ ____
ROOT
ATOM      1  S   UNL     1      -1.968  -3.586  30.492  0.00  0.00    +0.039 S 
ATOM      2  P   UNL     1      -3.168  -4.809  30.653  0.00  0.00    +0.397 P 
ATOM      3  O   UNL     1      -3.834  -4.760  32.023  0.00  0.00    -0.245 OA
ENDROOT
BRANCH   2   4
ATOM      4  O   UNL     1      -2.551  -6.338  30.314  0.00  0.00    -0.316 OA
ATOM      5  H   UNL     1      -1.840  -6.546  30.940  0.00  0.00    +0.221 HD
ENDBRANCH   2   4
BRANCH   2   6
ATOM      6  O   UNL     1      -4.416  -4.471  29.538  0.00  0.00    -0.316 OA
ATOM      7  H   UNL     1      -4.783  -3.592  29.720  0.00  0.00    +0.221 HD
ENDBRANCH   2   6
TORSDOF 2
