REMARK  Name = =
REMARK  0 active torsions:
REMARK  status: ('A' for Active; 'I' for Inactive)
REMARK                            x       y       z     vdW  Elec       q    Type
REMARK                         _______ _______ _______ _____ _____    ______ ____
ROOT
ATOM      1  N   UNL     1      -3.747  -3.957  30.826  0.00  0.00    -0.244 NA
ATOM      2  C   UNL     1      -2.459  -3.990  30.446  0.00  0.00    +0.083 C 
ATOM      3  C   UNL     1      -1.720  -5.139  30.637  0.00  0.00    +0.018 C 
ATOM      4  C   UNL     1      -0.394  -5.191  30.252  0.00  0.00    +0.003 C 
ATOM      5  C   UNL     1       0.242  -4.105  29.666  0.00  0.00    +0.018 C 
ATOM      6  C   UNL     1      -0.492  -2.953  29.472  0.00  0.00    +0.083 C 
ATOM      7  N   UNL     1       0.125  -1.901  28.905  0.00  0.00    -0.244 NA
ATOM      8  C   UNL     1       1.415  -1.919  28.518  0.00  0.00    +0.099 C 
ATOM      9  C   UNL     1       2.180  -3.054  28.696  0.00  0.00    +0.021 C 
ATOM     10  C   UNL     1       1.569  -4.148  29.278  0.00  0.00    +0.003 C 
ATOM     11  C   UNL     1      -1.819  -2.915  29.863  0.00  0.00    +0.038 C 
ATOM     12  C   UNL     1      -2.355  -6.223  31.222  0.00  0.00    +0.003 C 
ATOM     13  C   UNL     1      -3.677  -6.162  31.603  0.00  0.00    +0.021 C 
ATOM     14  C   UNL     1      -4.386  -4.996  31.396  0.00  0.00    +0.099 C 
ENDROOT
TORSDOF 0
