REMARK  Name = =
REMARK  0 active torsions:
REMARK  status: ('A' for Active; 'I' for Inactive)
REMARK                            x       y       z     vdW  Elec       q    Type
REMARK                         _______ _______ _______ _____ _____    ______ ____
ROOT
ATOM      1  N   UNL     1     -14.993 -15.421  24.571  0.00  0.00    -0.244 NA
ATOM      2  C   UNL     1     -15.070 -14.484  23.603  0.00  0.00    +0.083 C 
ATOM      3  C   UNL     1     -15.302 -14.867  22.299  0.00  0.00    +0.018 C 
ATOM      4  C   UNL     1     -15.388 -13.901  21.317  0.00  0.00    +0.003 C 
ATOM      5  C   UNL     1     -15.252 -12.552  21.570  0.00  0.00    +0.018 C 
ATOM      6  C   UNL     1     -15.019 -12.168  22.878  0.00  0.00    +0.084 C 
ATOM      7  N   UNL     1     -14.889 -10.846  23.162  0.00  0.00    -0.230 NA
ATOM      8  C   UNL     1     -14.974  -9.878  22.235  0.00  0.00    +0.137 C 
ATOM      9  N   UNL     1     -14.852  -8.491  22.527  0.00  0.00    -0.244 N 
ATOM     10  C   UNL     1     -16.014  -7.592  22.582  0.00  0.00    +0.100 C 
ATOM     11  C   UNL     1     -15.464  -6.216  22.283  0.00  0.00    +0.032 C 
ATOM     12  C   UNL     1     -13.963  -6.313  22.267  0.00  0.00    +0.087 C 
ATOM     13  C   UNL     1     -13.710  -7.695  22.805  0.00  0.00    +0.230 C 
ATOM     14  O   UNL     1     -12.705  -8.149  23.402  0.00  0.00    -0.274 OA
ATOM     15  C   UNL     1     -15.209 -10.297  20.921  0.00  0.00    +0.035 C 
ATOM     16  C   UNL     1     -15.348 -11.601  20.572  0.00  0.00    +0.004 C 
ATOM     17  C   UNL     1     -14.932 -13.127  23.865  0.00  0.00    +0.038 C 
ATOM     18  C   UNL     1     -15.450 -16.219  22.013  0.00  0.00    +0.003 C 
ATOM     19  C   UNL     1     -15.373 -17.181  22.993  0.00  0.00    +0.021 C 
ATOM     20  C   UNL     1     -15.139 -16.737  24.276  0.00  0.00    +0.099 C 
ENDROOT
TORSDOF 0
