REMARK  Name = =
REMARK  1 active torsions:
REMARK  status: ('A' for Active; 'I' for Inactive)
REMARK    1  A    between atoms: C_11  and  N_21
REMARK                            x       y       z     vdW  Elec       q    Type
REMARK                         _______ _______ _______ _____ _____    ______ ____
ROOT
ATOM      1  N   UNL     1     -17.465 -12.714  24.376  0.00  0.00    -0.244 NA
ATOM      2  C   UNL     1     -16.871 -12.049  23.364  0.00  0.00    +0.083 C 
ATOM      3  C   UNL     1     -17.339 -12.173  22.067  0.00  0.00    +0.018 C 
ATOM      4  C   UNL     1     -16.737 -11.498  21.028  0.00  0.00    +0.003 C 
ATOM      5  C   UNL     1     -15.645 -10.683  21.293  0.00  0.00    +0.018 C 
ATOM      6  C   UNL     1     -15.141 -10.527  22.568  0.00  0.00    +0.084 C 
ATOM      7  N   UNL     1     -14.081  -9.731  22.807  0.00  0.00    -0.230 NA
ATOM      8  C   UNL     1     -13.440  -9.040  21.849  0.00  0.00    +0.137 C 
ATOM      9  N   UNL     1     -12.325  -8.203  22.115  0.00  0.00    -0.242 N 
ATOM     10  C   UNL     1     -11.217  -7.984  21.172  0.00  0.00    +0.116 C 
ATOM     11  C   UNL     1     -10.883  -6.543  21.493  0.00  0.00    +0.087 C 
ATOM     12  C   UNL     1     -10.958  -6.535  23.009  0.00  0.00    +0.103 C 
ATOM     13  C   UNL     1     -12.069  -7.444  23.291  0.00  0.00    +0.232 C 
ATOM     14  O   UNL     1     -12.695  -7.548  24.372  0.00  0.00    -0.274 OA
ATOM     15  C   UNL     1     -13.926  -9.178  20.561  0.00  0.00    +0.035 C 
ATOM     16  C   UNL     1     -15.017  -9.992  20.280  0.00  0.00    +0.004 C 
ATOM     17  C   UNL     1     -15.780 -11.224  23.572  0.00  0.00    +0.038 C 
ATOM     18  C   UNL     1     -18.425 -12.996  21.865  0.00  0.00    +0.003 C 
ATOM     19  C   UNL     1     -19.032 -13.677  22.912  0.00  0.00    +0.021 C 
ATOM     20  C   UNL     1     -18.524 -13.516  24.182  0.00  0.00    +0.099 C 
ENDROOT
BRANCH  11  21
ATOM     21  N   UNL     1      -9.529  -6.177  21.129  0.00  0.00    -0.272 NA
ATOM     22  C   UNL     1      -9.553  -5.003  20.312  0.00  0.00    +0.072 C 
ATOM     23  C   UNL     1      -9.281  -3.741  21.103  0.00  0.00    +0.017 C 
ATOM     24  C   UNL     1      -7.885  -3.782  21.669  0.00  0.00    +0.003 C 
ATOM     25  C   UNL     1      -7.574  -5.140  22.223  0.00  0.00    +0.017 C 
ATOM     26  C   UNL     1      -8.779  -6.034  22.352  0.00  0.00    +0.072 C 
ENDBRANCH  11  21
TORSDOF 1
