REMARK  Name = =
REMARK  5 active torsions:
REMARK  status: ('A' for Active; 'I' for Inactive)
REMARK    1  A    between atoms: C_11  and  N_21
REMARK    2  A    between atoms: C_18  and  C_27
REMARK    3  A    between atoms: N_28  and  N_29
REMARK    4  A    between atoms: N_29  and  C_30
REMARK    5  A    between atoms: C_30  and  N_32
REMARK                            x       y       z     vdW  Elec       q    Type
REMARK                         _______ _______ _______ _____ _____    ______ ____
ROOT
ATOM      1  N   UNL     1     -10.883  -6.205  24.246  0.00  0.00    -0.244 NA
ATOM      2  C   UNL     1     -11.956  -6.435  23.463  0.00  0.00    +0.083 C 
ATOM      3  C   UNL     1     -12.402  -5.482  22.555  0.00  0.00    +0.019 C 
ATOM      4  C   UNL     1     -13.501  -5.770  21.783  0.00  0.00    +0.003 C 
ATOM      5  C   UNL     1     -14.192  -6.980  21.870  0.00  0.00    +0.018 C 
ATOM      6  C   UNL     1     -13.725  -7.903  22.778  0.00  0.00    +0.084 C 
ATOM      7  N   UNL     1     -14.363  -9.093  22.896  0.00  0.00    -0.230 NA
ATOM      8  C   UNL     1     -15.433  -9.398  22.158  0.00  0.00    +0.137 C 
ATOM      9  N   UNL     1     -16.086 -10.636  22.293  0.00  0.00    -0.242 N 
ATOM     10  C   UNL     1     -15.869 -11.902  21.575  0.00  0.00    +0.116 C 
ATOM     11  C   UNL     1     -17.308 -12.352  21.414  0.00  0.00    +0.087 C 
ATOM     12  C   UNL     1     -17.977 -11.992  22.724  0.00  0.00    +0.103 C 
ATOM     13  C   UNL     1     -17.152 -10.863  23.231  0.00  0.00    +0.232 C 
ATOM     14  O   UNL     1     -17.397 -10.257  24.299  0.00  0.00    -0.274 OA
ATOM     15  C   UNL     1     -15.902  -8.470  21.245  0.00  0.00    +0.035 C 
ATOM     16  C   UNL     1     -15.282  -7.237  21.087  0.00  0.00    +0.004 C 
ATOM     17  C   UNL     1     -12.623  -7.624  23.557  0.00  0.00    +0.038 C 
ATOM     18  C   UNL     1     -11.698  -4.270  22.479  0.00  0.00    +0.024 C 
ATOM     19  C   UNL     1     -10.607  -4.057  23.287  0.00  0.00    +0.022 C 
ATOM     20  C   UNL     1     -10.214  -5.058  24.176  0.00  0.00    +0.099 C 
ENDROOT
BRANCH  11  21
ATOM     21  N   UNL     1     -17.372 -13.775  21.255  0.00  0.00    -0.272 NA
ATOM     22  C   UNL     1     -16.728 -14.242  20.056  0.00  0.00    +0.072 C 
ATOM     23  C   UNL     1     -17.582 -13.863  18.885  0.00  0.00    +0.017 C 
ATOM     24  C   UNL     1     -18.866 -14.610  18.969  0.00  0.00    +0.003 C 
ATOM     25  C   UNL     1     -19.243 -15.092  20.329  0.00  0.00    +0.017 C 
ATOM     26  C   UNL     1     -18.680 -14.311  21.465  0.00  0.00    +0.072 C 
ENDBRANCH  11  21
BRANCH  18  27
ATOM     27  C   UNL     1     -12.136  -3.263  21.548  0.00  0.00    +0.118 C 
ATOM     28  N   UNL     1     -11.698  -2.100  21.362  0.00  0.00    -0.178 NA
BRANCH  28  29
ATOM     29  N   UNL     1     -10.704  -1.418  21.946  0.00  0.00    -0.218 N 
ATOM     30  H   UNL     1      -9.773  -1.578  21.670  0.00  0.00    +0.176 HD
BRANCH  29  31
ATOM     31  C   UNL     1     -10.990  -0.450  22.977  0.00  0.00    +0.147 C 
ATOM     32  S   UNL     1      -9.800   0.329  23.765  0.00  0.00    -0.017 S 
BRANCH  31  33
ATOM     33  N   UNL     1     -12.330  -0.156  23.325  0.00  0.00    -0.339 N 
ATOM     34  H   UNL     1     -13.070  -0.613  22.864  0.00  0.00    +0.144 HD
ATOM     35  H   UNL     1     -12.522   0.506  24.028  0.00  0.00    +0.144 HD
ENDBRANCH  31  33
ENDBRANCH  29  31
ENDBRANCH  28  29
ENDBRANCH  18  27
TORSDOF 5
