REMARK  Name = =
REMARK  5 active torsions:
REMARK  status: ('A' for Active; 'I' for Inactive)
REMARK    1  A    between atoms: C_1  and  O_22
REMARK    2  A    between atoms: C_4  and  N_7
REMARK    3  A    between atoms: C_4  and  C_16
REMARK    4  A    between atoms: O_22  and  P_24
REMARK    5  A    between atoms: P_24  and  O_26
REMARK                            x       y       z     vdW  Elec       q    Type
REMARK                         _______ _______ _______ _____ _____    ______ ____
ROOT
ATOM      1  C   UNL     1      -8.090  -4.467  20.959  0.00  0.00    +0.125 C 
ATOM      2  C   UNL     1      -7.461  -3.766  19.758  0.00  0.00    +0.032 C 
ATOM      3  C   UNL     1      -6.045  -4.278  19.693  0.00  0.00    +0.021 C 
ATOM      4  C   UNL     1      -5.196  -3.467  20.697  0.00  0.00    +0.064 C 
ATOM      5  C   UNL     1      -5.965  -3.550  21.979  0.00  0.00    +0.021 C 
ATOM      6  C   UNL     1      -7.028  -4.635  21.994  0.00  0.00    +0.032 C 
ENDROOT
BRANCH   4   7
ATOM      7  N   UNL     1      -5.107  -2.134  20.145  0.00  0.00    -0.272 N 
ATOM      8  C   UNL     1      -4.883  -1.764  18.864  0.00  0.00    +0.168 C 
ATOM      9  N   UNL     1      -4.877  -0.427  18.744  0.00  0.00    -0.226 NA
ATOM     10  C   UNL     1      -5.096   0.103  19.950  0.00  0.00    +0.096 C 
ATOM     11  C   UNL     1      -5.240  -0.963  20.825  0.00  0.00    +0.070 C 
ATOM     12  C   UNL     1      -5.476  -0.649  22.145  0.00  0.00    +0.016 C 
ATOM     13  C   UNL     1      -5.575   0.641  22.618  0.00  0.00    +0.001 C 
ATOM     14  C   UNL     1      -5.425   1.649  21.701  0.00  0.00    +0.002 C 
ATOM     15  C   UNL     1      -5.185   1.414  20.366  0.00  0.00    +0.020 C 
ENDBRANCH   4   7
BRANCH   4  16
ATOM     16  C   UNL     1      -3.891  -4.207  20.734  0.00  0.00    +0.025 C 
ATOM     17  C   UNL     1      -2.661  -3.386  20.864  0.00  0.00    +0.066 C 
ATOM     18  C   UNL     1      -1.636  -4.434  20.485  0.00  0.00    +0.151 C 
ATOM     19  O   UNL     1      -0.519  -4.554  21.013  0.00  0.00    -0.296 OA
ATOM     20  C   UNL     1      -2.306  -5.172  19.424  0.00  0.00    +0.065 C 
ATOM     21  C   UNL     1      -3.627  -5.049  19.555  0.00  0.00    +0.010 C 
ENDBRANCH   4  16
BRANCH   1  22
ATOM     22  O   UNL     1      -8.412  -5.766  20.499  0.00  0.00    -0.289 OA
BRANCH  22  24
ATOM     23  S   UNL     1      -9.824  -7.959  21.372  0.00  0.00    +0.039 S 
ATOM     24  P   UNL     1      -9.911  -6.258  21.092  0.00  0.00    +0.400 P 
ATOM     25  O   UNL     1     -10.201  -5.549  22.402  0.00  0.00    -0.245 OA
BRANCH  24  26
ATOM     26  O   UNL     1     -11.170  -5.914  20.035  0.00  0.00    -0.316 OA
ATOM     27  H   UNL     1     -11.010  -6.356  19.187  0.00  0.00    +0.221 HD
ENDBRANCH  24  26
ENDBRANCH  22  24
ENDBRANCH   1  22
TORSDOF 5
