REMARK  Name = =
REMARK  6 active torsions:
REMARK  status: ('A' for Active; 'I' for Inactive)
REMARK    1  A    between atoms: C_11  and  N_21
REMARK    2  A    between atoms: C_18  and  C_27
REMARK    3  A    between atoms: N_28  and  N_29
REMARK    4  A    between atoms: N_29  and  C_30
REMARK    5  A    between atoms: N_29  and  C_35
REMARK    6  A    between atoms: C_35  and  N_37
REMARK                            x       y       z     vdW  Elec       q    Type
REMARK                         _______ _______ _______ _____ _____    ______ ____
ROOT
ATOM      1  N   UNL     1     -14.053  -3.889  23.291  0.00  0.00    -0.244 NA
ATOM      2  C   UNL     1     -14.083  -4.986  22.495  0.00  0.00    +0.083 C 
ATOM      3  C   UNL     1     -13.565  -4.946  21.209  0.00  0.00    +0.019 C 
ATOM      4  C   UNL     1     -13.606  -6.077  20.407  0.00  0.00    +0.003 C 
ATOM      5  C   UNL     1     -14.169  -7.269  20.891  0.00  0.00    +0.018 C 
ATOM      6  C   UNL     1     -14.685  -7.312  22.167  0.00  0.00    +0.084 C 
ATOM      7  N   UNL     1     -15.219  -8.462  22.600  0.00  0.00    -0.230 NA
ATOM      8  C   UNL     1     -15.285  -9.593  21.855  0.00  0.00    +0.137 C 
ATOM      9  N   UNL     1     -15.877 -10.788  22.383  0.00  0.00    -0.242 N 
ATOM     10  C   UNL     1     -17.308 -10.845  22.664  0.00  0.00    +0.116 C 
ATOM     11  C   UNL     1     -17.559 -12.342  22.610  0.00  0.00    +0.087 C 
ATOM     12  C   UNL     1     -16.354 -12.881  23.318  0.00  0.00    +0.103 C 
ATOM     13  C   UNL     1     -15.269 -12.031  22.707  0.00  0.00    +0.232 C 
ATOM     14  O   UNL     1     -14.065 -12.327  22.513  0.00  0.00    -0.274 OA
ATOM     15  C   UNL     1     -14.779  -9.579  20.579  0.00  0.00    +0.035 C 
ATOM     16  C   UNL     1     -14.212  -8.392  20.094  0.00  0.00    +0.004 C 
ATOM     17  C   UNL     1     -14.628  -6.170  22.936  0.00  0.00    +0.038 C 
ATOM     18  C   UNL     1     -13.014  -3.738  20.765  0.00  0.00    +0.024 C 
ATOM     19  C   UNL     1     -12.991  -2.614  21.598  0.00  0.00    +0.022 C 
ATOM     20  C   UNL     1     -13.524  -2.739  22.857  0.00  0.00    +0.099 C 
ENDROOT
BRANCH  11  21
ATOM     21  N   UNL     1     -18.815 -12.724  23.112  0.00  0.00    -0.272 NA
ATOM     22  C   UNL     1     -19.088 -12.464  24.472  0.00  0.00    +0.072 C 
ATOM     23  C   UNL     1     -19.417 -13.689  25.285  0.00  0.00    +0.017 C 
ATOM     24  C   UNL     1     -18.736 -14.928  24.777  0.00  0.00    +0.003 C 
ATOM     25  C   UNL     1     -19.112 -15.160  23.356  0.00  0.00    +0.017 C 
ATOM     26  C   UNL     1     -19.386 -13.910  22.569  0.00  0.00    +0.072 C 
ENDBRANCH  11  21
BRANCH  18  27
ATOM     27  C   UNL     1     -12.465  -3.667  19.425  0.00  0.00    +0.118 C 
ATOM     28  N   UNL     1     -11.944  -2.687  18.874  0.00  0.00    -0.173 NA
BRANCH  28  29
ATOM     29  N   UNL     1     -11.631  -1.396  19.096  0.00  0.00    -0.165 N 
BRANCH  29  30
ATOM     30  C   UNL     1     -12.571  -0.333  18.751  0.00  0.00    +0.216 C 
ATOM     31  N   UNL     1     -13.080  -0.485  17.388  0.00  0.00    -0.267 NA
ATOM     32  C   UNL     1     -13.457   0.883  17.029  0.00  0.00    +0.088 C 
ATOM     33  C   UNL     1     -12.965   1.778  18.156  0.00  0.00    +0.088 C 
ATOM     34  N   UNL     1     -11.872   0.957  18.695  0.00  0.00    -0.267 NA
ATOM     35  H   UNL     1     -13.888  -1.107  17.365  0.00  0.00    +0.126 HD
ATOM     36  H   UNL     1     -11.574   1.273  19.618  0.00  0.00    +0.126 HD
ENDBRANCH  29  30
BRANCH  29  37
ATOM     37  C   UNL     1     -10.373  -0.993  19.663  0.00  0.00    +0.153 C 
ATOM     38  S   UNL     1      -9.267  -2.167  20.040  0.00  0.00    -0.017 S 
BRANCH  37  39
ATOM     39  N   UNL     1     -10.074   0.351  19.899  0.00  0.00    -0.339 N 
ATOM     40  H   UNL     1     -10.732   1.048  19.675  0.00  0.00    +0.144 HD
ATOM     41  H   UNL     1      -9.206   0.601  20.290  0.00  0.00    +0.144 HD
ENDBRANCH  37  39
ENDBRANCH  29  37
ENDBRANCH  28  29
ENDBRANCH  18  27
TORSDOF 6
