REMARK  Name = =
REMARK  8 active torsions:
REMARK  status: ('A' for Active; 'I' for Inactive)
REMARK    1  A    between atoms: C_11  and  N_21
REMARK    2  A    between atoms: C_18  and  C_27
REMARK    3  A    between atoms: N_28  and  N_29
REMARK    4  A    between atoms: N_29  and  C_30
REMARK    5  A    between atoms: N_29  and  C_39
REMARK    6  A    between atoms: N_31  and  S_35
REMARK    7  A    between atoms: S_35  and  O_38
REMARK    8  A    between atoms: C_39  and  N_41
REMARK                            x       y       z     vdW  Elec       q    Type
REMARK                         _______ _______ _______ _____ _____    ______ ____
ROOT
ATOM      1  N   UNL     1     -10.245  -5.485  22.926  0.00  0.00    -0.244 NA
ATOM      2  C   UNL     1     -11.592  -5.562  22.739  0.00  0.00    +0.083 C 
ATOM      3  C   UNL     1     -12.326  -4.456  22.291  0.00  0.00    +0.019 C 
ATOM      4  C   UNL     1     -13.685  -4.582  22.118  0.00  0.00    +0.003 C 
ATOM      5  C   UNL     1     -14.359  -5.781  22.375  0.00  0.00    +0.018 C 
ATOM      6  C   UNL     1     -13.631  -6.857  22.814  0.00  0.00    +0.084 C 
ATOM      7  N   UNL     1     -14.268  -8.035  23.071  0.00  0.00    -0.230 NA
ATOM      8  C   UNL     1     -15.588  -8.211  22.919  0.00  0.00    +0.137 C 
ATOM      9  N   UNL     1     -16.231  -9.459  23.198  0.00  0.00    -0.242 N 
ATOM     10  C   UNL     1     -15.950 -10.778  22.634  0.00  0.00    +0.116 C 
ATOM     11  C   UNL     1     -16.049 -11.623  23.883  0.00  0.00    +0.087 C 
ATOM     12  C   UNL     1     -17.286 -11.109  24.557  0.00  0.00    +0.103 C 
ATOM     13  C   UNL     1     -17.308  -9.684  24.110  0.00  0.00    +0.232 C 
ATOM     14  O   UNL     1     -18.151  -8.835  24.492  0.00  0.00    -0.274 OA
ATOM     15  C   UNL     1     -16.343  -7.145  22.478  0.00  0.00    +0.035 C 
ATOM     16  C   UNL     1     -15.717  -5.926  22.207  0.00  0.00    +0.004 C 
ATOM     17  C   UNL     1     -12.273  -6.727  22.986  0.00  0.00    +0.038 C 
ATOM     18  C   UNL     1     -11.649  -3.292  22.046  0.00  0.00    +0.024 C 
ATOM     19  C   UNL     1     -10.257  -3.256  22.251  0.00  0.00    +0.022 C 
ATOM     20  C   UNL     1      -9.558  -4.356  22.693  0.00  0.00    +0.099 C 
ENDROOT
BRANCH  11  21
ATOM     21  N   UNL     1     -16.012 -13.022  23.671  0.00  0.00    -0.272 NA
ATOM     22  C   UNL     1     -14.725 -13.380  23.104  0.00  0.00    +0.072 C 
ATOM     23  C   UNL     1     -14.756 -14.875  22.866  0.00  0.00    +0.017 C 
ATOM     24  C   UNL     1     -15.844 -15.519  23.730  0.00  0.00    +0.003 C 
ATOM     25  C   UNL     1     -17.225 -15.031  23.312  0.00  0.00    +0.017 C 
ATOM     26  C   UNL     1     -17.031 -13.580  22.849  0.00  0.00    +0.072 C 
ENDBRANCH  11  21
BRANCH  18  27
ATOM     27  C   UNL     1     -12.345  -2.116  21.583  0.00  0.00    +0.118 C 
ATOM     28  N   UNL     1     -11.928  -1.440  20.536  0.00  0.00    -0.173 NA
BRANCH  28  29
ATOM     29  N   UNL     1     -12.584  -0.305  20.077  0.00  0.00    -0.163 N 
BRANCH  29  30
ATOM     30  C   UNL     1     -13.023   0.727  20.973  0.00  0.00    +0.238 C 
ATOM     31  N   UNL     1     -12.310   1.961  20.828  0.00  0.00    -0.122 NA
ATOM     32  C   UNL     1     -13.254   3.047  20.855  0.00  0.00    +0.116 C 
ATOM     33  C   UNL     1     -14.571   2.403  21.232  0.00  0.00    +0.090 C 
ATOM     34  N   UNL     1     -14.421   1.015  20.868  0.00  0.00    -0.265 NA
ATOM     35  H   UNL     1     -14.954   0.422  21.505  0.00  0.00    +0.126 HD
BRANCH  31  36
ATOM     36  S   UNL     1     -11.207   2.215  22.145  0.00  0.00    +0.051 S 
ATOM     37  O   UNL     1     -11.254   3.630  22.622  0.00  0.00    -0.056 OA
ATOM     38  O   UNL     1      -9.811   1.893  21.727  0.00  0.00    -0.056 OA
BRANCH  36  39
ATOM     39  O   UNL     1     -11.704   1.241  23.428  0.00  0.00    -0.258 OA
ATOM     40  H   UNL     1     -12.612   1.473  23.677  0.00  0.00    +0.244 HD
ENDBRANCH  36  39
ENDBRANCH  31  36
ENDBRANCH  29  30
BRANCH  29  41
ATOM     41  C   UNL     1     -12.821  -0.170  18.685  0.00  0.00    +0.153 C 
ATOM     42  S   UNL     1     -13.511  -1.364  17.789  0.00  0.00    -0.017 S 
BRANCH  41  43
ATOM     43  N   UNL     1     -12.469   1.014  17.985  0.00  0.00    -0.339 N 
ATOM     44  H   UNL     1     -12.052   1.765  18.466  0.00  0.00    +0.144 HD
ATOM     45  H   UNL     1     -12.642   1.084  17.018  0.00  0.00    +0.144 HD
ENDBRANCH  41  43
ENDBRANCH  29  41
ENDBRANCH  28  29
ENDBRANCH  18  27
TORSDOF 8
