REMARK  Name = =
REMARK  2 active torsions:
REMARK  status: ('A' for Active; 'I' for Inactive)
REMARK    1  A    between atoms: C_1  and  C_7
REMARK    2  A    between atoms: C_7  and  O_9
REMARK                            x       y       z     vdW  Elec       q    Type
REMARK                         _______ _______ _______ _____ _____    ______ ____
ROOT
ATOM      1  C   UNL     1       2.852   6.613  40.324  0.00  0.00    +0.075 C 
ATOM      2  C   UNL     1       1.952   6.064  41.206  0.00  0.00    +0.006 C 
ATOM      3  C   UNL     1       0.660   5.865  40.767  0.00  0.00    +0.000 C 
ATOM      4  C   UNL     1       0.272   6.207  39.472  0.00  0.00    +0.000 C 
ATOM      5  C   UNL     1       1.177   6.758  38.589  0.00  0.00    +0.000 C 
ATOM      6  C   UNL     1       2.462   6.949  39.046  0.00  0.00    +0.006 C 
ENDROOT
BRANCH   1   7
ATOM      7  C   UNL     1       4.223   6.829  40.773  0.00  0.00    +0.338 C 
ATOM      8  O   UNL     1       4.876   6.002  41.428  0.00  0.00    -0.245 OA
BRANCH   7   9
ATOM      9  O   UNL     1       4.887   8.035  40.469  0.00  0.00    -0.477 OA
ATOM     10  H   UNL     1       4.448   8.700  39.977  0.00  0.00    +0.295 HD
ENDBRANCH   7   9
ENDBRANCH   1   7
TORSDOF 2
