REMARK  Name = =
REMARK  3 active torsions:
REMARK  status: ('A' for Active; 'I' for Inactive)
REMARK    1  A    between atoms: C_3  and  N_11
REMARK    2  A    between atoms: C_5  and  O_12
REMARK    3  A    between atoms: C_6  and  C_8
REMARK                            x       y       z     vdW  Elec       q    Type
REMARK                         _______ _______ _______ _____ _____    ______ ____
ROOT
ATOM      1 CL   UNL     1      -4.845  -3.881  31.043  0.00  0.00    -0.081 Cl
ATOM      2  C   UNL     1      -5.959  -2.586  31.433  0.00  0.00    +0.071 C 
ATOM      3  C   UNL     1      -5.428  -1.314  31.505  0.00  0.00    +0.055 C 
ATOM      4  C   UNL     1      -6.299  -0.290  31.811  0.00  0.00    +0.052 C 
ATOM      5  C   UNL     1      -7.639  -0.533  32.035  0.00  0.00    +0.139 C 
ATOM      6  C   UNL     1      -8.137  -1.822  31.956  0.00  0.00    +0.088 C 
ATOM      7  C   UNL     1      -7.291  -2.867  31.651  0.00  0.00    +0.020 C 
ENDROOT
BRANCH   6   8
ATOM      8  C   UNL     1      -9.536  -2.040  32.195  0.00  0.00    +0.246 C 
ATOM      9  O   UNL     1     -10.328  -1.101  32.433  0.00  0.00    -0.270 OA
ATOM     10  N   UNL     1     -10.046  -3.365  32.161  0.00  0.00    -0.325 N 
ATOM     11  H   UNL     1      -9.442  -4.120  31.976  0.00  0.00    +0.145 HD
ATOM     12  H   UNL     1     -11.003  -3.528  32.323  0.00  0.00    +0.145 HD
ENDBRANCH   6   8
BRANCH   3  13
ATOM     13  N   UNL     1      -4.038  -1.082  31.269  0.00  0.00    -0.356 N 
ATOM     14  H   UNL     1      -3.443  -1.836  31.053  0.00  0.00    +0.142 HD
ATOM     15  H   UNL     1      -3.675  -0.168  31.323  0.00  0.00    +0.142 HD
ENDBRANCH   3  13
BRANCH   5  16
ATOM     16  O   UNL     1      -8.515   0.490  32.342  0.00  0.00    -0.505 OA
ATOM     17  H   UNL     1      -8.203   1.372  32.402  0.00  0.00    +0.292 HD
ENDBRANCH   5  16
TORSDOF 3
