REMARK  Name = =
REMARK  4 active torsions:
REMARK  status: ('A' for Active; 'I' for Inactive)
REMARK    1  A    between atoms: C_3  and  N_15
REMARK    2  A    between atoms: C_5  and  O_16
REMARK    3  A    between atoms: C_6  and  C_8
REMARK    4  A    between atoms: C_11  and  C_13
REMARK                            x       y       z     vdW  Elec       q    Type
REMARK                         _______ _______ _______ _____ _____    ______ ____
ROOT
ATOM      1 CL   UNL     1      -4.670  -4.123  31.182  0.00  0.00    -0.081 Cl
ATOM      2  C   UNL     1      -5.586  -2.642  31.473  0.00  0.00    +0.071 C 
ATOM      3  C   UNL     1      -4.960  -1.419  31.417  0.00  0.00    +0.055 C 
ATOM      4  C   UNL     1      -5.705  -0.282  31.650  0.00  0.00    +0.052 C 
ATOM      5  C   UNL     1      -7.048  -0.364  31.932  0.00  0.00    +0.139 C 
ATOM      6  C   UNL     1      -7.693  -1.584  31.992  0.00  0.00    +0.088 C 
ATOM      7  C   UNL     1      -6.929  -2.704  31.757  0.00  0.00    +0.020 C 
ENDROOT
BRANCH   6   8
ATOM      8  C   UNL     1      -9.118  -1.632  32.294  0.00  0.00    +0.255 C 
ATOM      9  O   UNL     1      -9.869  -0.708  31.868  0.00  0.00    -0.270 OA
ATOM     10  N   UNL     1      -9.726  -2.668  33.050  0.00  0.00    -0.245 N 
ATOM     11  C   UNL     1     -11.114  -2.709  33.342  0.00  0.00    +0.294 C 
ATOM     12  O   UNL     1     -11.855  -1.789  32.916  0.00  0.00    -0.266 OA
ATOM     13  H   UNL     1      -9.156  -3.395  33.389  0.00  0.00    +0.158 HD
BRANCH  11  14
ATOM     14  C   UNL     1     -11.716  -3.784  34.121  0.00  0.00    +0.292 C 
ATOM     15  O   UNL     1     -11.027  -4.710  34.621  0.00  0.00    -0.278 OA
ENDBRANCH  11  14
ENDBRANCH   6   8
BRANCH   3  16
ATOM     16  N   UNL     1      -3.576  -1.403  31.122  0.00  0.00    -0.356 N 
ATOM     17  H   UNL     1      -3.096  -2.248  30.965  0.00  0.00    +0.142 HD
ATOM     18  H   UNL     1      -3.093  -0.547  31.074  0.00  0.00    +0.142 HD
ENDBRANCH   3  16
BRANCH   5  19
ATOM     19  O   UNL     1      -7.774   0.783  32.161  0.00  0.00    -0.505 OA
ATOM     20  H   UNL     1      -7.353   1.619  32.124  0.00  0.00    +0.292 HD
ENDBRANCH   5  19
TORSDOF 4
