REMARK  Name = =
REMARK  4 active torsions:
REMARK  status: ('A' for Active; 'I' for Inactive)
REMARK    1  A    between atoms: C_3  and  N_8
REMARK    2  A    between atoms: C_5  and  O_26
REMARK    3  A    between atoms: C_6  and  C_19
REMARK    4  A    between atoms: C_22  and  C_24
REMARK                            x       y       z     vdW  Elec       q    Type
REMARK                         _______ _______ _______ _____ _____    ______ ____
ROOT
ATOM      1 CL   UNL     1      -4.349  -5.236  32.573  0.00  0.00    -0.081 Cl
ATOM      2  C   UNL     1      -5.083  -3.692  32.163  0.00  0.00    +0.071 C 
ATOM      3  C   UNL     1      -4.301  -2.752  31.478  0.00  0.00    +0.063 C 
ATOM      4  C   UNL     1      -4.940  -1.575  31.193  0.00  0.00    +0.052 C 
ATOM      5  C   UNL     1      -6.257  -1.312  31.548  0.00  0.00    +0.139 C 
ATOM      6  C   UNL     1      -6.996  -2.258  32.221  0.00  0.00    +0.088 C 
ATOM      7  C   UNL     1      -6.391  -3.448  32.522  0.00  0.00    +0.020 C 
ENDROOT
BRANCH   3   8
ATOM      8  N   UNL     1      -2.976  -3.051  31.136  0.00  0.00    -0.295 N 
ATOM      9  C   UNL     1      -2.172  -2.456  30.139  0.00  0.00    +0.172 C 
ATOM     10  N   UNL     1      -2.554  -1.481  29.333  0.00  0.00    -0.131 NA
ATOM     11  N   UNL     1      -1.858  -0.897  28.400  0.00  0.00    -0.145 NA
ATOM     12  C   UNL     1      -0.582  -1.330  28.220  0.00  0.00    +0.125 C 
ATOM     13  C   UNL     1      -0.092  -2.343  29.012  0.00  0.00    +0.061 C 
ATOM     14  C   UNL     1      -0.861  -2.920  29.973  0.00  0.00    +0.119 C 
ATOM     15  N   UNL     1      -0.402  -3.925  30.773  0.00  0.00    -0.221 NA
ATOM     16  C   UNL     1       0.857  -4.356  30.598  0.00  0.00    +0.199 C 
ATOM     17  N   UNL     1       1.637  -3.802  29.655  0.00  0.00    -0.222 NA
ATOM     18  C   UNL     1       1.217  -2.812  28.853  0.00  0.00    +0.104 C 
ATOM     19  H   UNL     1      -2.550  -3.769  31.658  0.00  0.00    +0.154 HD
ENDBRANCH   3   8
BRANCH   6  20
ATOM     20  C   UNL     1      -8.373  -1.936  32.570  0.00  0.00    +0.255 C 
ATOM     21  O   UNL     1      -8.903  -0.834  32.289  0.00  0.00    -0.270 OA
ATOM     22  N   UNL     1      -9.154  -2.880  33.249  0.00  0.00    -0.245 N 
ATOM     23  C   UNL     1     -10.524  -2.588  33.608  0.00  0.00    +0.294 C 
ATOM     24  O   UNL     1     -10.986  -1.472  33.296  0.00  0.00    -0.266 OA
ATOM     25  H   UNL     1      -8.765  -3.753  33.485  0.00  0.00    +0.158 HD
BRANCH  23  26
ATOM     26  C   UNL     1     -11.333  -3.554  34.306  0.00  0.00    +0.292 C 
ATOM     27  O   UNL     1     -10.862  -4.688  34.541  0.00  0.00    -0.278 OA
ENDBRANCH  23  26
ENDBRANCH   6  20
BRANCH   5  28
ATOM     28  O   UNL     1      -6.841  -0.096  31.228  0.00  0.00    -0.505 OA
ATOM     29  H   UNL     1      -6.347   0.555  30.770  0.00  0.00    +0.292 HD
ENDBRANCH   5  28
TORSDOF 4
