REMARK  Name = =
REMARK  5 active torsions:
REMARK  status: ('A' for Active; 'I' for Inactive)
REMARK    1  A    between atoms: C_3  and  N_8
REMARK    2  A    between atoms: C_5  and  O_32
REMARK    3  A    between atoms: C_6  and  C_19
REMARK    4  A    between atoms: C_22  and  C_24
REMARK    5  A    between atoms: C_24  and  C_26
REMARK                            x       y       z     vdW  Elec       q    Type
REMARK                         _______ _______ _______ _____ _____    ______ ____
ROOT
ATOM      1 CL   UNL     1      -4.483  -5.398  32.026  0.00  0.00    -0.081 Cl
ATOM      2  C   UNL     1      -3.912  -3.938  31.207  0.00  0.00    +0.071 C 
ATOM      3  C   UNL     1      -4.789  -2.853  31.179  0.00  0.00    +0.063 C 
ATOM      4  C   UNL     1      -4.326  -1.744  30.544  0.00  0.00    +0.052 C 
ATOM      5  C   UNL     1      -3.042  -1.691  29.952  0.00  0.00    +0.139 C 
ATOM      6  C   UNL     1      -2.188  -2.766  29.987  0.00  0.00    +0.088 C 
ATOM      7  C   UNL     1      -2.666  -3.911  30.641  0.00  0.00    +0.020 C 
ENDROOT
BRANCH   3   8
ATOM      8  N   UNL     1      -6.071  -2.941  31.785  0.00  0.00    -0.295 N 
ATOM      9  C   UNL     1      -7.134  -2.055  31.652  0.00  0.00    +0.172 C 
ATOM     10  N   UNL     1      -7.131  -0.960  30.927  0.00  0.00    -0.131 NA
ATOM     11  N   UNL     1      -8.133  -0.114  30.794  0.00  0.00    -0.145 NA
ATOM     12  C   UNL     1      -9.313  -0.316  31.431  0.00  0.00    +0.125 C 
ATOM     13  C   UNL     1      -9.391  -1.452  32.216  0.00  0.00    +0.061 C 
ATOM     14  C   UNL     1      -8.325  -2.326  32.339  0.00  0.00    +0.119 C 
ATOM     15  N   UNL     1      -8.425  -3.406  33.097  0.00  0.00    -0.221 NA
ATOM     16  C   UNL     1      -9.553  -3.687  33.764  0.00  0.00    +0.199 C 
ATOM     17  N   UNL     1     -10.594  -2.843  33.650  0.00  0.00    -0.222 NA
ATOM     18  C   UNL     1     -10.567  -1.733  32.904  0.00  0.00    +0.104 C 
ATOM     19  H   UNL     1      -6.224  -3.720  32.367  0.00  0.00    +0.154 HD
ENDBRANCH   3   8
BRANCH   6  20
ATOM     20  C   UNL     1      -0.855  -2.784  29.399  0.00  0.00    +0.255 C 
ATOM     21  O   UNL     1      -0.406  -1.745  28.863  0.00  0.00    -0.270 OA
ATOM     22  N   UNL     1      -0.016  -3.935  29.398  0.00  0.00    -0.246 N 
ATOM     23  C   UNL     1       1.279  -3.924  28.818  0.00  0.00    +0.288 C 
ATOM     24  O   UNL     1       1.687  -2.863  28.293  0.00  0.00    -0.267 OA
ATOM     25  H   UNL     1      -0.345  -4.765  29.813  0.00  0.00    +0.158 HD
BRANCH  23  26
ATOM     26  C   UNL     1       2.155  -5.085  28.804  0.00  0.00    +0.240 C 
ATOM     27  O   UNL     1       2.027  -5.892  29.782  0.00  0.00    -0.285 OA
BRANCH  26  28
ATOM     28  C   UNL     1       3.139  -5.343  27.741  0.00  0.00    +0.121 C 
ATOM     29  N   UNL     1       3.920  -6.491  28.097  0.00  0.00    -0.292 NA
ATOM     30  C   UNL     1       5.022  -6.736  27.202  0.00  0.00    +0.069 C 
ATOM     31  C   UNL     1       5.923  -5.528  27.063  0.00  0.00    +0.017 C 
ATOM     32  C   UNL     1       5.427  -4.452  28.005  0.00  0.00    +0.003 C 
ATOM     33  C   UNL     1       4.015  -4.100  27.614  0.00  0.00    +0.024 C 
ATOM     34  H   UNL     1       3.312  -7.310  28.092  0.00  0.00    +0.124 HD
ENDBRANCH  26  28
ENDBRANCH  23  26
ENDBRANCH   6  20
BRANCH   5  35
ATOM     35  O   UNL     1      -2.680  -0.521  29.339  0.00  0.00    -0.505 OA
ATOM     36  H   UNL     1      -1.838  -0.445  28.935  0.00  0.00    +0.292 HD
ENDBRANCH   5  35
TORSDOF 5
