REMARK  Name = =
REMARK  7 active torsions:
REMARK  status: ('A' for Active; 'I' for Inactive)
REMARK    1  A    between atoms: N_2  and  C_7
REMARK    2  A    between atoms: N_2  and  N_20
REMARK    3  A    between atoms: C_4  and  N_21
REMARK    4  A    between atoms: C_8  and  N_19
REMARK    5  A    between atoms: C_12  and  S_14
REMARK    6  A    between atoms: N_21  and  N_24
REMARK    7  A    between atoms: C_25  and  C_27
REMARK                            x       y       z     vdW  Elec       q    Type
REMARK                         _______ _______ _______ _____ _____    ______ ____
ROOT
ATOM      1  C   UNL     1      -5.778  -2.757  31.320  0.00  0.00    +0.303 C 
ATOM      2  N   UNL     1      -4.598  -3.408  30.870  0.00  0.00    -0.185 N 
ATOM      3  N   UNL     1      -5.871  -1.510  31.682  0.00  0.00    -0.199 NA
ATOM      4  C   UNL     1      -7.210  -1.185  32.092  0.00  0.00    +0.245 C 
ATOM      5  C   UNL     1      -7.921  -2.476  32.125  0.00  0.00    +0.255 C 
ATOM      6  O   UNL     1      -7.027  -3.338  31.442  0.00  0.00    -0.445 OA
ENDROOT
BRANCH   2   7
ATOM      7  C   UNL     1      -3.898  -4.312  31.680  0.00  0.00    +0.124 A 
ATOM      8  C   UNL     1      -4.157  -4.514  33.031  0.00  0.00    +0.145 A 
ATOM      9  N   UNL     1      -3.420  -5.383  33.796  0.00  0.00    -0.198 NA
ATOM     10  C   UNL     1      -2.416  -6.063  33.243  0.00  0.00    +0.215 A 
ATOM     11  N   UNL     1      -2.155  -5.875  31.930  0.00  0.00    -0.208 NA
ATOM     12  C   UNL     1      -2.858  -5.030  31.146  0.00  0.00    +0.110 A 
ATOM     13  N   UNL     1      -1.612  -6.991  33.996  0.00  0.00    -0.327 N 
ATOM     14  H   UNL     1      -1.793  -7.136  34.953  0.00  0.00    +0.145 HD
ATOM     15  H   UNL     1      -0.881  -7.481  33.554  0.00  0.00    +0.145 HD
BRANCH  12  16
ATOM     16  S   UNL     1      -2.356  -4.891  29.419  0.00  0.00    -0.174 S 
ATOM     17  C   UNL     1      -0.995  -3.763  29.088  0.00  0.00    +0.060 C 
ATOM     18  C   UNL     1       0.138  -4.700  28.826  0.00  0.00    +0.080 C 
ATOM     19  N   UNL     1      -0.147  -5.989  29.337  0.00  0.00    -0.289 NA
ATOM     20  C   UNL     1      -1.451  -6.382  28.815  0.00  0.00    +0.113 C 
ATOM     21  H   UNL     1      -3.557  -4.572  28.866  0.00  0.00    +0.091 HD
ATOM     22  H   UNL     1      -0.172  -5.963  30.356  0.00  0.00    +0.124 HD
ENDBRANCH  12  16
BRANCH   8  23
ATOM     23  N   UNL     1      -5.216  -3.806  33.651  0.00  0.00    -0.341 N 
ATOM     24  H   UNL     1      -5.761  -3.176  33.126  0.00  0.00    +0.144 HD
ATOM     25  H   UNL     1      -5.407  -3.944  34.607  0.00  0.00    +0.144 HD
ENDBRANCH   8  23
ENDBRANCH   2   7
BRANCH   2  26
ATOM     26  N   UNL     1      -4.204  -3.050  29.573  0.00  0.00    -0.245 NA
ATOM     27  H   UNL     1      -4.870  -2.380  29.188  0.00  0.00    +0.141 HD
ATOM     28  H   UNL     1      -4.179  -3.882  28.983  0.00  0.00    +0.141 HD
ENDBRANCH   2  26
BRANCH   4  29
ATOM     29  N   UNL     1      -7.850  -0.099  31.412  0.00  0.00    -0.176 N 
ATOM     30  C   UNL     1      -7.673   1.202  31.986  0.00  0.00    +0.322 C 
ATOM     31  O   UNL     1      -6.968   1.255  33.049  0.00  0.00    -0.263 OA
BRANCH  29  32
ATOM     32  N   UNL     1      -8.618  -0.316  30.284  0.00  0.00    -0.225 N 
ATOM     33  C   UNL     1      -9.104   0.642  29.359  0.00  0.00    +0.262 C 
ATOM     34  O   UNL     1      -8.828   1.879  29.573  0.00  0.00    -0.269 OA
ATOM     35  H   UNL     1      -8.858  -1.253  30.100  0.00  0.00    +0.173 HD
BRANCH  33  36
ATOM     36  C   UNL     1      -9.876   0.386  28.172  0.00  0.00    +0.056 C 
ATOM     37  C   UNL     1      -9.186   0.313  26.947  0.00  0.00    +0.005 C 
ATOM     38  C   UNL     1      -9.838  -0.009  25.790  0.00  0.00    +0.002 C 
ATOM     39  C   UNL     1     -11.207  -0.266  25.831  0.00  0.00    +0.019 C 
ATOM     40  C   UNL     1     -11.869  -0.191  27.030  0.00  0.00    +0.081 C 
ATOM     41  C   UNL     1     -11.223   0.135  28.213  0.00  0.00    +0.022 C 
ATOM     42  C   UNL     1     -11.933   0.249  29.361  0.00  0.00    +0.003 C 
ATOM     43  C   UNL     1     -13.314   0.037  29.350  0.00  0.00    +0.018 C 
ATOM     44  C   UNL     1     -13.901  -0.284  28.155  0.00  0.00    +0.081 C 
ATOM     45  N   UNL     1     -13.187  -0.393  27.028  0.00  0.00    -0.245 NA
ATOM     46  C   UNL     1     -15.275  -0.476  28.110  0.00  0.00    +0.019 C 
ATOM     47  C   UNL     1     -16.032  -0.343  29.253  0.00  0.00    +0.002 C 
ATOM     48  C   UNL     1     -15.428  -0.019  30.458  0.00  0.00    +0.000 C 
ATOM     49  C   UNL     1     -14.087   0.170  30.500  0.00  0.00    +0.001 C 
ENDBRANCH  33  36
ENDBRANCH  29  32
ENDBRANCH   4  29
TORSDOF 7
