MODEL 1
REMARK VINA RESULT:    -8.030      0.000      0.000
REMARK INTER + INTRA:          -8.030
REMARK INTER:                  -8.030
REMARK INTRA:                   0.000
REMARK UNBOUND:                 0.000
REMARK  Name = =
REMARK  0 active torsions:
REMARK  status: ('A' for Active; 'I' for Inactive)
REMARK                            x       y       z     vdW  Elec       q    Type
REMARK                         _______ _______ _______ _____ _____    ______ ____
ROOT
ATOM      1  C   UNL     1      50.528 162.616  42.175  0.00  0.00    +0.100 C 
ATOM      2  C   UNL     1      51.826 162.301  41.914  0.00  0.00    +0.050 C 
ATOM      3  C   UNL     1      52.235 160.944  42.102  0.00  0.00    +0.086 C 
ATOM      4  N   UNL     1      51.356 160.032  42.528  0.00  0.00    -0.224 NA
ATOM      5  C   UNL     1      50.096 160.343  42.795  0.00  0.00    +0.199 C 
ATOM      6  N   UNL     1      49.735 161.593  42.612  0.00  0.00    -0.223 NA
ATOM      7  C   UNL     1      53.536 160.543  41.902  0.00  0.00    +0.019 C 
ATOM      8  C   UNL     1      54.469 161.473  41.522  0.00  0.00    +0.003 C 
ATOM      9  C   UNL     1      54.104 162.761  41.353  0.00  0.00    +0.015 C 
ATOM     10  C   UNL     1      52.764 163.206  41.551  0.00  0.00    +0.059 C 
ATOM     11  C   UNL     1      49.889 163.884  41.974  0.00  0.00    +0.087 C 
ATOM     12  N   UNL     1      50.131 165.043  42.550  0.00  0.00    -0.189 N 
ATOM     13  N   UNL     1      49.485 166.148  42.381  0.00  0.00    -0.179 NA
ATOM     14  C   UNL     1      48.437 166.274  41.561  0.00  0.00    +0.100 C 
ATOM     15  C   UNL     1      48.072 165.123  40.892  0.00  0.00    +0.091 C 
ATOM     16  C   UNL     1      48.786 163.940  41.094  0.00  0.00    +0.023 C 
ATOM     17  C   UNL     1      48.300 162.862  40.406  0.00  0.00    +0.097 C 
ATOM     18  N   UNL     1      47.200 162.941  39.578  0.00  0.00    -0.243 NA
ATOM     19  C   UNL     1      46.521 164.068  39.379  0.00  0.00    +0.095 C 
ATOM     20  C   UNL     1      46.962 165.180  40.047  0.00  0.00    +0.005 C 
ATOM     21  N   UNL     1      52.633 164.604  41.522  0.00  0.00    -0.235 N 
ATOM     22  C   UNL     1      51.889 165.409  42.451  0.00  0.00    +0.200 C 
ATOM     23  C   UNL     1      52.264 166.854  42.196  0.00  0.00    +0.021 C 
ATOM     24  C   UNL     1      53.285 166.881  41.108  0.00  0.00    +0.057 C 
ATOM     25  C   UNL     1      53.390 165.470  40.686  0.00  0.00    +0.254 C 
ATOM     26  O   UNL     1      54.070 165.083  39.704  0.00  0.00    -0.270 OA
ENDROOT
TORSDOF 0
ENDMDL
