MODEL 1
REMARK VINA RESULT:    -6.615      0.000      0.000
REMARK INTER + INTRA:         -13.148
REMARK INTER:                 -10.675
REMARK INTRA:                  -2.473
REMARK UNBOUND:                -2.473
REMARK  Name = =
REMARK  11 active torsions:
REMARK  status: ('A' for Active; 'I' for Inactive)
REMARK    1  A    between atoms: C_1  and  O_3
REMARK    2  A    between atoms: C_1  and  O_23
REMARK    3  A    between atoms: O_3  and  C_5
REMARK    4  A    between atoms: N_4  and  C_10
REMARK    5  A    between atoms: N_9  and  C_17
REMARK    6  A    between atoms: C_19  and  O_22
REMARK    7  A    between atoms: O_23  and  N_24
REMARK    8  A    between atoms: N_24  and  S_28
REMARK    9  A    between atoms: S_28  and  C_29
REMARK   10  A    between atoms: C_29  and  N_31
REMARK   11  A    between atoms: N_31  and  C_32
REMARK                            x       y       z     vdW  Elec       q    Type
REMARK                         _______ _______ _______ _____ _____    ______ ____
ROOT
ATOM      1  C   UNL     1      59.075 160.234  38.821  0.00  0.00    +0.536 C 
ATOM      2  O   UNL     1      58.334 159.835  37.900  0.00  0.00    -0.201 OA
ENDROOT
BRANCH   1   3
ATOM      3  O   UNL     1      59.194 161.565  39.059  0.00  0.00    -0.404 OA
BRANCH   3   5
ATOM      4  N   UNL     1      60.628 163.406  39.157  0.00  0.00    -0.225 NA
ATOM      5  C   UNL     1      59.927 162.531  38.337  0.00  0.00    +0.236 C 
ATOM      6  C   UNL     1      61.045 161.811  37.532  0.00  0.00    +0.063 C 
ATOM      7  C   UNL     1      62.232 161.823  38.492  0.00  0.00    +0.023 C 
ATOM      8  C   UNL     1      61.839 162.817  39.584  0.00  0.00    +0.077 C 
BRANCH   4  10
ATOM      9  N   UNL     1      60.599 165.723  38.408  0.00  0.00    -0.294 N 
ATOM     10  C   UNL     1      60.422 164.717  39.405  0.00  0.00    +0.137 C 
ATOM     11  C   UNL     1      58.919 164.853  39.833  0.00  0.00    +0.037 C 
ATOM     12  C   UNL     1      58.709 166.142  40.571  0.00  0.00    +0.005 C 
ATOM     13  C   UNL     1      59.644 167.190  40.035  0.00  0.00    +0.022 C 
ATOM     14  C   UNL     1      59.760 166.917  38.534  0.00  0.00    +0.092 C 
BRANCH   9  17
ATOM     15  F   UNL     1      63.317 165.813  38.941  0.00  0.00    -0.203 F 
ATOM     16  C   UNL     1      62.879 165.751  37.648  0.00  0.00    +0.154 C 
ATOM     17  C   UNL     1      61.508 165.714  37.334  0.00  0.00    +0.080 C 
ATOM     18  C   UNL     1      61.202 165.650  36.009  0.00  0.00    +0.053 C 
ATOM     19  C   UNL     1      62.168 165.626  35.034  0.00  0.00    +0.135 C 
ATOM     20  C   UNL     1      63.503 165.666  35.369  0.00  0.00    +0.039 C 
ATOM     21  C   UNL     1      63.862 165.729  36.693  0.00  0.00    +0.034 C 
BRANCH  19  22
ATOM     22  O   UNL     1      61.799 165.563  33.672  0.00  0.00    -0.505 OA
ATOM     23  H   UNL     1      60.901 165.668  33.425  0.00  0.00    +0.292 HD
ENDBRANCH  19  22
ENDBRANCH   9  17
ENDBRANCH   4  10
ENDBRANCH   3   5
ENDBRANCH   1   3
BRANCH   1  24
ATOM     24  O   UNL     1      59.770 159.317  39.589  0.00  0.00    -0.298 OA
BRANCH  24  25
ATOM     25  N   UNL     1      59.551 159.231  40.976  0.00  0.00    -0.045 N 
ATOM     26  C   UNL     1      60.703 159.291  41.764  0.00  0.00    +0.343 C 
ATOM     27  O   UNL     1      60.688 159.189  43.013  0.00  0.00    -0.249 OA
ATOM     28  N   UNL     1      62.019 159.483  41.179  0.00  0.00    -0.310 N 
ATOM     29  H   UNL     1      62.117 159.572  40.204  0.00  0.00    +0.147 HD
ATOM     30  H   UNL     1      62.814 159.524  41.759  0.00  0.00    +0.147 HD
BRANCH  25  31
ATOM     31  S   UNL     1      57.925 159.045  41.476  0.00  0.00    +0.046 S 
BRANCH  31  32
ATOM     32  C   UNL     1      57.180 160.279  42.449  0.00  0.00    +0.130 C 
ATOM     33  S   UNL     1      57.900 161.672  42.919  0.00  0.00    -0.026 S 
BRANCH  32  34
ATOM     34  N   UNL     1      55.813 160.147  42.901  0.00  0.00    -0.300 N 
ATOM     35  H   UNL     1      55.589 160.208  43.859  0.00  0.00    +0.150 HD
BRANCH  34  36
ATOM     36  C   UNL     1      54.789 159.925  41.917  0.00  0.00    +0.227 C 
ATOM     37  N   UNL     1      54.497 161.196  41.251  0.00  0.00    -0.267 N 
ATOM     38  C   UNL     1      53.461 161.820  41.972  0.00  0.00    +0.308 C 
ATOM     39  O   UNL     1      53.096 163.049  41.982  0.00  0.00    -0.252 OA
ATOM     40  N   UNL     1      52.804 160.813  42.771  0.00  0.00    -0.237 N 
ATOM     41  C   UNL     1      53.471 159.569  42.511  0.00  0.00    +0.267 C 
ATOM     42  O   UNL     1      53.023 158.442  42.740  0.00  0.00    -0.271 OA
ATOM     43  H   UNL     1      54.942 161.549  40.448  0.00  0.00    +0.153 HD
ATOM     44  H   UNL     1      52.042 160.952  43.379  0.00  0.00    +0.159 HD
ENDBRANCH  34  36
ENDBRANCH  32  34
ENDBRANCH  31  32
ENDBRANCH  25  31
ENDBRANCH  24  25
ENDBRANCH   1  24
TORSDOF 11
ENDMDL
