REMARK  Name = =
REMARK  11 active torsions:
REMARK  status: ('A' for Active; 'I' for Inactive)
REMARK    1  A    between atoms: C_1  and  O_3
REMARK    2  A    between atoms: C_1  and  O_23
REMARK    3  A    between atoms: O_3  and  C_5
REMARK    4  A    between atoms: N_4  and  C_10
REMARK    5  A    between atoms: N_9  and  C_17
REMARK    6  A    between atoms: C_19  and  O_22
REMARK    7  A    between atoms: O_23  and  N_24
REMARK    8  A    between atoms: N_24  and  S_28
REMARK    9  A    between atoms: S_28  and  C_29
REMARK   10  A    between atoms: C_29  and  N_31
REMARK   11  A    between atoms: N_31  and  C_32
REMARK                            x       y       z     vdW  Elec       q    Type
REMARK                         _______ _______ _______ _____ _____    ______ ____
ROOT
ATOM      1  C   UNL     1      52.954 157.847  28.874  0.00  0.00    +0.536 C 
ATOM      2  O   UNL     1      51.849 158.334  28.559  0.00  0.00    -0.201 OA
ENDROOT
BRANCH   1   3
ATOM      3  O   UNL     1      53.234 156.557  28.560  0.00  0.00    -0.404 OA
BRANCH   3   5
ATOM      4  N   UNL     1      53.513 154.758  27.096  0.00  0.00    -0.225 NA
ATOM      5  C   UNL     1      52.652 155.742  27.564  0.00  0.00    +0.236 C 
ATOM      6  C   UNL     1      51.485 154.935  28.199  0.00  0.00    +0.063 C 
ATOM      7  C   UNL     1      52.162 153.649  28.666  0.00  0.00    +0.023 C 
ATOM      8  C   UNL     1      53.527 153.655  27.980  0.00  0.00    +0.077 C 
BRANCH   4  10
ATOM      9  N   UNL     1      53.832 153.571  24.994  0.00  0.00    -0.294 N 
ATOM     10  C   UNL     1      54.123 154.636  25.898  0.00  0.00    +0.137 C 
ATOM     11  C   UNL     1      53.774 155.937  25.093  0.00  0.00    +0.037 C 
ATOM     12  C   UNL     1      54.755 156.127  23.973  0.00  0.00    +0.005 C 
ATOM     13  C   UNL     1      55.209 154.787  23.466  0.00  0.00    +0.022 C 
ATOM     14  C   UNL     1      53.991 153.867  23.568  0.00  0.00    +0.092 C 
BRANCH   9  17
ATOM     15  F   UNL     1      51.433 153.173  26.322  0.00  0.00    -0.203 F 
ATOM     16  C   UNL     1      52.208 152.100  25.981  0.00  0.00    +0.154 C 
ATOM     17  C   UNL     1      53.437 152.259  25.315  0.00  0.00    +0.080 C 
ATOM     18  C   UNL     1      54.112 151.112  25.030  0.00  0.00    +0.053 C 
ATOM     19  C   UNL     1      53.630 149.873  25.370  0.00  0.00    +0.135 C 
ATOM     20  C   UNL     1      52.424 149.746  26.024  0.00  0.00    +0.039 C 
ATOM     21  C   UNL     1      51.705 150.874  26.332  0.00  0.00    +0.034 C 
BRANCH  19  22
ATOM     22  O   UNL     1      54.370 148.713  25.054  0.00  0.00    -0.505 OA
ATOM     23  H   UNL     1      55.191 148.788  24.609  0.00  0.00    +0.292 HD
ENDBRANCH  19  22
ENDBRANCH   9  17
ENDBRANCH   4  10
ENDBRANCH   3   5
ENDBRANCH   1   3
BRANCH   1  24
ATOM     24  O   UNL     1      53.882 158.626  29.542  0.00  0.00    -0.298 OA
BRANCH  24  25
ATOM     25  N   UNL     1      53.489 159.813  30.189  0.00  0.00    -0.045 N 
ATOM     26  C   UNL     1      54.409 160.861  30.116  0.00  0.00    +0.343 C 
ATOM     27  O   UNL     1      54.233 161.971  30.671  0.00  0.00    -0.249 OA
ATOM     28  N   UNL     1      55.654 160.735  29.377  0.00  0.00    -0.310 N 
ATOM     29  H   UNL     1      55.868 159.894  28.912  0.00  0.00    +0.147 HD
ATOM     30  H   UNL     1      56.284 161.491  29.341  0.00  0.00    +0.147 HD
BRANCH  25  31
ATOM     31  S   UNL     1      51.969 159.780  30.974  0.00  0.00    +0.046 S 
BRANCH  31  32
ATOM     32  C   UNL     1      51.142 161.273  31.306  0.00  0.00    +0.130 C 
ATOM     33  S   UNL     1      51.867 162.679  31.727  0.00  0.00    -0.026 S 
BRANCH  32  34
ATOM     34  N   UNL     1      49.702 161.366  31.204  0.00  0.00    -0.300 N 
ATOM     35  H   UNL     1      49.204 162.056  31.700  0.00  0.00    +0.150 HD
BRANCH  34  36
ATOM     36  C   UNL     1      49.018 160.425  30.360  0.00  0.00    +0.227 C 
ATOM     37  N   UNL     1      47.577 160.659  30.470  0.00  0.00    -0.267 N 
ATOM     38  C   UNL     1      47.097 159.846  31.514  0.00  0.00    +0.308 C 
ATOM     39  O   UNL     1      46.010 159.935  32.187  0.00  0.00    -0.252 OA
ATOM     40  N   UNL     1      48.071 158.807  31.754  0.00  0.00    -0.237 N 
ATOM     41  C   UNL     1      49.146 159.017  30.827  0.00  0.00    +0.267 C 
ATOM     42  O   UNL     1      49.994 158.183  30.497  0.00  0.00    -0.271 OA
ATOM     43  H   UNL     1      47.042 161.272  29.916  0.00  0.00    +0.153 HD
ATOM     44  H   UNL     1      48.009 158.090  32.426  0.00  0.00    +0.159 HD
ENDBRANCH  34  36
ENDBRANCH  32  34
ENDBRANCH  31  32
ENDBRANCH  25  31
ENDBRANCH  24  25
ENDBRANCH   1  24
TORSDOF 11
