REMARK  Name = =
REMARK  1 active torsions:
REMARK  status: ('A' for Active; 'I' for Inactive)
REMARK    1  A    between atoms: C_1  and  N_10
REMARK                            x       y       z     vdW  Elec       q    Type
REMARK                         _______ _______ _______ _____ _____    ______ ____
ROOT
ATOM      1  C   UNL     1      -3.683  -3.599  31.973  0.00  0.00    +0.051 C 
ATOM      2  C   UNL     1      -3.930  -4.373  33.240  0.00  0.00    +0.016 C 
ATOM      3  C   UNL     1      -4.444  -5.724  32.862  0.00  0.00    +0.006 C 
ATOM      4  C   UNL     1      -3.799  -6.851  33.617  0.00  0.00    +0.022 C 
ATOM      5  C   UNL     1      -2.705  -7.377  32.726  0.00  0.00    -0.044 C 
ATOM      6  C   UNL     1      -2.058  -8.495  32.898  0.00  0.00    -0.009 C 
ATOM      7  C   UNL     1      -2.541  -6.365  31.647  0.00  0.00    +0.022 C 
ATOM      8  C   UNL     1      -3.995  -5.931  31.436  0.00  0.00    +0.006 C 
ATOM      9  C   UNL     1      -4.063  -4.540  30.853  0.00  0.00    +0.016 C 
ENDROOT
BRANCH   1  10
ATOM     10  N   UNL     1      -4.441  -2.388  31.985  0.00  0.00    -0.322 NA
ATOM     11  H   UNL     1      -4.134  -1.803  32.762  0.00  0.00    +0.119 HD
ATOM     12  H   UNL     1      -5.431  -2.608  32.095  0.00  0.00    +0.119 HD
ENDBRANCH   1  10
TORSDOF 1
