REMARK  Name = =
REMARK  2 active torsions:
REMARK  status: ('A' for Active; 'I' for Inactive)
REMARK    1  A    between atoms: C_1  and  N_13
REMARK    2  A    between atoms: C_6  and  C_10
REMARK                            x       y       z     vdW  Elec       q    Type
REMARK                         _______ _______ _______ _____ _____    ______ ____
ROOT
ATOM      1  C   UNL     1      -4.333  -2.963  31.921  0.00  0.00    +0.051 C 
ATOM      2  C   UNL     1      -4.320  -4.394  32.400  0.00  0.00    +0.016 C 
ATOM      3  C   UNL     1      -2.913  -4.819  32.066  0.00  0.00    +0.006 C 
ATOM      4  C   UNL     1      -2.791  -6.285  31.760  0.00  0.00    +0.022 C 
ATOM      5  C   UNL     1      -2.465  -6.355  30.322  0.00  0.00    -0.040 C 
ATOM      6  C   UNL     1      -1.826  -7.292  29.616  0.00  0.00    +0.049 C 
ATOM      7  C   UNL     1      -3.041  -5.078  29.756  0.00  0.00    +0.022 C 
ATOM      8  C   UNL     1      -2.572  -4.087  30.773  0.00  0.00    +0.006 C 
ATOM      9  C   UNL     1      -3.444  -2.881  30.717  0.00  0.00    +0.016 C 
ENDROOT
BRANCH   6  10
ATOM     10  C   UNL     1      -1.305  -8.501  30.210  0.00  0.00    +0.242 C 
ATOM     11  O   UNL     1      -0.674  -9.311  29.452  0.00  0.00    -0.270 OA
ATOM     12  N   UNL     1      -1.462  -8.831  31.592  0.00  0.00    -0.325 N 
ATOM     13  H   UNL     1      -1.946  -8.219  32.192  0.00  0.00    +0.145 HD
ATOM     14  H   UNL     1      -1.086  -9.670  31.943  0.00  0.00    +0.145 HD
ENDBRANCH   6  10
BRANCH   1  15
ATOM     15  N   UNL     1      -5.660  -2.524  31.543  0.00  0.00    -0.322 NA
ATOM     16  H   UNL     1      -6.278  -2.574  32.353  0.00  0.00    +0.119 HD
ATOM     17  H   UNL     1      -6.020  -3.127  30.803  0.00  0.00    +0.119 HD
ENDBRANCH   1  15
TORSDOF 2
