REMARK  Name = =
REMARK  5 active torsions:
REMARK  status: ('A' for Active; 'I' for Inactive)
REMARK    1  A    between atoms: C_1  and  N_17
REMARK    2  A    between atoms: C_6  and  C_10
REMARK    3  A    between atoms: N_12  and  C_13
REMARK    4  A    between atoms: C_14  and  S_15
REMARK    5  A    between atoms: S_15  and  S_16
REMARK                            x       y       z     vdW  Elec       q    Type
REMARK                         _______ _______ _______ _____ _____    ______ ____
ROOT
ATOM      1  C   UNL     1      -3.327  -6.567  33.734  0.00  0.00    +0.051 C 
ATOM      2  C   UNL     1      -2.815  -5.266  33.148  0.00  0.00    +0.016 C 
ATOM      3  C   UNL     1      -3.359  -5.392  31.720  0.00  0.00    +0.006 C 
ATOM      4  C   UNL     1      -2.674  -4.468  30.785  0.00  0.00    +0.022 C 
ATOM      5  C   UNL     1      -1.612  -5.285  30.157  0.00  0.00    -0.040 C 
ATOM      6  C   UNL     1      -0.789  -4.809  29.223  0.00  0.00    +0.050 C 
ATOM      7  C   UNL     1      -1.605  -6.666  30.707  0.00  0.00    +0.022 C 
ATOM      8  C   UNL     1      -2.958  -6.797  31.377  0.00  0.00    +0.006 C 
ATOM      9  C   UNL     1      -2.875  -7.563  32.680  0.00  0.00    +0.016 C 
ENDROOT
BRANCH   6  10
ATOM     10  C   UNL     1      -0.880  -3.433  28.750  0.00  0.00    +0.249 C 
ATOM     11  O   UNL     1      -1.957  -2.793  28.868  0.00  0.00    -0.270 OA
ATOM     12  N   UNL     1       0.210  -2.762  28.150  0.00  0.00    -0.279 N 
ATOM     13  H   UNL     1       1.056  -3.256  28.055  0.00  0.00    +0.155 HD
BRANCH  12  14
ATOM     14  C   UNL     1       0.168  -1.434  27.679  0.00  0.00    +0.072 C 
ATOM     15  C   UNL     1       0.753  -1.066  26.547  0.00  0.00    +0.057 C 
BRANCH  15  16
ATOM     16  S   UNL     1       1.646  -2.219  25.520  0.00  0.00    -0.057 S 
BRANCH  16  17
ATOM     17  S   UNL     1       3.669  -2.410  26.185  0.00  0.00    -0.105 S 
ATOM     18  H   UNL     1       4.327  -3.293  25.387  0.00  0.00    +0.114 HD
ENDBRANCH  16  17
ENDBRANCH  15  16
ENDBRANCH  12  14
ENDBRANCH   6  10
BRANCH   1  19
ATOM     19  N   UNL     1      -4.772  -6.496  33.751  0.00  0.00    -0.322 NA
ATOM     20  H   UNL     1      -5.071  -5.826  34.460  0.00  0.00    +0.119 HD
ATOM     21  H   UNL     1      -5.155  -7.416  33.969  0.00  0.00    +0.119 HD
ENDBRANCH   1  19
TORSDOF 5
