REMARK  Name = =
REMARK  10 active torsions:
REMARK  status: ('A' for Active; 'I' for Inactive)
REMARK    1  A    between atoms: C_1  and  N_23
REMARK    2  A    between atoms: C_2  and  S_9
REMARK    3  A    between atoms: S_9  and  P_10
REMARK    4  A    between atoms: P_10  and  O_11
REMARK    5  A    between atoms: P_10  and  O_12
REMARK    6  A    between atoms: P_10  and  O_13
REMARK    7  A    between atoms: O_13  and  O_14
REMARK    8  A    between atoms: O_14  and  C_15
REMARK    9  A    between atoms: C_15  and  C_17
REMARK   10  A    between atoms: N_23  and  C_24
REMARK                            x       y       z     vdW  Elec       q    Type
REMARK                         _______ _______ _______ _____ _____    ______ ____
ROOT
ATOM      1  C   UNL     1     -20.246 -41.882  25.398  0.00  0.00    +0.095 C 
ATOM      2  C   UNL     1     -20.680 -40.734  24.902  0.00  0.00    +0.077 C 
ATOM      3  C   UNL     1     -21.917 -40.193  25.479  0.00  0.00    +0.202 C 
ATOM      4  O   UNL     1     -22.347 -39.086  25.009  0.00  0.00    -0.286 OA
ATOM      5  C   UNL     1     -22.632 -40.886  26.545  0.00  0.00    +0.046 C 
ATOM      6  C   UNL     1     -22.194 -42.032  27.036  0.00  0.00    +0.047 C 
ATOM      7  C   UNL     1     -20.961 -42.576  26.466  0.00  0.00    +0.209 C 
ATOM      8  O   UNL     1     -20.534 -43.681  26.936  0.00  0.00    -0.285 OA
ENDROOT
BRANCH   2   9
ATOM      9  S   UNL     1     -19.819 -39.882  23.605  0.00  0.00    -0.090 S 
ATOM     10  H   UNL     1     -18.740 -40.611  23.212  0.00  0.00    +0.107 HD
BRANCH   9  11
ATOM     11  P   UNL     1     -21.020 -39.663  22.138  0.00  0.00    +0.325 P 
BRANCH  11  12
ATOM     12  O   UNL     1     -22.129 -40.941  22.211  0.00  0.00    -0.326 OA
ATOM     13  H   UNL     1     -22.567 -40.940  23.076  0.00  0.00    +0.220 HD
ENDBRANCH  11  12
BRANCH  11  14
ATOM     14  O   UNL     1     -21.849 -38.202  22.359  0.00  0.00    -0.326 OA
ATOM     15  H   UNL     1     -22.320 -38.223  23.207  0.00  0.00    +0.220 HD
ENDBRANCH  11  14
BRANCH  11  16
ATOM     16  O   UNL     1     -20.219 -39.596  20.669  0.00  0.00    -0.101 OA
BRANCH  16  17
ATOM     17  O   UNL     1     -20.824 -38.645  19.913  0.00  0.00    -0.284 OA
BRANCH  17  18
ATOM     18  C   UNL     1     -21.845 -39.006  19.062  0.00  0.00    +0.375 C 
ATOM     19  O   UNL     1     -22.135 -40.227  18.975  0.00  0.00    -0.242 OA
BRANCH  18  20
ATOM     20  C   UNL     1     -22.580 -38.037  18.279  0.00  0.00    +0.079 C 
ATOM     21  C   UNL     1     -22.266 -36.707  18.369  0.00  0.00    +0.007 C 
ATOM     22  C   UNL     1     -22.954 -35.774  17.633  0.00  0.00    +0.000 C 
ATOM     23  C   UNL     1     -23.984 -36.148  16.777  0.00  0.00    +0.000 C 
ATOM     24  C   UNL     1     -24.282 -37.486  16.703  0.00  0.00    +0.000 C 
ATOM     25  C   UNL     1     -23.598 -38.433  17.438  0.00  0.00    +0.007 C 
ENDBRANCH  18  20
ENDBRANCH  17  18
ENDBRANCH  16  17
ENDBRANCH  11  16
ENDBRANCH   9  11
ENDBRANCH   2   9
BRANCH   1  26
ATOM     26  N   UNL     1     -19.046 -42.414  24.845  0.00  0.00    -0.295 N 
ATOM     27  H   UNL     1     -19.118 -43.137  24.181  0.00  0.00    +0.150 HD
BRANCH  26  28
ATOM     28  C   UNL     1     -17.741 -41.950  25.207  0.00  0.00    +0.286 C 
ATOM     29  O   UNL     1     -17.160 -42.719  26.250  0.00  0.00    -0.454 OA
ATOM     30  C   UNL     1     -15.795 -42.651  26.468  0.00  0.00    +0.174 C 
ATOM     31  C   UNL     1     -14.985 -42.016  25.542  0.00  0.00    +0.173 C 
ATOM     32  C   UNL     1     -13.630 -41.955  25.770  0.00  0.00    +0.040 C 
ATOM     33  C   UNL     1     -13.012 -42.492  26.878  0.00  0.00    +0.003 C 
ATOM     34  C   UNL     1     -13.837 -43.129  27.804  0.00  0.00    +0.003 C 
ATOM     35  C   UNL     1     -15.193 -43.195  27.585  0.00  0.00    +0.040 C 
ATOM     36  O   UNL     1     -15.576 -41.460  24.408  0.00  0.00    -0.467 OA
ATOM     37  C   UNL     1     -16.829 -42.022  24.025  0.00  0.00    +0.270 C 
ENDBRANCH  26  28
ENDBRANCH   1  26
TORSDOF 10
