REMARK  Name = =
REMARK  16 active torsions:
REMARK  status: ('A' for Active; 'I' for Inactive)
REMARK    1  A    between atoms: P_1  and  O_2
REMARK    2  A    between atoms: P_1  and  O_35
REMARK    3  A    between atoms: O_2  and  O_19
REMARK    4  A    between atoms: C_4  and  N_11
REMARK    5  A    between atoms: N_11  and  C_12
REMARK    6  A    between atoms: C_12  and  N_13
REMARK    7  A    between atoms: C_12  and  N_16
REMARK    8  A    between atoms: N_13  and  C_14
REMARK    9  A    between atoms: N_16  and  C_17
REMARK   10  A    between atoms: O_22  and  O_33
REMARK   11  A    between atoms: O_22  and  O_34
REMARK   12  A    between atoms: N_23  and  C_26
REMARK   13  A    between atoms: C_29  and  O_32
REMARK   14  A    between atoms: O_35  and  N_36
REMARK   15  A    between atoms: N_36  and  N_37
REMARK   16  A    between atoms: C_38  and  O_40
REMARK                            x       y       z     vdW  Elec       q    Type
REMARK                         _______ _______ _______ _____ _____    ______ ____
ROOT
ATOM      1  N   UNL     1      -3.776  -2.663  29.375  0.00  0.00    -0.109 NA
ATOM      2  H   UNL     1      -4.545  -2.340  28.787  0.00  0.00    +0.178 HD
ENDROOT
BRANCH   1   3
ATOM      3  N   UNL     1      -4.291  -3.384  30.443  0.00  0.00    -0.193 N 
ATOM      4  C   UNL     1      -5.115  -2.861  31.459  0.00  0.00    +0.413 C 
ATOM      5  O   UNL     1      -5.419  -1.646  31.414  0.00  0.00    -0.225 OA
ATOM      6  H   UNL     1      -4.062  -4.340  30.495  0.00  0.00    +0.175 HD
BRANCH   4   7
ATOM      7  O   UNL     1      -5.585  -3.683  32.501  0.00  0.00    -0.465 OA
ATOM      8  H   UNL     1      -5.351  -4.590  32.524  0.00  0.00    +0.297 HD
ENDBRANCH   4   7
ENDBRANCH   1   3
BRANCH   1   9
ATOM      9  O   UNL     1      -2.943  -3.433  28.635  0.00  0.00    -0.219 OA
BRANCH   9  10
ATOM     10  P   UNL     1      -1.455  -3.664  29.321  0.00  0.00    +0.314 P 
BRANCH  10  11
ATOM     11  O   UNL     1      -1.617  -2.539  30.359  0.00  0.00    -0.175 OA
BRANCH  11  12
ATOM     12  O   UNL     1      -1.045  -3.755  30.961  0.00  0.00    -0.244 OA
ATOM     13  H   UNL     1      -0.882  -3.603  31.905  0.00  0.00    +0.253 HD
ENDBRANCH  11  12
ENDBRANCH  10  11
ENDBRANCH   9  10
ENDBRANCH   1   9
TORSDOF 6
REMARK  Name = =
REMARK  16 active torsions:
REMARK  status: ('A' for Active; 'I' for Inactive)
REMARK    1  A    between atoms: P_1  and  O_2
REMARK    2  A    between atoms: P_1  and  O_35
REMARK    3  A    between atoms: O_2  and  O_19
REMARK    4  A    between atoms: C_4  and  N_11
REMARK    5  A    between atoms: N_11  and  C_12
REMARK    6  A    between atoms: C_12  and  N_13
REMARK    7  A    between atoms: C_12  and  N_16
REMARK    8  A    between atoms: N_13  and  C_14
REMARK    9  A    between atoms: N_16  and  C_17
REMARK   10  A    between atoms: O_22  and  O_33
REMARK   11  A    between atoms: O_22  and  O_34
REMARK   12  A    between atoms: N_23  and  C_26
REMARK   13  A    between atoms: C_29  and  O_32
REMARK   14  A    between atoms: O_35  and  N_36
REMARK   15  A    between atoms: N_36  and  N_37
REMARK   16  A    between atoms: C_38  and  O_40
REMARK                            x       y       z     vdW  Elec       q    Type
REMARK                         _______ _______ _______ _____ _____    ______ ____
ROOT
ATOM      1  N   UNL     1      -0.223  -3.097  28.262  0.00  0.00    -0.148 NA
ATOM      2  C   UNL     1       1.056  -2.962  28.765  0.00  0.00    +0.127 C 
ATOM      3  C   UNL     1       2.097  -2.452  28.026  0.00  0.00    +0.118 C 
ATOM      4  C   UNL     1       1.793  -2.089  26.736  0.00  0.00    +0.103 C 
ATOM      5  N   UNL     1       0.548  -2.232  26.265  0.00  0.00    -0.150 NA
ATOM      6  C   UNL     1      -0.473  -2.736  27.020  0.00  0.00    +0.350 C 
ATOM      7  O   UNL     1      -1.618  -2.843  26.522  0.00  0.00    -0.248 OA
ATOM      8  N   UNL     1       2.811  -1.573  25.917  0.00  0.00    -0.347 N 
ATOM      9  H   UNL     1       3.724  -1.471  26.271  0.00  0.00    +0.143 HD
ATOM     10  H   UNL     1       2.612  -1.313  24.989  0.00  0.00    +0.143 HD
ENDROOT
BRANCH   2  11
ATOM     11  N   UNL     1       1.254  -3.574  29.966  0.00  0.00    -0.196 NA
BRANCH  11  12
ATOM     12  C   UNL     1       1.921  -4.628  30.087  0.00  0.00    +0.215 C 
BRANCH  12  13
ATOM     13  N   UNL     1       2.474  -5.109  28.927  0.00  0.00    -0.240 NA
ATOM     14  H   UNL     1       3.377  -4.635  28.944  0.00  0.00    +0.128 HD
BRANCH  13  15
ATOM     15  C   UNL     1       2.809  -6.255  28.259  0.00  0.00    +0.258 C 
ATOM     16  O   UNL     1       2.433  -7.263  28.914  0.00  0.00    -0.201 OA
ENDBRANCH  13  15
ENDBRANCH  12  13
BRANCH  12  17
ATOM     17  N   UNL     1       2.300  -4.588  31.505  0.00  0.00    -0.240 NA
ATOM     18  H   UNL     1       1.667  -3.934  31.966  0.00  0.00    +0.128 HD
BRANCH  17  19
ATOM     19  C   UNL     1       2.274  -5.748  32.226  0.00  0.00    +0.258 C 
ATOM     20  O   UNL     1       1.749  -6.662  31.452  0.00  0.00    -0.201 OA
ENDBRANCH  17  19
ENDBRANCH  12  17
ENDBRANCH  11  12
ENDBRANCH   2  11
TORSDOF 6
REMARK  Name = =
REMARK  16 active torsions:
REMARK  status: ('A' for Active; 'I' for Inactive)
REMARK    1  A    between atoms: P_1  and  O_2
REMARK    2  A    between atoms: P_1  and  O_35
REMARK    3  A    between atoms: O_2  and  O_19
REMARK    4  A    between atoms: C_4  and  N_11
REMARK    5  A    between atoms: N_11  and  C_12
REMARK    6  A    between atoms: C_12  and  N_13
REMARK    7  A    between atoms: C_12  and  N_16
REMARK    8  A    between atoms: N_13  and  C_14
REMARK    9  A    between atoms: N_16  and  C_17
REMARK   10  A    between atoms: O_22  and  O_33
REMARK   11  A    between atoms: O_22  and  O_34
REMARK   12  A    between atoms: N_23  and  C_26
REMARK   13  A    between atoms: C_29  and  O_32
REMARK   14  A    between atoms: O_35  and  N_36
REMARK   15  A    between atoms: N_36  and  N_37
REMARK   16  A    between atoms: C_38  and  O_40
REMARK                            x       y       z     vdW  Elec       q    Type
REMARK                         _______ _______ _______ _____ _____    ______ ____
ROOT
ATOM      1  O   HOH     1      -2.096  -5.126  28.845  0.00  0.00    -0.410 OA
ATOM      2  H   HOH     0      -1.126  -5.126  28.845  0.00  0.00    +0.205 HD
ATOM      3  H   HOH     0      -2.419  -5.773  29.491  0.00  0.00    +0.205 HD
ENDROOT
TORSDOF 0
REMARK  Name = =
REMARK  16 active torsions:
REMARK  status: ('A' for Active; 'I' for Inactive)
REMARK    1  A    between atoms: P_1  and  O_2
REMARK    2  A    between atoms: P_1  and  O_35
REMARK    3  A    between atoms: O_2  and  O_19
REMARK    4  A    between atoms: C_4  and  N_11
REMARK    5  A    between atoms: N_11  and  C_12
REMARK    6  A    between atoms: C_12  and  N_13
REMARK    7  A    between atoms: C_12  and  N_16
REMARK    8  A    between atoms: N_13  and  C_14
REMARK    9  A    between atoms: N_16  and  C_17
REMARK   10  A    between atoms: O_22  and  O_33
REMARK   11  A    between atoms: O_22  and  O_34
REMARK   12  A    between atoms: N_23  and  C_26
REMARK   13  A    between atoms: C_29  and  O_32
REMARK   14  A    between atoms: O_35  and  N_36
REMARK   15  A    between atoms: N_36  and  N_37
REMARK   16  A    between atoms: C_38  and  O_40
REMARK                            x       y       z     vdW  Elec       q    Type
REMARK                         _______ _______ _______ _____ _____    ______ ____
ROOT
ATOM      1  C   UNL     1      -0.954  -8.408  28.745  0.00  0.00    +0.058 C 
ATOM      2  C   UNL     1      -0.855  -7.631  27.611  0.00  0.00    +0.018 C 
ATOM      3  C   UNL     1      -0.154  -8.087  26.492  0.00  0.00    +0.038 C 
ATOM      4  C   UNL     1       0.452  -9.316  26.487  0.00  0.00    +0.134 C 
ATOM      5  C   UNL     1       0.355 -10.097  27.620  0.00  0.00    +0.038 C 
ATOM      6  C   UNL     1      -0.347  -9.631  28.731  0.00  0.00    +0.018 C 
ENDROOT
BRANCH   1   8
ATOM      7  P   UNL     1      -1.894  -6.200  30.155  0.00  0.00    +0.092 P 
ATOM      8  N   UNL     1      -1.689  -7.866  29.843  0.00  0.00    -0.229 N 
ATOM      9  C   UNL     1      -2.260  -8.844  30.702  0.00  0.00    +0.311 C 
ATOM     10  O   UNL     1      -2.914  -8.398  31.709  0.00  0.00    -0.264 OA
ENDBRANCH   1   8
BRANCH   4  11
ATOM     11  O   UNL     1       1.157  -9.758  25.343  0.00  0.00    -0.506 OA
ATOM     12  H   UNL     1       1.210  -9.210  24.585  0.00  0.00    +0.292 HD
ENDBRANCH   4  11
TORSDOF 2
REMARK  Name = =
REMARK  16 active torsions:
REMARK  status: ('A' for Active; 'I' for Inactive)
REMARK    1  A    between atoms: P_1  and  O_2
REMARK    2  A    between atoms: P_1  and  O_35
REMARK    3  A    between atoms: O_2  and  O_19
REMARK    4  A    between atoms: C_4  and  N_11
REMARK    5  A    between atoms: N_11  and  C_12
REMARK    6  A    between atoms: C_12  and  N_13
REMARK    7  A    between atoms: C_12  and  N_16
REMARK    8  A    between atoms: N_13  and  C_14
REMARK    9  A    between atoms: N_16  and  C_17
REMARK   10  A    between atoms: O_22  and  O_33
REMARK   11  A    between atoms: O_22  and  O_34
REMARK   12  A    between atoms: N_23  and  C_26
REMARK   13  A    between atoms: C_29  and  O_32
REMARK   14  A    between atoms: O_35  and  N_36
REMARK   15  A    between atoms: N_36  and  N_37
REMARK   16  A    between atoms: C_38  and  O_40
REMARK                            x       y       z     vdW  Elec       q    Type
REMARK                         _______ _______ _______ _____ _____    ______ ____
ROOT
ATOM      1  O   UNL     1      -2.547  -5.950  31.512  0.00  0.00    -0.072 OA
ENDROOT
BRANCH   1   2
ATOM      2  O   UNL     1      -3.528  -6.052  30.404  0.00  0.00    -0.220 OA
ATOM      3  H   UNL     1      -4.398  -5.754  30.714  0.00  0.00    +0.256 HD
ENDBRANCH   1   2
BRANCH   1   4
ATOM      4  O   UNL     1      -1.117  -6.245  31.653  0.00  0.00    -0.220 OA
ATOM      5  H   UNL     1      -0.832  -6.040  32.557  0.00  0.00    +0.256 HD
ENDBRANCH   1   4
TORSDOF 2
