MODEL 1
REMARK VINA RESULT:    -6.035      0.000      0.000
REMARK INTER + INTRA:          -9.566
REMARK INTER:                  -8.505
REMARK INTRA:                  -1.061
REMARK UNBOUND:                -1.061
REMARK  Name = =
REMARK  7 active torsions:
REMARK  status: ('A' for Active; 'I' for Inactive)
REMARK    1  A    between atoms: C_1  and  C_10
REMARK    2  A    between atoms: C_1  and  N_24
REMARK    3  A    between atoms: C_9  and  O_15
REMARK    4  A    between atoms: O_15  and  N_17
REMARK    5  A    between atoms: C_16  and  N_21
REMARK    6  A    between atoms: N_24  and  C_30
REMARK    7  A    between atoms: C_33  and  C_36
REMARK                            x       y       z     vdW  Elec       q    Type
REMARK                         _______ _______ _______ _____ _____    ______ ____
ROOT
ATOM      1  C   UNL     1      61.165 164.072  40.167  0.00  0.00    +0.184 C 
ATOM      2  C   UNL     1      62.256 164.108  41.128  0.00  0.00    +0.153 C 
ATOM      3  S   UNL     1      62.034 164.437  42.888  0.00  0.00    -0.117 S 
ATOM      4  C   UNL     1      63.392 165.692  43.034  0.00  0.00    +0.081 C 
ATOM      5  C   UNL     1      63.831 165.795  41.575  0.00  0.00    +0.106 C 
ATOM      6  N   UNL     1      62.624 165.523  40.791  0.00  0.00    -0.267 N 
ATOM      7  C   UNL     1      61.494 165.533  39.954  0.00  0.00    +0.249 C 
ATOM      8  O   UNL     1      60.894 166.387  39.243  0.00  0.00    -0.273 OA
ENDROOT
BRANCH   1  10
ATOM      9  C   UNL     1      59.334 162.652  41.073  0.00  0.00    +0.175 C 
ATOM     10  C   UNL     1      59.778 163.863  40.622  0.00  0.00    +0.061 C 
ATOM     11  C   UNL     1      58.962 165.002  40.661  0.00  0.00    +0.100 C 
ATOM     12  N   UNL     1      57.718 164.878  41.158  0.00  0.00    -0.242 NA
ATOM     13  C   UNL     1      57.233 163.709  41.614  0.00  0.00    +0.102 C 
ATOM     14  C   UNL     1      58.028 162.583  41.579  0.00  0.00    +0.061 C 
BRANCH   9  15
ATOM     15  O   UNL     1      60.120 161.515  41.037  0.00  0.00    -0.368 OA
BRANCH  15  17
ATOM     16  C   UNL     1      59.018 159.367  40.838  0.00  0.00    +0.260 C 
ATOM     17  N   UNL     1      59.623 160.350  41.554  0.00  0.00    -0.129 N 
ATOM     18  C   UNL     1      59.616 159.926  42.828  0.00  0.00    +0.218 C 
ATOM     19  N   UNL     1      59.037 158.731  42.935  0.00  0.00    -0.218 NA
ATOM     20  C   UNL     1      58.648 158.346  41.702  0.00  0.00    +0.146 C 
BRANCH  16  21
ATOM     21  N   UNL     1      58.800 159.376  39.443  0.00  0.00    +0.079 N 
ATOM     22  O   UNL     1      57.678 159.920  38.884  0.00  0.00    -0.125 OA
ATOM     23  O   UNL     1      59.653 158.871  38.696  0.00  0.00    -0.125 OA
ENDBRANCH  16  21
ENDBRANCH  15  17
ENDBRANCH   9  15
ENDBRANCH   1  10
BRANCH   1  24
ATOM     24  N   UNL     1      61.576 163.308  38.985  0.00  0.00    -0.232 N 
ATOM     25  C   UNL     1      62.809 162.628  39.062  0.00  0.00    +0.297 C 
ATOM     26  N   UNL     1      63.195 161.713  39.854  0.00  0.00    -0.193 NA
ATOM     27  C   UNL     1      64.531 161.271  39.614  0.00  0.00    +0.144 C 
ATOM     28  C   UNL     1      64.935 162.028  38.380  0.00  0.00    +0.203 C 
ATOM     29  O   UNL     1      63.868 162.904  38.184  0.00  0.00    -0.420 OA
BRANCH  24  30
ATOM     30  C   UNL     1      60.826 163.275  37.820  0.00  0.00    +0.056 C 
ATOM     31  C   UNL     1      60.720 164.192  36.824  0.00  0.00    +0.015 C 
ATOM     32  C   UNL     1      59.943 164.026  35.693  0.00  0.00    +0.006 C 
ATOM     33  C   UNL     1      59.210 162.874  35.522  0.00  0.00    +0.053 C 
ATOM     34  C   UNL     1      59.282 161.910  36.506  0.00  0.00    +0.006 C 
ATOM     35  C   UNL     1      60.062 162.100  37.618  0.00  0.00    +0.015 C 
BRANCH  33  36
ATOM     36  C   UNL     1      58.376 162.638  34.358  0.00  0.00    +0.243 C 
ATOM     37  O   UNL     1      58.441 161.556  33.727  0.00  0.00    -0.270 OA
ATOM     38  N   UNL     1      57.456 163.616  33.891  0.00  0.00    -0.325 N 
ATOM     39  H   UNL     1      57.374 164.478  34.358  0.00  0.00    +0.145 HD
ATOM     40  H   UNL     1      56.901 163.430  33.099  0.00  0.00    +0.145 HD
ENDBRANCH  33  36
ENDBRANCH  24  30
ENDBRANCH   1  24
TORSDOF 7
ENDMDL
