MODEL 1
REMARK VINA RESULT:    -6.928      0.000      0.000
REMARK INTER + INTRA:         -10.570
REMARK INTER:                  -9.155
REMARK INTRA:                  -1.414
REMARK UNBOUND:                -1.414
REMARK  Name = =
REMARK  6 active torsions:
REMARK  status: ('A' for Active; 'I' for Inactive)
REMARK    1  A    between atoms: C_1  and  C_4
REMARK    2  A    between atoms: N_3  and  S_18
REMARK    3  A    between atoms: N_3  and  C_33
REMARK    4  A    between atoms: S_18  and  C_21
REMARK    5  A    between atoms: C_21  and  N_27
REMARK    6  A    between atoms: C_33  and  S_35
REMARK                            x       y       z     vdW  Elec       q    Type
REMARK                         _______ _______ _______ _____ _____    ______ ____
ROOT
ATOM      1  C   UNL     1      57.905 163.194  41.608  0.00  0.00    +0.148 C 
ATOM      2  N   UNL     1      58.366 163.064  42.873  0.00  0.00    -0.284 NA
ATOM      3  N   UNL     1      58.882 163.158  40.620  0.00  0.00    -0.143 N 
ATOM      4  H   UNL     1      57.738 163.080  43.631  0.00  0.00    +0.188 HD
ENDROOT
BRANCH   1   5
ATOM      5  C   UNL     1      56.486 163.309  41.508  0.00  0.00    +0.033 C 
ATOM      6  C   UNL     1      55.554 162.340  41.742  0.00  0.00    +0.003 C 
ATOM      7  C   UNL     1      54.173 162.579  41.710  0.00  0.00    +0.000 C 
ATOM      8  C   UNL     1      53.240 161.585  41.921  0.00  0.00    +0.000 C 
ATOM      9  C   UNL     1      53.696 160.302  42.172  0.00  0.00    +0.000 C 
ATOM     10  C   UNL     1      52.855 159.236  42.396  0.00  0.00    +0.000 C 
ATOM     11  C   UNL     1      51.486 159.497  42.362  0.00  0.00    +0.000 C 
ATOM     12  C   UNL     1      51.041 160.763  42.114  0.00  0.00    +0.000 C 
ATOM     13  C   UNL     1      51.901 161.848  41.886  0.00  0.00    +0.000 C 
ATOM     14  C   UNL     1      55.046 160.029  42.209  0.00  0.00    +0.000 C 
ATOM     15  C   UNL     1      55.953 161.058  41.992  0.00  0.00    +0.000 C 
ATOM     16  C   UNL     1      53.726 163.841  41.431  0.00  0.00    +0.000 C 
ATOM     17  C   UNL     1      54.637 164.862  41.183  0.00  0.00    +0.000 C 
ATOM     18  C   UNL     1      55.976 164.606  41.220  0.00  0.00    +0.003 C 
ENDBRANCH   1   5
BRANCH   3  19
ATOM     19  S   UNL     1      59.279 161.806  39.683  0.00  0.00    +0.076 S 
ATOM     20  O   UNL     1      60.206 162.213  38.566  0.00  0.00    -0.152 OA
ATOM     21  O   UNL     1      58.041 161.180  39.116  0.00  0.00    -0.152 OA
BRANCH  19  22
ATOM     22  C   UNL     1      60.081 160.499  40.606  0.00  0.00    +0.203 C 
ATOM     23  C   UNL     1      59.903 159.214  39.875  0.00  0.00    +0.015 C 
ATOM     24  C   UNL     1      59.386 158.194  40.826  0.00  0.00    +0.036 C 
ATOM     25  C   UNL     1      59.042 158.935  42.040  0.00  0.00    +0.176 C 
ATOM     26  O   UNL     1      58.467 158.438  42.997  0.00  0.00    -0.291 OA
ATOM     27  C   UNL     1      59.473 160.331  41.956  0.00  0.00    +0.113 C 
BRANCH  22  28
ATOM     28  N   UNL     1      61.473 160.788  40.771  0.00  0.00    -0.248 NA
ATOM     29  C   UNL     1      62.377 159.892  40.069  0.00  0.00    +0.079 C 
ATOM     30  C   UNL     1      63.667 160.630  39.868  0.00  0.00    +0.043 C 
ATOM     31  C   UNL     1      63.960 161.553  41.017  0.00  0.00    -0.028 C 
ATOM     32  C   UNL     1      63.185 161.678  42.064  0.00  0.00    -0.013 C 
ATOM     33  C   UNL     1      61.940 160.874  42.146  0.00  0.00    +0.100 C 
ENDBRANCH  22  28
ENDBRANCH  19  22
ENDBRANCH   3  19
BRANCH   3  34
ATOM     34  C   UNL     1      59.659 164.372  40.462  0.00  0.00    +0.132 C 
ATOM     35  S   UNL     1      59.264 165.517  39.386  0.00  0.00    -0.026 S 
BRANCH  34  36
ATOM     36  S   UNL     1      61.089 164.590  41.486  0.00  0.00    -0.118 S 
ATOM     37  H   UNL     1      62.019 165.323  40.816  0.00  0.00    +0.109 HD
ENDBRANCH  34  36
ENDBRANCH   3  34
TORSDOF 6
ENDMDL
