MODEL 1
REMARK VINA RESULT:    -6.390      0.000      0.000
REMARK INTER + INTRA:          -9.531
REMARK INTER:                  -8.632
REMARK INTRA:                  -0.899
REMARK UNBOUND:                -0.899
REMARK  Name = =
REMARK  6 active torsions:
REMARK  status: ('A' for Active; 'I' for Inactive)
REMARK    1  A    between atoms: C_1  and  C_6
REMARK    2  A    between atoms: C_1  and  P_13
REMARK    3  A    between atoms: S_12  and  P_13
REMARK    4  A    between atoms: S_12  and  O_14
REMARK    5  A    between atoms: O_14  and  C_15
REMARK    6  A    between atoms: C_15  and  C_18
REMARK                            x       y       z     vdW  Elec       q    Type
REMARK                         _______ _______ _______ _____ _____    ______ ____
ROOT
ATOM      1  C   UNL     1      52.762 154.540  26.752  0.00  0.00    +0.135 C 
ATOM      2  S   UNL     1      53.548 153.234  27.776  0.00  0.00    -0.111 S 
ATOM      3  C   UNL     1      52.106 152.088  27.721  0.00  0.00    +0.129 C 
ATOM      4  N   UNL     1      51.500 152.506  26.537  0.00  0.00    -0.287 NA
ATOM      5  C   UNL     1      51.524 153.855  26.297  0.00  0.00    +0.092 C 
ATOM      6  H   UNL     1      50.524 152.210  26.564  0.00  0.00    +0.124 HD
ENDROOT
BRANCH   1   7
ATOM      7  C   UNL     1      52.428 155.629  27.716  0.00  0.00    +0.154 C 
ATOM      8  N   UNL     1      51.450 155.437  28.613  0.00  0.00    -0.228 NA
ATOM      9  C   UNL     1      51.075 156.346  29.526  0.00  0.00    +0.102 C 
ATOM     10  C   UNL     1      51.725 157.564  29.563  0.00  0.00    +0.041 C 
ATOM     11  C   UNL     1      52.726 157.762  28.647  0.00  0.00    +0.102 C 
ATOM     12  N   UNL     1      53.064 156.812  27.747  0.00  0.00    -0.228 NA
ENDBRANCH   1   7
BRANCH   1  13
ATOM     13  P   UNL     1      53.907 155.072  25.424  0.00  0.00    +0.046 P 
BRANCH  13  14
ATOM     14  S   UNL     1      54.479 153.917  24.010  0.00  0.00    -0.009 S 
ATOM     15  H   UNL     1      54.089 154.448  22.821  0.00  0.00    +0.139 HD
BRANCH  14  16
ATOM     16  O   UNL     1      53.805 152.346  24.168  0.00  0.00    -0.394 OA
BRANCH  16  17
ATOM     17  C   UNL     1      54.557 151.360  24.810  0.00  0.00    +0.420 C 
ATOM     18  O   UNL     1      55.690 151.666  25.233  0.00  0.00    -0.238 OA
BRANCH  17  20
ATOM     19  F   UNL     1      52.847 149.770  25.586  0.00  0.00    -0.152 F 
ATOM     20  C   UNL     1      54.030 150.012  24.982  0.00  0.00    +0.410 C 
ATOM     21  O   UNL     1      54.688 149.037  24.562  0.00  0.00    -0.247 OA
ENDBRANCH  17  20
ENDBRANCH  16  17
ENDBRANCH  14  16
ENDBRANCH  13  14
ENDBRANCH   1  13
TORSDOF 6
ENDMDL
