MODEL 1
REMARK VINA RESULT:    -6.901      0.000      0.000
REMARK INTER + INTRA:          -8.313
REMARK INTER:                  -8.515
REMARK INTRA:                   0.202
REMARK UNBOUND:                 0.202
REMARK  Name = =
REMARK  4 active torsions:
REMARK  status: ('A' for Active; 'I' for Inactive)
REMARK    1  A    between atoms: N_1  and  C_18
REMARK    2  A    between atoms: C_5  and  N_6
REMARK    3  A    between atoms: N_15  and  C_24
REMARK    4  A    between atoms: C_19  and  S_25
REMARK                            x       y       z     vdW  Elec       q    Type
REMARK                         _______ _______ _______ _____ _____    ______ ____
ROOT
ATOM      1  N   UNL     1      57.662 160.208  41.251  0.00  0.00    -0.243 NA
ATOM      2  C   UNL     1      57.733 159.520  42.466  0.00  0.00    +0.075 C 
ATOM      3  C   UNL     1      57.707 158.061  41.923  0.00  0.00    +0.021 C 
ATOM      4  C   UNL     1      58.809 158.200  40.862  0.00  0.00    +0.039 C 
ATOM      5  C   UNL     1      58.357 159.569  40.239  0.00  0.00    +0.146 C 
ENDROOT
BRANCH   5   6
ATOM      6  N   UNL     1      59.562 160.173  39.716  0.00  0.00    -0.201 N 
ATOM      7  C   UNL     1      59.631 160.496  38.326  0.00  0.00    +0.316 C 
ATOM      8  O   UNL     1      58.613 160.303  37.590  0.00  0.00    -0.252 OA
ATOM      9  N   UNL     1      60.821 161.032  37.753  0.00  0.00    -0.239 N 
ATOM     10  C   UNL     1      61.961 161.252  38.551  0.00  0.00    +0.239 C 
ATOM     11  O   UNL     1      62.907 161.971  38.133  0.00  0.00    -0.274 OA
ATOM     12  C   UNL     1      62.082 160.653  39.895  0.00  0.00    +0.171 C 
ATOM     13  C   UNL     1      60.723 160.422  40.487  0.00  0.00    +0.243 C 
ATOM     14  O   UNL     1      60.630 160.453  41.737  0.00  0.00    -0.274 OA
ATOM     15  H   UNL     1      60.847 161.251  36.794  0.00  0.00    +0.159 HD
ENDBRANCH   5   6
BRANCH   1  19
ATOM     16  N   UNL     1      55.655 161.286  42.013  0.00  0.00    -0.295 N 
ATOM     17  C   UNL     1      56.651 162.097  42.687  0.00  0.00    +0.095 C 
ATOM     18  C   UNL     1      57.057 162.572  41.334  0.00  0.00    +0.058 C 
ATOM     19  C   UNL     1      56.691 161.166  40.939  0.00  0.00    +0.137 C 
BRANCH  16  25
ATOM     20  C   UNL     1      53.254 161.558  42.037  0.00  0.00    +0.115 C 
ATOM     21  C   UNL     1      51.976 161.032  42.280  0.00  0.00    +0.019 C 
ATOM     22  C   UNL     1      51.779 159.743  42.686  0.00  0.00    +0.001 C 
ATOM     23  C   UNL     1      52.894 158.951  42.856  0.00  0.00    +0.001 C 
ATOM     24  C   UNL     1      54.143 159.475  42.616  0.00  0.00    +0.016 C 
ATOM     25  C   UNL     1      54.378 160.782  42.204  0.00  0.00    +0.066 C 
BRANCH  20  26
ATOM     26  S   UNL     1      53.436 163.198  41.519  0.00  0.00    -0.011 S 
ATOM     27  O   UNL     1      52.023 163.703  41.149  0.00  0.00    -0.172 OA
ATOM     28  O   UNL     1      53.807 164.113  42.680  0.00  0.00    -0.172 OA
ATOM     29  H   UNL     1      54.369 163.223  40.530  0.00  0.00    +0.215 HD
ENDBRANCH  20  26
ENDBRANCH  16  25
ENDBRANCH   1  19
TORSDOF 4
ENDMDL
