MODEL 1
REMARK VINA RESULT:   -11.144      0.000      0.000
REMARK INTER + INTRA:         -16.467
REMARK INTER:                 -16.031
REMARK INTRA:                  -0.436
REMARK UNBOUND:                -0.436
REMARK  Name = =
REMARK  8 active torsions:
REMARK  status: ('A' for Active; 'I' for Inactive)
REMARK    1  A    between atoms: N_1  and  C_8
REMARK    2  A    between atoms: N_1  and  O_29
REMARK    3  A    between atoms: C_5  and  C_27
REMARK    4  A    between atoms: C_9  and  C_13
REMARK    5  A    between atoms: C_16  and  C_19
REMARK    6  A    between atoms: C_20  and  N_26
REMARK    7  A    between atoms: O_29  and  C_30
REMARK    8  A    between atoms: C_30  and  C_32
REMARK                            x       y       z     vdW  Elec       q    Type
REMARK                         _______ _______ _______ _____ _____    ______ ____
ROOT
ATOM      1  N   UNL     1       1.451  -5.667  29.746  0.00  0.00    -0.087 N 
ATOM      2  C   UNL     1       1.779  -5.804  31.118  0.00  0.00    +0.343 C 
ATOM      3  O   UNL     1       1.670  -6.927  31.672  0.00  0.00    -0.249 OA
ATOM      4  N   UNL     1       2.238  -4.752  31.965  0.00  0.00    -0.234 N 
ATOM      5  C   UNL     1       2.520  -4.971  33.339  0.00  0.00    +0.253 C 
ATOM      6  O   UNL     1       2.326  -6.153  33.798  0.00  0.00    -0.270 OA
ATOM      7  H   UNL     1       2.363  -3.852  31.588  0.00  0.00    +0.159 HD
ENDROOT
BRANCH   1   9
ATOM      8  N   UNL     1       2.739  -3.751  28.935  0.00  0.00    -0.276 NA
ATOM      9  C   UNL     1       1.489  -4.456  29.013  0.00  0.00    +0.205 C 
ATOM     10  C   UNL     1       1.018  -4.562  27.585  0.00  0.00    +0.174 C 
ATOM     11  O   UNL     1       0.335  -3.330  27.384  0.00  0.00    -0.347 OA
ATOM     12  C   UNL     1       0.978  -2.270  27.977  0.00  0.00    +0.160 C 
ATOM     13  C   UNL     1       2.382  -2.433  28.395  0.00  0.00    +0.102 C 
ATOM     14  H   UNL     1       3.387  -4.232  28.311  0.00  0.00    +0.125 HD
BRANCH  10  15
ATOM     15  C   UNL     1       2.094  -4.565  26.564  0.00  0.00    +0.008 C 
ATOM     16  C   UNL     1       1.946  -3.781  25.524  0.00  0.00    -0.002 C 
ATOM     17  C   UNL     1       2.921  -3.660  24.427  0.00  0.00    -0.000 C 
ATOM     18  C   UNL     1       4.021  -4.352  24.455  0.00  0.00    +0.004 C 
ATOM     19  C   UNL     1       4.325  -5.213  25.615  0.00  0.00    -0.000 C 
ATOM     20  C   UNL     1       3.257  -5.441  26.580  0.00  0.00    -0.002 C 
BRANCH  18  21
ATOM     21  C   UNL     1       5.021  -4.274  23.375  0.00  0.00    +0.050 C 
ATOM     22  C   UNL     1       6.167  -3.560  23.415  0.00  0.00    +0.130 C 
ATOM     23  N   UNL     1       7.052  -3.614  22.355  0.00  0.00    -0.199 NA
ATOM     24  C   UNL     1       6.801  -4.363  21.275  0.00  0.00    +0.215 C 
ATOM     25  N   UNL     1       5.658  -5.096  21.199  0.00  0.00    -0.212 NA
ATOM     26  C   UNL     1       4.798  -5.038  22.238  0.00  0.00    +0.105 C 
ATOM     27  N   UNL     1       7.690  -4.442  20.167  0.00  0.00    -0.327 N 
ATOM     28  H   UNL     1       8.531  -3.931  20.172  0.00  0.00    +0.145 HD
ATOM     29  H   UNL     1       7.464  -5.008  19.394  0.00  0.00    +0.145 HD
BRANCH  22  30
ATOM     30  N   UNL     1       6.568  -2.697  24.449  0.00  0.00    -0.343 N 
ATOM     31  H   UNL     1       6.213  -1.779  24.490  0.00  0.00    +0.144 HD
ATOM     32  H   UNL     1       7.203  -3.010  25.133  0.00  0.00    +0.144 HD
ENDBRANCH  22  30
ENDBRANCH  18  21
ENDBRANCH  10  15
ENDBRANCH   1   9
BRANCH   5  33
ATOM     33  C   UNL     1       3.001  -3.959  34.227  0.00  0.00    +0.058 C 
ATOM     34  C   UNL     1       3.914  -4.207  35.131  0.00  0.00    +0.005 C 
ENDBRANCH   5  33
BRANCH   1  35
ATOM     35  O   UNL     1       1.077  -6.894  29.155  0.00  0.00    -0.337 OA
BRANCH  35  36
ATOM     36  C   UNL     1      -0.342  -6.992  28.991  0.00  0.00    +0.363 C 
ATOM     37  O   UNL     1      -0.819  -6.753  27.870  0.00  0.00    -0.243 OA
BRANCH  36  38
ATOM     38  C   UNL     1      -1.183  -7.357  30.096  0.00  0.00    +0.078 C 
ATOM     39  C   UNL     1      -2.033  -6.454  30.675  0.00  0.00    +0.006 C 
ATOM     40  C   UNL     1      -2.462  -5.088  30.386  0.00  0.00    +0.000 C 
ATOM     41  C   UNL     1      -3.377  -4.714  31.380  0.00  0.00    +0.000 C 
ATOM     42  C   UNL     1      -3.520  -5.849  32.280  0.00  0.00    +0.000 C 
ATOM     43  C   UNL     1      -2.705  -6.858  31.814  0.00  0.00    +0.000 C 
ATOM     44  C   UNL     1      -2.580  -8.098  32.398  0.00  0.00    +0.000 C 
ATOM     45  C   UNL     1      -1.726  -9.001  31.805  0.00  0.00    +0.000 C 
ATOM     46  C   UNL     1      -1.049  -8.619  30.675  0.00  0.00    +0.007 C 
ATOM     47  C   UNL     1      -3.305  -8.408  33.546  0.00  0.00    +0.000 C 
ATOM     48  C   UNL     1      -4.121  -7.410  34.021  0.00  0.00    +0.000 C 
ATOM     49  C   UNL     1      -4.242  -6.156  33.422  0.00  0.00    +0.000 C 
ATOM     50  C   UNL     1      -3.979  -3.477  31.378  0.00  0.00    +0.000 C 
ATOM     51  C   UNL     1      -3.680  -2.574  30.370  0.00  0.00    +0.000 C 
ATOM     52  C   UNL     1      -2.787  -2.923  29.385  0.00  0.00    +0.000 C 
ATOM     53  C   UNL     1      -2.195  -4.188  29.420  0.00  0.00    +0.000 C 
ENDBRANCH  36  38
ENDBRANCH  35  36
ENDBRANCH   1  35
TORSDOF 8
ENDMDL
