REMARK  Name = =
REMARK  8 active torsions:
REMARK  status: ('A' for Active; 'I' for Inactive)
REMARK    1  A    between atoms: C_1  and  N_7
REMARK    2  A    between atoms: C_2  and  C_25
REMARK    3  A    between atoms: C_3  and  O_38
REMARK    4  A    between atoms: C_5  and  O_37
REMARK    5  A    between atoms: C_26  and  N_31
REMARK    6  A    between atoms: C_27  and  O_36
REMARK    7  A    between atoms: N_31  and  S_32
REMARK    8  A    between atoms: S_32  and  N_35
REMARK                            x       y       z     vdW  Elec       q    Type
REMARK                         _______ _______ _______ _____ _____    ______ ____
ROOT
ATOM      1  C   UNL     1      53.104 157.220  28.123  0.00  0.00    +0.066 C 
ATOM      2  C   UNL     1      52.248 157.705  29.070  0.00  0.00    +0.067 C 
ATOM      3  C   UNL     1      52.672 158.720  29.959  0.00  0.00    +0.139 C 
ATOM      4  C   UNL     1      53.938 159.232  29.891  0.00  0.00    +0.073 C 
ATOM      5  C   UNL     1      54.809 158.750  28.945  0.00  0.00    +0.138 C 
ATOM      6  C   UNL     1      54.369 157.771  28.104  0.00  0.00    +0.052 C 
ENDROOT
BRANCH   1   7
ATOM      7  N   UNL     1      52.800 156.199  27.243  0.00  0.00    -0.231 N 
ATOM      8  C   UNL     1      53.579 156.266  25.989  0.00  0.00    +0.091 C 
ATOM      9  C   UNL     1      54.227 155.158  25.415  0.00  0.00    +0.156 C 
ATOM     10  N   UNL     1      54.894 155.365  24.284  0.00  0.00    -0.227 NA
ATOM     11  C   UNL     1      54.945 156.604  23.707  0.00  0.00    +0.100 C 
ATOM     12  C   UNL     1      54.322 157.707  24.238  0.00  0.00    +0.022 C 
ATOM     13  C   UNL     1      53.623 157.513  25.411  0.00  0.00    +0.020 C 
ATOM     14  N   UNL     1      54.271 153.799  25.920  0.00  0.00    -0.214 N 
ATOM     15  C   UNL     1      53.219 153.110  26.591  0.00  0.00    +0.064 C 
ATOM     16  C   UNL     1      52.186 153.709  27.332  0.00  0.00    +0.068 C 
ATOM     17  C   UNL     1      51.266 152.968  27.985  0.00  0.00    +0.006 C 
ATOM     18  C   UNL     1      51.372 151.572  27.901  0.00  0.00    +0.000 C 
ATOM     19  C   UNL     1      52.400 150.978  27.158  0.00  0.00    +0.001 C 
ATOM     20  C   UNL     1      53.338 151.760  26.491  0.00  0.00    +0.015 C 
ATOM     21  C   UNL     1      51.866 155.145  27.460  0.00  0.00    +0.258 C 
ATOM     22  O   UNL     1      50.749 155.523  27.758  0.00  0.00    -0.269 OA
ATOM     23  C   UNL     1      55.514 153.170  25.684  0.00  0.00    +0.312 C 
ATOM     24  O   UNL     1      55.778 152.048  26.155  0.00  0.00    -0.264 OA
ENDBRANCH   1   7
BRANCH   2  25
ATOM     25  C   UNL     1      50.896 157.297  29.415  0.00  0.00    +0.103 C 
ATOM     26  C   UNL     1      49.914 158.193  29.662  0.00  0.00    +0.117 C 
ATOM     27  C   UNL     1      48.636 157.751  30.044  0.00  0.00    +0.151 C 
ATOM     28  C   UNL     1      48.372 156.427  30.175  0.00  0.00    +0.059 C 
ATOM     29  C   UNL     1      49.392 155.517  29.920  0.00  0.00    +0.102 C 
ATOM     30  N   UNL     1      50.579 155.973  29.561  0.00  0.00    -0.242 NA
BRANCH  26  31
ATOM     31  N   UNL     1      50.040 159.589  29.532  0.00  0.00    -0.201 N 
ATOM     32  H   UNL     1      50.433 159.931  28.696  0.00  0.00    +0.175 HD
BRANCH  31  33
ATOM     33  S   UNL     1      49.563 160.753  30.717  0.00  0.00    +0.107 S 
ATOM     34  O   UNL     1      49.296 160.085  32.066  0.00  0.00    -0.138 OA
ATOM     35  O   UNL     1      48.306 161.474  30.267  0.00  0.00    -0.138 OA
BRANCH  33  36
ATOM     36  N   UNL     1      50.826 161.871  30.975  0.00  0.00    -0.191 NA
ATOM     37  H   UNL     1      51.664 161.374  31.277  0.00  0.00    +0.146 HD
ATOM     38  H   UNL     1      50.548 162.537  31.695  0.00  0.00    +0.146 HD
ENDBRANCH  33  36
ENDBRANCH  31  33
ENDBRANCH  26  31
BRANCH  27  39
ATOM     39  O   UNL     1      47.616 158.650  30.298  0.00  0.00    -0.504 OA
ATOM     40  H   UNL     1      47.771 159.570  30.215  0.00  0.00    +0.292 HD
ENDBRANCH  27  39
ENDBRANCH   2  25
BRANCH   5  41
ATOM     41  O   UNL     1      56.112 159.248  28.841  0.00  0.00    -0.505 OA
ATOM     42  H   UNL     1      56.404 159.921  29.424  0.00  0.00    +0.292 HD
ENDBRANCH   5  41
BRANCH   3  43
ATOM     43  O   UNL     1      51.852 159.252  30.943  0.00  0.00    -0.505 OA
ATOM     44  H   UNL     1      50.973 158.941  31.039  0.00  0.00    +0.292 HD
ENDBRANCH   3  43
TORSDOF 8
