REMARK  Name = =
REMARK  3 active torsions:
REMARK  status: ('A' for Active; 'I' for Inactive)
REMARK    1  A    between atoms: C_1  and  O_15
REMARK    2  A    between atoms: C_2  and  N_8
REMARK    3  A    between atoms: O_15  and  C_16
REMARK                            x       y       z     vdW  Elec       q    Type
REMARK                         _______ _______ _______ _____ _____    ______ ____
ROOT
ATOM      1  C   UNL     1     -13.980 -43.305  28.456  0.00  0.00    +0.320 C 
ATOM      2  C   UNL     1     -14.988 -42.850  27.629  0.00  0.00    +0.171 C 
ATOM      3  C   UNL     1     -16.225 -42.617  28.187  0.00  0.00    +0.219 C 
ATOM      4  O   UNL     1     -17.145 -42.202  27.437  0.00  0.00    -0.285 OA
ATOM      5  C   UNL     1     -16.406 -42.843  29.535  0.00  0.00    +0.084 C 
ATOM      6  C   UNL     1     -15.348 -43.304  30.321  0.00  0.00    +0.186 C 
ATOM      7  O   UNL     1     -14.187 -43.512  29.747  0.00  0.00    -0.419 OA
ENDROOT
BRANCH   2   8
ATOM      8  N   UNL     1     -14.813 -42.613  26.237  0.00  0.00    -0.208 N 
ATOM      9  C   UNL     1     -14.999 -41.370  25.710  0.00  0.00    +0.174 C 
ATOM     10  N   UNL     1     -14.847 -41.106  24.416  0.00  0.00    -0.225 NA
ATOM     11  C   UNL     1     -14.498 -42.045  23.539  0.00  0.00    +0.105 C 
ATOM     12  C   UNL     1     -14.295 -43.324  24.009  0.00  0.00    +0.079 C 
ATOM     13  C   UNL     1     -14.460 -43.576  25.365  0.00  0.00    +0.260 C 
ATOM     14  O   UNL     1     -14.283 -44.743  25.838  0.00  0.00    -0.269 OA
ENDBRANCH   2   8
BRANCH   1  15
ATOM     15  O   UNL     1     -12.721 -43.545  27.897  0.00  0.00    -0.412 OA
BRANCH  15  16
ATOM     16  C   UNL     1     -11.652 -43.833  28.727  0.00  0.00    +0.226 C 
ATOM     17  S   UNL     1     -10.742 -42.598  29.270  0.00  0.00    -0.007 S 
ENDBRANCH  15  16
ENDBRANCH   1  15
TORSDOF 3
