MODEL 1
REMARK VINA RESULT:    -9.655      0.000      0.000
REMARK INTER + INTRA:         -13.270
REMARK INTER:                 -12.477
REMARK INTRA:                  -0.793
REMARK UNBOUND:                -0.793
REMARK  Name = =
REMARK  5 active torsions:
REMARK  status: ('A' for Active; 'I' for Inactive)
REMARK    1  A    between atoms: C_1  and  C_27
REMARK    2  A    between atoms: C_15  and  C_19
REMARK    3  A    between atoms: C_16  and  C_38
REMARK    4  A    between atoms: C_27  and  C_34
REMARK    5  A    between atoms: C_34  and  O_36
REMARK                            x       y       z     vdW  Elec       q    Type
REMARK                         _______ _______ _______ _____ _____    ______ ____
ROOT
ATOM      1  C   UNL     1       1.906  -3.093  26.558  0.00  0.00    -0.009 C 
ATOM      2  C   UNL     1       1.605  -4.192  27.287  0.00  0.00    -0.004 C 
ATOM      3  C   UNL     1       0.506  -4.175  28.118  0.00  0.00    +0.002 A 
ATOM      4  C   UNL     1      -0.279  -3.044  28.204  0.00  0.00    +0.000 A 
ATOM      5  C   UNL     1      -1.379  -3.032  29.038  0.00  0.00    +0.000 A 
ATOM      6  C   UNL     1      -1.675  -4.199  29.795  0.00  0.00    +0.000 A 
ATOM      7  C   UNL     1      -2.789  -4.156  30.626  0.00  0.00    +0.000 C 
ATOM      8  C   UNL     1      -3.539  -2.993  30.667  0.00  0.00    +0.000 C 
ATOM      9  C   UNL     1      -3.254  -1.869  29.937  0.00  0.00    +0.000 C 
ATOM     10  C   UNL     1      -2.155  -1.911  29.120  0.00  0.00    +0.000 C 
ATOM     11  C   UNL     1      -4.644  -2.933  31.490  0.00  0.00    +0.000 C 
ATOM     12  C   UNL     1      -4.990  -4.015  32.257  0.00  0.00    +0.000 C 
ATOM     13  C   UNL     1      -4.247  -5.164  32.217  0.00  0.00    +0.000 C 
ATOM     14  C   UNL     1      -3.117  -5.235  31.379  0.00  0.00    +0.000 C 
ATOM     15  C   UNL     1      -0.899  -5.297  29.698  0.00  0.00    +0.005 A 
ATOM     16  C   UNL     1       0.231  -5.302  28.838  0.00  0.00    +0.035 A 
ATOM     17  C   UNL     1       0.023  -1.915  27.460  0.00  0.00    -0.000 C 
ATOM     18  C   UNL     1       1.147  -1.947  26.618  0.00  0.00    -0.004 C 
ENDROOT
BRANCH  15  19
ATOM     19  C   UNL     1      -1.039  -6.569  30.345  0.00  0.00    +0.030 C 
ATOM     20  C   UNL     1      -0.392  -6.769  31.545  0.00  0.00    +0.167 C 
ATOM     21  C   UNL     1      -0.600  -7.918  32.251  0.00  0.00    +0.167 C 
ATOM     22  C   UNL     1      -1.449  -8.897  31.795  0.00  0.00    +0.032 C 
ATOM     23  C   UNL     1      -2.107  -8.723  30.601  0.00  0.00    +0.002 C 
ATOM     24  C   UNL     1      -1.901  -7.574  29.892  0.00  0.00    +0.002 C 
ATOM     25  F   UNL     1       0.043  -8.132  33.459  0.00  0.00    -0.202 F 
ATOM     26  F   UNL     1       0.458  -5.845  32.053  0.00  0.00    -0.202 F 
ENDBRANCH  15  19
BRANCH   1  27
ATOM     27  C   UNL     1       3.101  -3.079  25.642  0.00  0.00    +0.146 C 
ATOM     28  C   UNL     1       3.376  -4.456  25.165  0.00  0.00    +0.121 C 
ATOM     29  S   UNL     1       5.086  -5.068  25.427  0.00  0.00    -0.122 S 
ATOM     30  C   UNL     1       5.586  -4.914  23.660  0.00  0.00    +0.076 C 
ATOM     31  C   UNL     1       4.601  -3.868  23.235  0.00  0.00    +0.085 C 
ATOM     32  N   UNL     1       3.326  -4.103  23.793  0.00  0.00    -0.263 NA
ATOM     33  C   UNL     1       2.727  -2.819  24.207  0.00  0.00    +0.090 C 
BRANCH  27  34
ATOM     34  C   UNL     1       4.211  -2.300  26.191  0.00  0.00    +0.323 C 
ATOM     35  O   UNL     1       4.590  -2.390  27.382  0.00  0.00    -0.250 OA
BRANCH  34  36
ATOM     36  O   UNL     1       4.887  -1.416  25.372  0.00  0.00    -0.444 OA
ATOM     37  C   UNL     1       6.284  -1.406  25.199  0.00  0.00    +0.256 C 
ENDBRANCH  34  36
ENDBRANCH  27  34
ENDBRANCH   1  27
BRANCH  16  38
ATOM     38  C   UNL     1       1.095  -6.468  28.708  0.00  0.00    +0.173 C 
ATOM     39  O   UNL     1       2.115  -6.569  29.471  0.00  0.00    -0.291 OA
ATOM     40  C   UNL     1       0.874  -7.555  27.749  0.00  0.00    +0.077 C 
ENDBRANCH  16  38
TORSDOF 5
ENDMDL
