REMARK  Name = =
REMARK  5 active torsions:
REMARK  status: ('A' for Active; 'I' for Inactive)
REMARK    1  A    between atoms: C_1  and  C_27
REMARK    2  A    between atoms: C_15  and  C_19
REMARK    3  A    between atoms: C_16  and  C_38
REMARK    4  A    between atoms: C_27  and  C_34
REMARK    5  A    between atoms: C_34  and  O_36
REMARK                            x       y       z     vdW  Elec       q    Type
REMARK                         _______ _______ _______ _____ _____    ______ ____
ROOT
ATOM      1  C   UNL     1      -5.148  -2.136  31.477  0.00  0.00    -0.009 C 
ATOM      2  C   UNL     1      -4.656  -3.386  31.636  0.00  0.00    -0.004 C 
ATOM      3  C   UNL     1      -3.469  -3.731  31.026  0.00  0.00    +0.002 A 
ATOM      4  C   UNL     1      -2.790  -2.806  30.261  0.00  0.00    +0.000 A 
ATOM      5  C   UNL     1      -1.602  -3.156  29.652  0.00  0.00    +0.000 A 
ATOM      6  C   UNL     1      -1.105  -4.477  29.833  0.00  0.00    +0.000 A 
ATOM      7  C   UNL     1       0.094  -4.799  29.207  0.00  0.00    +0.000 C 
ATOM      8  C   UNL     1       0.729  -3.827  28.454  0.00  0.00    +0.000 C 
ATOM      9  C   UNL     1       0.251  -2.555  28.281  0.00  0.00    +0.000 C 
ATOM     10  C   UNL     1      -0.932  -2.238  28.896  0.00  0.00    +0.000 C 
ATOM     11  C   UNL     1       1.917  -4.133  27.823  0.00  0.00    +0.000 C 
ATOM     12  C   UNL     1       2.456  -5.388  27.943  0.00  0.00    +0.000 C 
ATOM     13  C   UNL     1       1.826  -6.349  28.687  0.00  0.00    +0.000 C 
ATOM     14  C   UNL     1       0.613  -6.045  29.335  0.00  0.00    +0.000 C 
ATOM     15  C   UNL     1      -1.780  -5.368  30.586  0.00  0.00    +0.005 A 
ATOM     16  C   UNL     1      -3.002  -5.001  31.209  0.00  0.00    +0.035 A 
ATOM     17  C   UNL     1      -3.288  -1.524  30.094  0.00  0.00    -0.000 C 
ATOM     18  C   UNL     1      -4.499  -1.187  30.721  0.00  0.00    -0.004 C 
ENDROOT
BRANCH  15  19
ATOM     19  C   UNL     1      -1.441  -6.723  30.913  0.00  0.00    +0.030 C 
ATOM     20  C   UNL     1      -0.626  -6.951  32.000  0.00  0.00    +0.167 C 
ATOM     21  C   UNL     1      -0.382  -8.227  32.417  0.00  0.00    +0.167 C 
ATOM     22  C   UNL     1      -0.935  -9.309  31.776  0.00  0.00    +0.032 C 
ATOM     23  C   UNL     1      -1.752  -9.110  30.689  0.00  0.00    +0.002 C 
ATOM     24  C   UNL     1      -1.998  -7.834  30.269  0.00  0.00    +0.002 C 
ATOM     25  F   UNL     1       0.436  -8.471  33.508  0.00  0.00    -0.202 F 
ATOM     26  F   UNL     1      -0.049  -5.930  32.678  0.00  0.00    -0.202 F 
ENDBRANCH  15  19
BRANCH   1  27
ATOM     27  C   UNL     1      -6.443  -1.729  32.129  0.00  0.00    +0.146 C 
ATOM     28  C   UNL     1      -7.566  -2.469  31.505  0.00  0.00    +0.121 C 
ATOM     29  S   UNL     1      -8.948  -1.441  30.872  0.00  0.00    -0.122 S 
ATOM     30  C   UNL     1     -10.109  -1.870  32.238  0.00  0.00    +0.076 C 
ATOM     31  C   UNL     1      -9.102  -2.242  33.283  0.00  0.00    +0.085 C 
ATOM     32  N   UNL     1      -8.041  -2.993  32.734  0.00  0.00    -0.263 NA
ATOM     33  C   UNL     1      -6.767  -2.561  33.341  0.00  0.00    +0.090 C 
BRANCH  27  34
ATOM     34  C   UNL     1      -6.560  -0.278  32.269  0.00  0.00    +0.323 C 
ATOM     35  O   UNL     1      -6.372   0.325  33.351  0.00  0.00    -0.250 OA
BRANCH  34  36
ATOM     36  O   UNL     1      -6.895   0.483  31.166  0.00  0.00    -0.444 OA
ATOM     37  C   UNL     1      -7.127   1.872  31.201  0.00  0.00    +0.256 C 
ENDBRANCH  34  36
ENDBRANCH  27  34
ENDBRANCH   1  27
BRANCH  16  38
ATOM     38  C   UNL     1      -3.761  -5.937  32.028  0.00  0.00    +0.173 C 
ATOM     39  O   UNL     1      -4.629  -6.686  31.466  0.00  0.00    -0.291 OA
ATOM     40  C   UNL     1      -3.596  -6.085  33.478  0.00  0.00    +0.077 C 
ENDBRANCH  16  38
TORSDOF 5
