REMARK  Name = =
REMARK  0 active torsions:
REMARK  status: ('A' for Active; 'I' for Inactive)
REMARK                            x       y       z     vdW  Elec       q    Type
REMARK                         _______ _______ _______ _____ _____    ______ ____
ROOT
ATOM      1  N   UNL     1      -9.042  -9.205  18.119  0.00  0.00    -0.219 NA
ATOM      2  C   UNL     1      -9.306  -7.903  18.615  0.00  0.00    +0.089 C 
ATOM      3  C   UNL     1     -10.465  -7.781  19.534  0.00  0.00    +0.023 C 
ATOM      4  C   UNL     1     -10.660  -8.950  20.455  0.00  0.00    +0.025 C 
ATOM      5  C   UNL     1     -10.548 -10.226  19.656  0.00  0.00    +0.022 C 
ATOM      6  C   UNL     1      -9.151 -10.265  19.072  0.00  0.00    +0.077 C 
ATOM      7  C   UNL     1      -8.076 -10.306  20.097  0.00  0.00    +0.043 C 
ATOM      8  C   UNL     1      -8.435  -9.613  21.360  0.00  0.00    -0.025 C 
ATOM      9  C   UNL     1      -9.642  -8.971  21.547  0.00  0.00    -0.026 C 
ATOM     10  C   UNL     1      -9.872  -8.358  22.763  0.00  0.00    -0.005 C 
ATOM     11  C   UNL     1      -8.955  -8.357  23.795  0.00  0.00    -0.000 C 
ATOM     12  C   UNL     1      -7.745  -9.008  23.586  0.00  0.00    -0.000 C 
ATOM     13  C   UNL     1      -7.493  -9.630  22.375  0.00  0.00    -0.005 C 
ENDROOT
TORSDOF 0
