MODEL 1
REMARK VINA RESULT:    -7.524      0.000      0.000
REMARK INTER + INTRA:         -11.466
REMARK INTER:                 -10.602
REMARK INTRA:                  -0.864
REMARK UNBOUND:                -0.864
REMARK  Name = =
REMARK  8 active torsions:
REMARK  status: ('A' for Active; 'I' for Inactive)
REMARK    1  A    between atoms: C_1  and  C_24
REMARK    2  A    between atoms: C_8  and  C_10
REMARK    3  A    between atoms: C_25  and  O_33
REMARK    4  A    between atoms: C_27  and  O_30
REMARK    5  A    between atoms: O_30  and  C_31
REMARK    6  A    between atoms: O_33  and  P_34
REMARK    7  A    between atoms: P_34  and  O_36
REMARK    8  A    between atoms: P_34  and  O_37
REMARK                            x       y       z     vdW  Elec       q    Type
REMARK                         _______ _______ _______ _____ _____    ______ ____
ROOT
ATOM      1  C   UNL     1      56.194 163.882  41.910  0.00  0.00    +0.004 C 
ATOM      2  C   UNL     1      56.701 165.109  42.278  0.00  0.00    +0.016 C 
ATOM      3  C   UNL     1      55.862 166.161  42.623  0.00  0.00    +0.059 C 
ATOM      4  N   UNL     1      56.119 167.516  43.034  0.00  0.00    -0.315 N 
ATOM      5  C   UNL     1      54.882 168.271  42.832  0.00  0.00    +0.182 C 
ATOM      6  N   UNL     1      53.908 167.202  42.989  0.00  0.00    -0.315 N 
ATOM      7  C   UNL     1      54.510 165.990  42.602  0.00  0.00    +0.058 C 
ATOM      8  C   UNL     1      53.949 164.781  42.241  0.00  0.00    +0.028 C 
ATOM      9  C   UNL     1      54.805 163.759  41.905  0.00  0.00    -0.000 C 
ATOM     10  H   UNL     1      56.967 167.869  43.386  0.00  0.00    +0.148 HD
ATOM     11  H   UNL     1      52.984 167.308  43.311  0.00  0.00    +0.148 HD
ENDROOT
BRANCH   8  12
ATOM     12  C   UNL     1      52.507 164.558  42.194  0.00  0.00    +0.216 C 
ATOM     13  O   UNL     1      52.095 163.332  41.736  0.00  0.00    -0.325 OA
ATOM     14  C   UNL     1      50.869 163.460  41.151  0.00  0.00    +0.214 C 
ATOM     15  N   UNL     1      50.649 164.866  40.882  0.00  0.00    -0.245 N 
ATOM     16  C   UNL     1      49.395 165.313  40.361  0.00  0.00    +0.181 C 
ATOM     17  C   UNL     1      48.336 164.298  40.492  0.00  0.00    +0.246 C 
ATOM     18  O   UNL     1      47.315 164.403  39.778  0.00  0.00    -0.273 OA
ATOM     19  N   UNL     1      48.461 163.228  41.397  0.00  0.00    -0.276 N 
ATOM     20  C   UNL     1      49.740 162.870  41.968  0.00  0.00    +0.122 C 
ATOM     21  C   UNL     1      49.681 161.361  41.860  0.00  0.00    +0.026 C 
ATOM     22  C   UNL     1      48.284 161.065  42.353  0.00  0.00    +0.023 C 
ATOM     23  C   UNL     1      47.499 162.292  41.954  0.00  0.00    +0.094 C 
ATOM     24  C   UNL     1      51.877 165.514  41.246  0.00  0.00    +0.259 C 
ATOM     25  O   UNL     1      52.245 166.627  40.810  0.00  0.00    -0.272 OA
ENDBRANCH   8  12
BRANCH   1  26
ATOM     26  C   UNL     1      57.075 162.775  41.547  0.00  0.00    +0.035 C 
ATOM     27  C   UNL     1      56.866 161.490  42.011  0.00  0.00    +0.152 C 
ATOM     28  C   UNL     1      57.700 160.442  41.667  0.00  0.00    +0.075 C 
ATOM     29  C   UNL     1      58.785 160.642  40.839  0.00  0.00    +0.152 C 
ATOM     30  C   UNL     1      58.993 161.926  40.376  0.00  0.00    +0.038 C 
ATOM     31  C   UNL     1      58.160 162.974  40.718  0.00  0.00    +0.006 C 
BRANCH  29  32
ATOM     32  O   UNL     1      59.632 159.599  40.485  0.00  0.00    -0.416 OA
BRANCH  32  33
ATOM     33  C   UNL     1      59.115 158.351  40.145  0.00  0.00    +0.423 C 
ATOM     34  O   UNL     1      58.968 158.119  38.908  0.00  0.00    -0.237 OA
ENDBRANCH  32  33
ENDBRANCH  29  32
BRANCH  27  35
ATOM     35  O   UNL     1      55.772 161.308  42.842  0.00  0.00    -0.403 OA
BRANCH  35  36
ATOM     36  P   UNL     1      54.468 160.359  42.270  0.00  0.00    +0.528 P 
ATOM     37  O   UNL     1      54.293 160.515  40.780  0.00  0.00    -0.216 OA
BRANCH  36  38
ATOM     38  O   UNL     1      53.013 160.799  43.010  0.00  0.00    -0.293 OA
ATOM     39  H   UNL     1      52.269 160.441  42.501  0.00  0.00    +0.223 HD
ENDBRANCH  36  38
BRANCH  36  40
ATOM     40  O   UNL     1      54.724 158.709  42.637  0.00  0.00    -0.293 OA
ATOM     41  H   UNL     1      53.933 158.199  42.401  0.00  0.00    +0.223 HD
ENDBRANCH  36  40
ENDBRANCH  35  36
ENDBRANCH  27  35
ENDBRANCH   1  26
TORSDOF 8
ENDMDL
