REMARK  Name = =
REMARK  8 active torsions:
REMARK  status: ('A' for Active; 'I' for Inactive)
REMARK    1  A    between atoms: C_1  and  C_24
REMARK    2  A    between atoms: C_8  and  C_10
REMARK    3  A    between atoms: C_25  and  O_33
REMARK    4  A    between atoms: C_27  and  O_30
REMARK    5  A    between atoms: O_30  and  C_31
REMARK    6  A    between atoms: O_33  and  P_34
REMARK    7  A    between atoms: P_34  and  O_36
REMARK    8  A    between atoms: P_34  and  O_37
REMARK                            x       y       z     vdW  Elec       q    Type
REMARK                         _______ _______ _______ _____ _____    ______ ____
ROOT
ATOM      1  C   UNL     1      52.846 157.009  27.189  0.00  0.00    +0.004 C 
ATOM      2  C   UNL     1      53.681 157.813  26.443  0.00  0.00    +0.016 C 
ATOM      3  C   UNL     1      54.373 157.313  25.348  0.00  0.00    +0.059 C 
ATOM      4  N   UNL     1      55.290 157.917  24.417  0.00  0.00    -0.315 N 
ATOM      5  C   UNL     1      56.028 156.832  23.771  0.00  0.00    +0.182 C 
ATOM      6  N   UNL     1      55.039 155.768  23.863  0.00  0.00    -0.315 N 
ATOM      7  C   UNL     1      54.234 156.005  24.992  0.00  0.00    +0.058 C 
ATOM      8  C   UNL     1      53.411 155.155  25.705  0.00  0.00    +0.028 C 
ATOM      9  C   UNL     1      52.739 155.679  26.784  0.00  0.00    -0.000 C 
ATOM     10  H   UNL     1      55.400 158.880  24.247  0.00  0.00    +0.148 HD
ATOM     11  H   UNL     1      54.949 155.011  23.240  0.00  0.00    +0.148 HD
ENDROOT
BRANCH   8  12
ATOM     12  C   UNL     1      53.242 153.745  25.366  0.00  0.00    +0.216 C 
ATOM     13  O   UNL     1      52.974 152.896  26.410  0.00  0.00    -0.325 OA
ATOM     14  C   UNL     1      53.460 151.655  26.116  0.00  0.00    +0.214 C 
ATOM     15  N   UNL     1      54.400 151.793  25.023  0.00  0.00    -0.245 N 
ATOM     16  C   UNL     1      54.994 150.635  24.432  0.00  0.00    +0.181 C 
ATOM     17  C   UNL     1      54.289 149.393  24.794  0.00  0.00    +0.246 C 
ATOM     18  O   UNL     1      54.886 148.304  24.654  0.00  0.00    -0.273 OA
ATOM     19  N   UNL     1      52.972 149.421  25.289  0.00  0.00    -0.276 N 
ATOM     20  C   UNL     1      52.383 150.641  25.795  0.00  0.00    +0.122 C 
ATOM     21  C   UNL     1      51.694 150.122  27.039  0.00  0.00    +0.026 C 
ATOM     22  C   UNL     1      51.029 148.865  26.528  0.00  0.00    +0.023 C 
ATOM     23  C   UNL     1      51.951 148.397  25.428  0.00  0.00    +0.094 C 
ATOM     24  C   UNL     1      54.504 153.207  24.794  0.00  0.00    +0.259 C 
ATOM     25  O   UNL     1      55.474 153.763  24.234  0.00  0.00    -0.272 OA
ENDBRANCH   8  12
BRANCH   1  26
ATOM     26  C   UNL     1      52.118 157.534  28.341  0.00  0.00    +0.035 C 
ATOM     27  C   UNL     1      51.154 156.792  28.998  0.00  0.00    +0.152 C 
ATOM     28  C   UNL     1      50.465 157.288  30.089  0.00  0.00    +0.075 C 
ATOM     29  C   UNL     1      50.715 158.557  30.568  0.00  0.00    +0.152 C 
ATOM     30  C   UNL     1      51.678 159.298  29.911  0.00  0.00    +0.038 C 
ATOM     31  C   UNL     1      52.368 158.803  28.821  0.00  0.00    +0.006 C 
BRANCH  29  32
ATOM     32  O   UNL     1      50.030 159.070  31.663  0.00  0.00    -0.416 OA
BRANCH  32  33
ATOM     33  C   UNL     1      48.792 159.686  31.498  0.00  0.00    +0.423 C 
ATOM     34  O   UNL     1      48.152 159.395  30.444  0.00  0.00    -0.237 OA
ENDBRANCH  32  33
ENDBRANCH  29  32
BRANCH  27  35
ATOM     35  O   UNL     1      50.916 155.520  28.503  0.00  0.00    -0.403 OA
BRANCH  35  36
ATOM     36  P   UNL     1      50.836 154.219  29.612  0.00  0.00    +0.528 P 
ATOM     37  O   UNL     1      51.389 152.953  29.007  0.00  0.00    -0.216 OA
BRANCH  36  38
ATOM     38  O   UNL     1      49.244 153.912  30.090  0.00  0.00    -0.293 OA
ATOM     39  H   UNL     1      48.864 154.713  30.484  0.00  0.00    +0.223 HD
ENDBRANCH  36  38
BRANCH  36  40
ATOM     40  O   UNL     1      51.710 154.592  31.034  0.00  0.00    -0.293 OA
ATOM     41  H   UNL     1      51.357 155.406  31.426  0.00  0.00    +0.223 HD
ENDBRANCH  36  40
ENDBRANCH  35  36
ENDBRANCH  27  35
ENDBRANCH   1  26
TORSDOF 8
