MODEL 1
REMARK VINA RESULT:    -6.782      0.000      0.000
REMARK INTER + INTRA:         -10.782
REMARK INTER:                  -9.557
REMARK INTRA:                  -1.225
REMARK UNBOUND:                -1.225
REMARK  Name = =
REMARK  8 active torsions:
REMARK  status: ('A' for Active; 'I' for Inactive)
REMARK    1  A    between atoms: N_1  and  C_9
REMARK    2  A    between atoms: C_2  and  N_23
REMARK    3  A    between atoms: C_9  and  C_19
REMARK    4  A    between atoms: N_23  and  N_24
REMARK    5  A    between atoms: N_23  and  C_38
REMARK    6  A    between atoms: C_25  and  P_27
REMARK    7  A    between atoms: P_27  and  O_37
REMARK    8  A    between atoms: C_38  and  O_40
REMARK                            x       y       z     vdW  Elec       q    Type
REMARK                         _______ _______ _______ _____ _____    ______ ____
ROOT
ATOM      1  N   UNL     1      61.685 166.530  37.275  0.00  0.00    -0.253 N 
ATOM      2  C   UNL     1      62.503 165.790  38.199  0.00  0.00    +0.171 C 
ATOM      3  C   UNL     1      63.143 166.764  39.208  0.00  0.00    +0.047 C 
ATOM      4  C   UNL     1      63.550 168.039  38.566  0.00  0.00    +0.030 C 
ATOM      5  C   UNL     1      62.596 169.173  38.736  0.00  0.00    -0.021 C 
ATOM      6  C   UNL     1      61.189 168.930  38.362  0.00  0.00    +0.053 C 
ATOM      7  C   UNL     1      60.909 167.663  37.637  0.00  0.00    +0.251 C 
ATOM      8  O   UNL     1      59.701 167.565  37.250  0.00  0.00    -0.270 OA
ENDROOT
BRANCH   1   9
ATOM      9  C   UNL     1      61.663 166.174  35.877  0.00  0.00    +0.125 C 
ATOM     10  C   UNL     1      62.917 165.373  35.548  0.00  0.00    +0.003 C 
ATOM     11  C   UNL     1      64.051 166.115  34.984  0.00  0.00    +0.040 C 
ATOM     12  C   UNL     1      63.886 167.571  34.832  0.00  0.00    +0.195 C 
ATOM     13  O   UNL     1      64.840 168.365  34.923  0.00  0.00    -0.287 OA
ATOM     14  C   UNL     1      62.550 168.074  34.565  0.00  0.00    +0.040 C 
ATOM     15  C   UNL     1      61.542 167.386  35.076  0.00  0.00    +0.003 C 
BRANCH   9  19
ATOM     16  O   UNL     1      58.555 164.301  34.724  0.00  0.00    -0.421 OA
ATOM     17  C   UNL     1      59.332 165.463  34.750  0.00  0.00    +0.344 C 
ATOM     18  O   UNL     1      58.935 166.503  34.144  0.00  0.00    -0.245 OA
ATOM     19  C   UNL     1      60.539 165.252  35.514  0.00  0.00    +0.081 C 
ATOM     20  C   UNL     1      60.447 163.979  35.917  0.00  0.00    +0.042 C 
ATOM     21  C   UNL     1      59.230 163.349  35.449  0.00  0.00    +0.149 C 
ATOM     22  C   UNL     1      58.854 162.081  35.689  0.00  0.00    +0.041 C 
ENDBRANCH   9  19
ENDBRANCH   1   9
BRANCH   2  23
ATOM     23  N   UNL     1      61.794 164.836  39.040  0.00  0.00    -0.198 N 
BRANCH  23  24
ATOM     24  N   UNL     1      62.256 163.514  39.088  0.00  0.00    -0.187 NA
ATOM     25  C   UNL     1      61.965 162.618  40.145  0.00  0.00    +0.201 C 
ATOM     26  C   UNL     1      63.310 163.157  39.973  0.00  0.00    +0.124 C 
BRANCH  25  27
ATOM     27  P   UNL     1      61.744 160.852  39.946  0.00  0.00    +0.328 P 
ATOM     28  O   UNL     1      62.919 160.025  39.614  0.00  0.00    -0.138 OA
ATOM     29  O   UNL     1      60.265 160.212  40.216  0.00  0.00    -0.290 OA
ATOM     30  C   UNL     1      60.162 159.159  41.087  0.00  0.00    +0.157 C 
ATOM     31  C   UNL     1      60.274 159.717  42.508  0.00  0.00    +0.173 C 
ATOM     32  O   UNL     1      58.998 160.044  42.906  0.00  0.00    -0.351 OA
ATOM     33  C   UNL     1      58.117 159.166  42.328  0.00  0.00    +0.145 C 
ATOM     34  C   UNL     1      58.757 158.626  41.073  0.00  0.00    +0.065 C 
ATOM     35  C   UNL     1      61.141 160.977  42.388  0.00  0.00    +0.184 C 
ATOM     36  O   UNL     1      62.106 160.655  41.423  0.00  0.00    -0.287 OA
BRANCH  27  37
ATOM     37  O   UNL     1      61.387 160.986  38.461  0.00  0.00    -0.319 OA
ATOM     38  H   UNL     1      60.433 161.131  38.370  0.00  0.00    +0.220 HD
ENDBRANCH  27  37
ENDBRANCH  25  27
ENDBRANCH  23  24
BRANCH  23  39
ATOM     39  C   UNL     1      60.676 165.171  39.829  0.00  0.00    +0.245 C 
ATOM     40  S   UNL     1      59.159 164.729  39.334  0.00  0.00    +0.007 S 
BRANCH  39  41
ATOM     41  O   UNL     1      60.695 165.859  41.028  0.00  0.00    -0.489 OA
ATOM     42  H   UNL     1      61.426 165.771  41.608  0.00  0.00    +0.294 HD
ENDBRANCH  39  41
ENDBRANCH  23  39
ENDBRANCH   2  23
TORSDOF 8
ENDMDL
