REMARK  Name = =
REMARK  8 active torsions:
REMARK  status: ('A' for Active; 'I' for Inactive)
REMARK    1  A    between atoms: N_1  and  C_9
REMARK    2  A    between atoms: C_2  and  N_23
REMARK    3  A    between atoms: C_9  and  C_19
REMARK    4  A    between atoms: N_23  and  N_24
REMARK    5  A    between atoms: N_23  and  C_38
REMARK    6  A    between atoms: C_25  and  P_27
REMARK    7  A    between atoms: P_27  and  O_37
REMARK    8  A    between atoms: C_38  and  O_40
REMARK                            x       y       z     vdW  Elec       q    Type
REMARK                         _______ _______ _______ _____ _____    ______ ____
ROOT
ATOM      1  N   UNL     1      50.528 159.968  30.531  0.00  0.00    -0.253 N 
ATOM      2  C   UNL     1      51.055 158.636  30.665  0.00  0.00    +0.171 C 
ATOM      3  C   UNL     1      49.968 157.615  30.272  0.00  0.00    +0.047 C 
ATOM      4  C   UNL     1      48.622 158.033  30.736  0.00  0.00    +0.030 C 
ATOM      5  C   UNL     1      47.766 158.689  29.706  0.00  0.00    -0.021 C 
ATOM      6  C   UNL     1      48.347 159.834  28.978  0.00  0.00    +0.053 C 
ATOM      7  C   UNL     1      49.632 160.366  29.504  0.00  0.00    +0.251 C 
ATOM      8  O   UNL     1      50.023 161.415  28.901  0.00  0.00    -0.270 OA
ENDROOT
BRANCH   1   9
ATOM      9  C   UNL     1      50.855 160.980  31.506  0.00  0.00    +0.125 C 
ATOM     10  C   UNL     1      50.803 160.365  32.899  0.00  0.00    +0.003 C 
ATOM     11  C   UNL     1      49.555 160.535  33.654  0.00  0.00    +0.040 C 
ATOM     12  C   UNL     1      48.456 161.245  32.976  0.00  0.00    +0.195 C 
ATOM     13  O   UNL     1      47.259 160.992  33.199  0.00  0.00    -0.287 OA
ATOM     14  C   UNL     1      48.811 162.275  32.016  0.00  0.00    +0.040 C 
ATOM     15  C   UNL     1      49.943 162.107  31.352  0.00  0.00    +0.003 C 
BRANCH   9  19
ATOM     16  O   UNL     1      54.255 162.494  30.698  0.00  0.00    -0.421 OA
ATOM     17  C   UNL     1      52.897 162.334  30.406  0.00  0.00    +0.344 C 
ATOM     18  O   UNL     1      52.397 162.905  29.390  0.00  0.00    -0.245 OA
ATOM     19  C   UNL     1      52.260 161.489  31.389  0.00  0.00    +0.081 C 
ATOM     20  C   UNL     1      53.250 161.174  32.233  0.00  0.00    +0.042 C 
ATOM     21  C   UNL     1      54.507 161.776  31.842  0.00  0.00    +0.149 C 
ATOM     22  C   UNL     1      55.680 161.646  32.487  0.00  0.00    +0.041 C 
ENDBRANCH   9  19
ENDBRANCH   1   9
BRANCH   2  23
ATOM     23  N   UNL     1      52.170 158.310  29.787  0.00  0.00    -0.198 N 
BRANCH  23  24
ATOM     24  N   UNL     1      52.115 157.120  29.050  0.00  0.00    -0.187 NA
ATOM     25  C   UNL     1      52.082 157.074  27.635  0.00  0.00    +0.201 C 
ATOM     26  C   UNL     1      50.903 156.725  28.421  0.00  0.00    +0.124 C 
BRANCH  25  27
ATOM     27  P   UNL     1      52.833 155.785  26.644  0.00  0.00    +0.328 P 
ATOM     28  O   UNL     1      54.156 156.035  26.043  0.00  0.00    -0.138 OA
ATOM     29  O   UNL     1      52.060 154.352  26.506  0.00  0.00    -0.290 OA
ATOM     30  C   UNL     1      52.756 153.208  26.797  0.00  0.00    +0.157 C 
ATOM     31  C   UNL     1      52.862 153.102  28.320  0.00  0.00    +0.173 C 
ATOM     32  O   UNL     1      51.748 152.415  28.747  0.00  0.00    -0.351 OA
ATOM     33  C   UNL     1      51.393 151.507  27.783  0.00  0.00    +0.145 C 
ATOM     34  C   UNL     1      51.918 152.006  26.460  0.00  0.00    +0.065 C 
ATOM     35  C   UNL     1      52.836 154.546  28.836  0.00  0.00    +0.184 C 
ATOM     36  O   UNL     1      53.568 155.276  27.889  0.00  0.00    -0.287 OA
BRANCH  27  37
ATOM     37  O   UNL     1      52.134 156.256  25.363  0.00  0.00    -0.319 OA
ATOM     38  H   UNL     1      52.412 157.162  25.157  0.00  0.00    +0.220 HD
ENDBRANCH  27  37
ENDBRANCH  25  27
ENDBRANCH  23  24
BRANCH  23  39
ATOM     39  C   UNL     1      53.299 159.136  29.620  0.00  0.00    +0.245 C 
ATOM     40  S   UNL     1      54.783 158.454  29.346  0.00  0.00    +0.007 S 
BRANCH  39  41
ATOM     41  O   UNL     1      53.317 160.518  29.660  0.00  0.00    -0.489 OA
ATOM     42  H   UNL     1      52.523 160.993  29.810  0.00  0.00    +0.294 HD
ENDBRANCH  39  41
ENDBRANCH  23  39
ENDBRANCH   2  23
TORSDOF 8
