MODEL 1
REMARK VINA RESULT:    -7.020      0.000      0.000
REMARK INTER + INTRA:          -7.986
REMARK INTER:                  -8.251
REMARK INTRA:                   0.265
REMARK UNBOUND:                 0.265
REMARK  Name = =
REMARK  3 active torsions:
REMARK  status: ('A' for Active; 'I' for Inactive)
REMARK    1  A    between atoms: C_1  and  C_20
REMARK    2  A    between atoms: C_6  and  C_7
REMARK    3  A    between atoms: N_16  and  C_26
REMARK                            x       y       z     vdW  Elec       q    Type
REMARK                         _______ _______ _______ _____ _____    ______ ____
ROOT
ATOM      1  C   UNL     1      51.222 166.693  41.161  0.00  0.00    +0.055 C 
ATOM      2  C   UNL     1      50.988 166.691  42.443  0.00  0.00    -0.028 C 
ATOM      3  C   UNL     1      49.711 166.258  43.034  0.00  0.00    -0.031 C 
ATOM      4  C   UNL     1      48.718 165.910  42.230  0.00  0.00    +0.026 C 
ATOM      5  C   UNL     1      48.939 166.019  40.781  0.00  0.00    +0.009 C 
ATOM      6  C   UNL     1      50.322 165.665  40.401  0.00  0.00    +0.027 C 
ENDROOT
BRANCH   6   7
ATOM      7  C   UNL     1      50.726 164.339  40.998  0.00  0.00    -0.019 C 
ATOM      8  C   UNL     1      50.039 163.223  41.148  0.00  0.00    +0.011 C 
ATOM      9  C   UNL     1      50.830 162.245  41.761  0.00  0.00    +0.076 C 
ATOM     10  N   UNL     1      52.002 162.680  42.001  0.00  0.00    -0.266 NA
ATOM     11  C   UNL     1      52.099 164.027  41.540  0.00  0.00    +0.148 C 
ATOM     12  C   UNL     1      50.328 160.990  42.013  0.00  0.00    +0.019 C 
ATOM     13  C   UNL     1      49.036 160.706  41.650  0.00  0.00    +0.002 C 
ATOM     14  C   UNL     1      48.234 161.632  41.046  0.00  0.00    +0.000 C 
ATOM     15  C   UNL     1      48.737 162.914  40.789  0.00  0.00    +0.001 C 
ENDBRANCH   6   7
BRANCH   1  20
ATOM     16  N   UNL     1      53.476 167.779  41.104  0.00  0.00    -0.260 NA
ATOM     17  C   UNL     1      53.209 169.187  40.829  0.00  0.00    +0.090 C 
ATOM     18  C   UNL     1      52.846 169.156  39.383  0.00  0.00    +0.087 C 
ATOM     19  N   UNL     1      52.063 167.967  39.284  0.00  0.00    -0.284 NA
ATOM     20  C   UNL     1      52.387 167.140  40.451  0.00  0.00    +0.120 C 
ATOM     21  H   UNL     1      52.293 167.467  38.425  0.00  0.00    +0.124 HD
BRANCH  16  27
ATOM     22  C   UNL     1      55.952 167.950  41.022  0.00  0.00    +0.019 C 
ATOM     23  C   UNL     1      56.340 167.327  42.314  0.00  0.00    +0.020 C 
ATOM     24  C   UNL     1      56.712 165.880  42.062  0.00  0.00    +0.089 C 
ATOM     25  N   UNL     1      56.223 165.450  40.767  0.00  0.00    -0.217 NA
ATOM     26  C   UNL     1      54.811 165.849  40.674  0.00  0.00    +0.105 C 
ATOM     27  C   UNL     1      54.717 167.361  40.467  0.00  0.00    +0.076 C 
ENDBRANCH  16  27
ENDBRANCH   1  20
TORSDOF 3
ENDMDL
