REMARK  Name = =
REMARK  3 active torsions:
REMARK  status: ('A' for Active; 'I' for Inactive)
REMARK    1  A    between atoms: C_1  and  C_20
REMARK    2  A    between atoms: C_6  and  C_7
REMARK    3  A    between atoms: N_16  and  C_26
REMARK                            x       y       z     vdW  Elec       q    Type
REMARK                         _______ _______ _______ _____ _____    ______ ____
ROOT
ATOM      1  C   UNL     1      54.161 154.261  25.272  0.00  0.00    +0.055 C 
ATOM      2  C   UNL     1      53.485 154.039  24.180  0.00  0.00    -0.028 C 
ATOM      3  C   UNL     1      53.817 152.971  23.223  0.00  0.00    -0.031 C 
ATOM      4  C   UNL     1      54.893 152.230  23.438  0.00  0.00    +0.026 C 
ATOM      5  C   UNL     1      55.724 152.551  24.607  0.00  0.00    +0.009 C 
ATOM      6  C   UNL     1      54.914 152.982  25.764  0.00  0.00    +0.027 C 
ENDROOT
BRANCH   6   7
ATOM      7  C   UNL     1      53.796 152.005  26.038  0.00  0.00    -0.019 C 
ATOM      8  C   UNL     1      53.629 150.760  25.633  0.00  0.00    +0.011 C 
ATOM      9  C   UNL     1      52.431 150.242  26.138  0.00  0.00    +0.076 C 
ATOM     10  N   UNL     1      51.826 151.097  26.862  0.00  0.00    -0.266 NA
ATOM     11  C   UNL     1      52.602 152.293  26.913  0.00  0.00    +0.148 C 
ATOM     12  C   UNL     1      52.048 148.953  25.856  0.00  0.00    +0.019 C 
ATOM     13  C   UNL     1      52.861 148.174  25.071  0.00  0.00    +0.002 C 
ATOM     14  C   UNL     1      54.039 148.642  24.563  0.00  0.00    +0.000 C 
ATOM     15  C   UNL     1      54.436 149.956  24.844  0.00  0.00    +0.001 C 
ENDBRANCH   6   7
BRANCH   1  20
ATOM     16  N   UNL     1      52.704 155.742  26.667  0.00  0.00    -0.260 NA
ATOM     17  C   UNL     1      52.541 156.960  25.881  0.00  0.00    +0.090 C 
ATOM     18  C   UNL     1      53.876 157.608  26.036  0.00  0.00    +0.087 C 
ATOM     19  N   UNL     1      54.771 156.499  25.961  0.00  0.00    -0.284 NA
ATOM     20  C   UNL     1      53.988 155.294  26.254  0.00  0.00    +0.120 C 
ATOM     21  H   UNL     1      55.519 156.606  26.646  0.00  0.00    +0.124 HD
BRANCH  16  27
ATOM     22  C   UNL     1      51.644 156.891  28.597  0.00  0.00    +0.019 C 
ATOM     23  C   UNL     1      50.382 156.122  28.750  0.00  0.00    +0.020 C 
ATOM     24  C   UNL     1      50.576 155.083  29.835  0.00  0.00    +0.089 C 
ATOM     25  N   UNL     1      51.987 154.896  30.110  0.00  0.00    -0.217 NA
ATOM     26  C   UNL     1      52.668 154.714  28.820  0.00  0.00    +0.105 C 
ATOM     27  C   UNL     1      52.750 156.054  28.089  0.00  0.00    +0.076 C 
ENDBRANCH  16  27
ENDBRANCH   1  20
TORSDOF 3
