REMARK  Name = =
REMARK  2 active torsions:
REMARK  status: ('A' for Active; 'I' for Inactive)
REMARK    1  A    between atoms: C_1  and  N_3
REMARK    2  A    between atoms: C_1  and  O_4
REMARK                            x       y       z     vdW  Elec       q    Type
REMARK                         _______ _______ _______ _____ _____    ______ ____
ROOT
ATOM      1  C   UNL     1      51.679 156.031  29.506  0.00  0.00    +0.223 C 
ATOM      2  S   UNL     1      50.985 157.478  29.665  0.00  0.00    +0.005 S 
ENDROOT
BRANCH   1   3
ATOM      3  N   UNL     1      52.692 155.874  28.546  0.00  0.00    -0.323 N 
ATOM      4  H   UNL     1      52.963 156.638  27.987  0.00  0.00    +0.146 HD
ATOM      5  H   UNL     1      53.131 155.000  28.432  0.00  0.00    +0.146 HD
ENDBRANCH   1   3
BRANCH   1   6
ATOM      6  O   UNL     1      51.305 154.967  30.280  0.00  0.00    -0.490 OA
ATOM      7  H   UNL     1      50.629 155.069  30.921  0.00  0.00    +0.294 HD
ENDBRANCH   1   6
TORSDOF 2
