REMARK  Name = =
REMARK  2 active torsions:
REMARK  status: ('A' for Active; 'I' for Inactive)
REMARK    1  A    between atoms: O_1  and  N_2
REMARK    2  A    between atoms: O_1  and  C_3
REMARK                            x       y       z     vdW  Elec       q    Type
REMARK                         _______ _______ _______ _____ _____    ______ ____
ROOT
ATOM      1  O   UNL     1      51.249 155.222  28.752  0.00  0.00    -0.364 OA
ENDROOT
BRANCH   1   2
ATOM      2  N   UNL     1      50.507 156.101  29.534  0.00  0.00    -0.165 NA
ATOM      3  H   UNL     1      49.663 155.633  29.864  0.00  0.00    +0.163 HD
ATOM      4  H   UNL     1      50.248 156.916  28.977  0.00  0.00    +0.163 HD
ENDBRANCH   1   2
BRANCH   1   5
ATOM      5  C   UNL     1      52.432 155.669  28.209  0.00  0.00    +0.437 C 
ATOM      6  O   UNL     1      52.856 156.817  28.439  0.00  0.00    -0.236 OA
ENDBRANCH   1   5
TORSDOF 2
