REMARK  Name = =
REMARK  5 active torsions:
REMARK  status: ('A' for Active; 'I' for Inactive)
REMARK    1  A    between atoms: C_1  and  O_24
REMARK    2  A    between atoms: N_3  and  C_6
REMARK    3  A    between atoms: C_4  and  C_17
REMARK    4  A    between atoms: C_20  and  O_23
REMARK    5  A    between atoms: O_24  and  N_25
REMARK                            x       y       z     vdW  Elec       q    Type
REMARK                         _______ _______ _______ _____ _____    ______ ____
ROOT
ATOM      1  C   UNL     1      51.504 157.967  29.873  0.00  0.00    +0.433 C 
ATOM      2  O   UNL     1      52.689 157.560  29.508  0.00  0.00    -0.224 OA
ATOM      3  N   UNL     1      51.418 159.297  30.312  0.00  0.00    -0.169 N 
ATOM      4  C   UNL     1      50.387 160.084  30.778  0.00  0.00    +0.261 C 
ATOM      5  O   UNL     1      50.832 161.240  31.270  0.00  0.00    -0.269 OA
ENDROOT
BRANCH   3   6
ATOM      6  C   UNL     1      52.748 159.946  30.322  0.00  0.00    +0.064 C 
ATOM      7  C   UNL     1      53.821 159.337  29.709  0.00  0.00    +0.017 C 
ATOM      8  C   UNL     1      55.073 159.912  29.699  0.00  0.00    +0.016 C 
ATOM      9  C   UNL     1      55.246 161.123  30.319  0.00  0.00    +0.051 C 
ATOM     10  C   UNL     1      54.191 161.764  30.943  0.00  0.00    +0.054 C 
ATOM     11  C   UNL     1      52.942 161.152  30.932  0.00  0.00    +0.020 C 
ATOM     12  C   UNL     1      54.372 162.985  31.567  0.00  0.00    +0.198 C 
ATOM     13  O   UNL     1      53.402 163.572  32.139  0.00  0.00    -0.286 OA
ATOM     14  C   UNL     1      55.614 163.579  31.570  0.00  0.00    +0.058 C 
ATOM     15  C   UNL     1      56.653 162.927  30.943  0.00  0.00    +0.065 C 
ATOM     16  N   UNL     1      56.454 161.727  30.336  0.00  0.00    -0.311 N 
ATOM     17  H   UNL     1      57.215 161.284  29.895  0.00  0.00    +0.152 HD
ENDBRANCH   3   6
BRANCH   4  18
ATOM     18  C   UNL     1      48.963 159.958  30.861  0.00  0.00    +0.055 C 
ATOM     19  C   UNL     1      48.294 159.184  31.766  0.00  0.00    +0.008 C 
ATOM     20  C   UNL     1      46.888 159.171  31.843  0.00  0.00    +0.037 C 
ATOM     21  C   UNL     1      46.138 159.945  30.994  0.00  0.00    +0.134 C 
ATOM     22  C   UNL     1      46.797 160.726  30.076  0.00  0.00    +0.037 C 
ATOM     23  C   UNL     1      48.168 160.736  30.007  0.00  0.00    +0.008 C 
BRANCH  21  24
ATOM     24  O   UNL     1      44.744 159.918  31.085  0.00  0.00    -0.506 OA
ATOM     25  H   UNL     1      44.327 159.374  31.723  0.00  0.00    +0.292 HD
ENDBRANCH  21  24
ENDBRANCH   4  18
BRANCH   1  26
ATOM     26  O   UNL     1      50.541 157.013  29.770  0.00  0.00    -0.357 OA
BRANCH  26  27
ATOM     27  N   UNL     1      50.767 155.811  29.164  0.00  0.00    -0.164 NA
ATOM     28  H   UNL     1      49.917 155.249  29.197  0.00  0.00    +0.163 HD
ATOM     29  H   UNL     1      51.518 155.321  29.650  0.00  0.00    +0.163 HD
ENDBRANCH  26  27
ENDBRANCH   1  26
TORSDOF 5
