REMARK  Name = =
REMARK  11 active torsions:
REMARK  status: ('A' for Active; 'I' for Inactive)
REMARK    1  A    between atoms: C_1  and  N_14
REMARK    2  A    between atoms: C_2  and  N_27
REMARK    3  A    between atoms: C_12  and  O_13
REMARK    4  A    between atoms: C_12  and  N_14
REMARK    5  A    between atoms: C_12  and  O_25
REMARK    6  A    between atoms: C_15  and  C_17
REMARK    7  A    between atoms: C_18  and  S_23
REMARK    8  A    between atoms: C_20  and  O_24
REMARK    9  A    between atoms: O_25  and  N_26
REMARK   10  A    between atoms: N_27  and  N_28
REMARK   11  A    between atoms: C_29  and  O_31
REMARK                            x       y       z     vdW  Elec       q    Type
REMARK                         _______ _______ _______ _____ _____    ______ ____
ROOT
ATOM      1  N   UNL     1      52.438 160.758  30.879  0.00  0.00    -0.205 N 
ATOM      2  C   UNL     1      51.299 161.501  31.242  0.00  0.00    +0.257 C 
ATOM      3  O   UNL     1      51.498 162.657  31.765  0.00  0.00    -0.269 OA
ENDROOT
BRANCH   1   4
ATOM      4  C   UNL     1      52.295 159.481  30.285  0.00  0.00    +0.075 C 
ATOM      5  C   UNL     1      53.386 158.906  29.604  0.00  0.00    +0.102 C 
ATOM      6  C   UNL     1      53.176 157.670  29.058  0.00  0.00    +0.034 C 
ATOM      7  C   UNL     1      51.983 156.990  29.146  0.00  0.00    +0.053 C 
ATOM      8  C   UNL     1      50.930 157.582  29.820  0.00  0.00    +0.054 C 
ATOM      9  C   UNL     1      51.088 158.838  30.395  0.00  0.00    +0.021 C 
ATOM     10  C   UNL     1      49.717 156.948  29.935  0.00  0.00    +0.198 C 
ATOM     11  O   UNL     1      48.773 157.504  30.554  0.00  0.00    -0.286 OA
ATOM     12  C   UNL     1      49.539 155.693  29.365  0.00  0.00    +0.058 C 
ATOM     13  C   UNL     1      50.610 155.124  28.695  0.00  0.00    +0.065 C 
ATOM     14  N   UNL     1      51.784 155.777  28.604  0.00  0.00    -0.311 N 
ATOM     15  H   UNL     1      52.527 155.348  28.121  0.00  0.00    +0.152 HD
BRANCH   5  16
ATOM     16  N   UNL     1      54.583 159.626  29.537  0.00  0.00    -0.144 NA
BRANCH  16  17
ATOM     17  N   UNL     1      55.694 159.188  28.819  0.00  0.00    -0.181 N 
ATOM     18  C   UNL     1      56.511 160.080  28.074  0.00  0.00    +0.416 C 
ATOM     19  O   UNL     1      56.205 161.323  28.071  0.00  0.00    -0.225 OA
ATOM     20  H   UNL     1      55.920 158.230  28.828  0.00  0.00    +0.178 HD
BRANCH  18  21
ATOM     21  O   UNL     1      57.621 159.709  27.344  0.00  0.00    -0.465 OA
ATOM     22  H   UNL     1      57.884 158.810  27.316  0.00  0.00    +0.297 HD
ENDBRANCH  18  21
ENDBRANCH  16  17
ENDBRANCH   5  16
ENDBRANCH   1   4
BRANCH   2  23
ATOM     23  C   UNL     1      49.918 161.092  31.084  0.00  0.00    +0.060 C 
ATOM     24  C   UNL     1      49.175 160.773  32.190  0.00  0.00    +0.029 C 
ATOM     25  C   UNL     1      47.855 160.386  32.042  0.00  0.00    +0.043 C 
ATOM     26  C   UNL     1      47.258 160.310  30.798  0.00  0.00    +0.134 C 
ATOM     27  C   UNL     1      48.028 160.634  29.719  0.00  0.00    +0.037 C 
ATOM     28  C   UNL     1      49.337 161.019  29.846  0.00  0.00    +0.008 C 
BRANCH  24  29
ATOM     29  S   UNL     1      49.813 160.837  33.861  0.00  0.00    -0.141 S 
ATOM     30  H   UNL     1      51.114 161.232  33.835  0.00  0.00    +0.107 HD
ENDBRANCH  24  29
BRANCH  26  31
ATOM     31  O   UNL     1      45.931 159.918  30.677  0.00  0.00    -0.505 OA
ATOM     32  H   UNL     1      45.434 159.703  31.442  0.00  0.00    +0.292 HD
ENDBRANCH  26  31
ENDBRANCH   2  23
BRANCH   1  33
ATOM     33  C   UNL     1      53.736 161.274  31.087  0.00  0.00    +0.345 C 
BRANCH  33  34
ATOM     34  O   UNL     1      54.766 160.587  30.737  0.00  0.00    -0.343 OA
ATOM     35  H   UNL     1      55.572 161.083  30.949  0.00  0.00    +0.215 HD
ENDBRANCH  33  34
BRANCH  33  36
ATOM     36  O   UNL     1      54.011 162.503  31.656  0.00  0.00    -0.242 OA
BRANCH  36  37
ATOM     37  N   UNL     1      55.232 162.910  32.119  0.00  0.00    -0.210 NA
ATOM     38  H   UNL     1      55.157 163.858  32.488  0.00  0.00    +0.150 HD
ATOM     39  H   UNL     1      55.908 162.895  31.355  0.00  0.00    +0.150 HD
ENDBRANCH  36  37
ENDBRANCH  33  36
ENDBRANCH   1  33
TORSDOF 11
