REMARK  Name = =
REMARK  10 active torsions:
REMARK  status: ('A' for Active; 'I' for Inactive)
REMARK    1  A    between atoms: C_1  and  N_14
REMARK    2  A    between atoms: C_2  and  N_27
REMARK    3  A    between atoms: C_12  and  O_25
REMARK    4  A    between atoms: C_15  and  C_17
REMARK    5  A    between atoms: C_18  and  S_23
REMARK    6  A    between atoms: C_20  and  O_24
REMARK    7  A    between atoms: O_25  and  N_26
REMARK    8  A    between atoms: N_27  and  N_28
REMARK    9  A    between atoms: N_27  and  O_32
REMARK   10  A    between atoms: C_29  and  O_31
REMARK                            x       y       z     vdW  Elec       q    Type
REMARK                         _______ _______ _______ _____ _____    ______ ____
ROOT
ATOM      1  C   UNL     1      51.207 158.729  29.650  0.00  0.00    +0.084 C 
ATOM      2  C   UNL     1      50.617 157.498  29.737  0.00  0.00    +0.118 C 
ATOM      3  C   UNL     1      49.237 157.416  30.021  0.00  0.00    +0.037 C 
ATOM      4  C   UNL     1      48.492 158.552  30.208  0.00  0.00    +0.053 C 
ATOM      5  C   UNL     1      49.082 159.794  30.121  0.00  0.00    +0.054 C 
ATOM      6  C   UNL     1      50.412 159.849  29.848  0.00  0.00    +0.021 C 
ATOM      7  C   UNL     1      48.284 160.903  30.320  0.00  0.00    +0.198 C 
ATOM      8  O   UNL     1      48.805 162.043  30.246  0.00  0.00    -0.286 OA
ATOM      9  C   UNL     1      46.938 160.833  30.599  0.00  0.00    +0.058 C 
ATOM     10  C   UNL     1      46.398 159.562  30.674  0.00  0.00    +0.065 C 
ATOM     11  N   UNL     1      47.155 158.471  30.484  0.00  0.00    -0.311 N 
ATOM     12  H   UNL     1      46.734 157.583  30.545  0.00  0.00    +0.152 HD
ENDROOT
BRANCH   1  15
ATOM     13  C   UNL     1      53.267 157.921  28.561  0.00  0.00    +0.433 C 
ATOM     14  O   UNL     1      54.475 158.034  28.320  0.00  0.00    -0.224 OA
ATOM     15  N   UNL     1      52.612 158.873  29.392  0.00  0.00    -0.168 N 
ATOM     16  C   UNL     1      53.393 159.901  29.953  0.00  0.00    +0.262 C 
ATOM     17  O   UNL     1      54.614 159.979  29.694  0.00  0.00    -0.269 OA
BRANCH  16  18
ATOM     18  C   UNL     1      52.808 160.888  30.842  0.00  0.00    +0.060 C 
ATOM     19  C   UNL     1      53.284 162.178  30.912  0.00  0.00    +0.029 C 
ATOM     20  C   UNL     1      52.692 163.074  31.767  0.00  0.00    +0.043 C 
ATOM     21  C   UNL     1      51.621 162.732  32.576  0.00  0.00    +0.134 C 
ATOM     22  C   UNL     1      51.127 161.443  32.524  0.00  0.00    +0.037 C 
ATOM     23  C   UNL     1      51.731 160.560  31.664  0.00  0.00    +0.008 C 
BRANCH  19  24
ATOM     24  S   UNL     1      54.681 162.697  29.915  0.00  0.00    -0.141 S 
ATOM     25  H   UNL     1      55.103 161.655  29.149  0.00  0.00    +0.107 HD
ENDBRANCH  19  24
BRANCH  21  26
ATOM     26  O   UNL     1      51.062 163.664  33.414  0.00  0.00    -0.505 OA
ATOM     27  H   UNL     1      51.405 164.535  33.441  0.00  0.00    +0.292 HD
ENDBRANCH  21  26
ENDBRANCH  16  18
BRANCH  13  28
ATOM     28  O   UNL     1      52.548 156.880  28.032  0.00  0.00    -0.357 OA
BRANCH  28  29
ATOM     29  N   UNL     1      52.979 156.268  26.886  0.00  0.00    -0.164 NA
ATOM     30  H   UNL     1      52.331 155.521  26.635  0.00  0.00    +0.163 HD
ATOM     31  H   UNL     1      53.908 155.875  27.039  0.00  0.00    +0.163 HD
ENDBRANCH  28  29
ENDBRANCH  13  28
ENDBRANCH   1  15
BRANCH   2  32
ATOM     32  N   UNL     1      51.328 156.288  29.549  0.00  0.00    -0.163 N 
BRANCH  32  33
ATOM     33  N   UNL     1      50.910 155.394  28.570  0.00  0.00    -0.168 N 
ATOM     34  C   UNL     1      51.336 154.032  28.536  0.00  0.00    +0.418 C 
ATOM     35  O   UNL     1      52.129 153.635  29.439  0.00  0.00    -0.225 OA
ATOM     36  H   UNL     1      50.295 155.713  27.871  0.00  0.00    +0.181 HD
BRANCH  34  37
ATOM     37  O   UNL     1      50.910 153.153  27.559  0.00  0.00    -0.465 OA
ATOM     38  H   UNL     1      50.323 153.445  26.890  0.00  0.00    +0.297 HD
ENDBRANCH  34  37
ENDBRANCH  32  33
BRANCH  32  39
ATOM     39  O   UNL     1      52.396 156.000  30.294  0.00  0.00    -0.269 OA
ATOM     40  H   UNL     1      52.554 156.720  30.925  0.00  0.00    +0.246 HD
ENDBRANCH  32  39
ENDBRANCH   2  32
TORSDOF 10
