REMARK  Name = =
REMARK  11 active torsions:
REMARK  status: ('A' for Active; 'I' for Inactive)
REMARK    1  A    between atoms: C_1  and  N_14
REMARK    2  A    between atoms: C_2  and  N_27
REMARK    3  A    between atoms: C_12  and  O_25
REMARK    4  A    between atoms: C_15  and  C_17
REMARK    5  A    between atoms: C_18  and  S_23
REMARK    6  A    between atoms: C_20  and  O_24
REMARK    7  A    between atoms: O_25  and  N_26
REMARK    8  A    between atoms: N_27  and  N_28
REMARK    9  A    between atoms: N_27  and  O_32
REMARK   10  A    between atoms: C_29  and  O_31
REMARK   11  A    between atoms: O_32  and  N_33
REMARK                            x       y       z     vdW  Elec       q    Type
REMARK                         _______ _______ _______ _____ _____    ______ ____
ROOT
ATOM      1  C   UNL     1      51.284 158.863  30.174  0.00  0.00    +0.084 C 
ATOM      2  C   UNL     1      52.360 158.295  29.577  0.00  0.00    +0.121 C 
ATOM      3  C   UNL     1      53.553 159.019  29.543  0.00  0.00    +0.037 C 
ATOM      4  C   UNL     1      53.672 160.276  30.086  0.00  0.00    +0.053 C 
ATOM      5  C   UNL     1      52.571 160.865  30.698  0.00  0.00    +0.054 C 
ATOM      6  C   UNL     1      51.389 160.132  30.725  0.00  0.00    +0.021 C 
ATOM      7  C   UNL     1      52.630 162.121  31.260  0.00  0.00    +0.198 C 
ATOM      8  O   UNL     1      51.631 162.668  31.820  0.00  0.00    -0.286 OA
ATOM      9  C   UNL     1      53.844 162.785  31.195  0.00  0.00    +0.058 C 
ATOM     10  C   UNL     1      54.907 162.183  30.590  0.00  0.00    +0.065 C 
ATOM     11  N   UNL     1      54.839 160.955  30.042  0.00  0.00    -0.311 N 
ATOM     12  H   UNL     1      55.631 160.556  29.614  0.00  0.00    +0.152 HD
ENDROOT
BRANCH   1  15
ATOM     13  C   UNL     1      49.915 157.017  29.339  0.00  0.00    +0.433 C 
ATOM     14  O   UNL     1      50.821 156.653  28.536  0.00  0.00    -0.224 OA
ATOM     15  N   UNL     1      50.071 158.128  30.212  0.00  0.00    -0.168 N 
ATOM     16  C   UNL     1      49.028 158.478  31.088  0.00  0.00    +0.262 C 
ATOM     17  O   UNL     1      47.995 157.694  31.047  0.00  0.00    -0.269 OA
BRANCH  16  18
ATOM     18  C   UNL     1      48.970 159.579  32.006  0.00  0.00    +0.060 C 
ATOM     19  C   UNL     1      48.432 160.782  31.588  0.00  0.00    +0.029 C 
ATOM     20  C   UNL     1      48.394 161.875  32.463  0.00  0.00    +0.043 C 
ATOM     21  C   UNL     1      48.874 161.784  33.730  0.00  0.00    +0.134 C 
ATOM     22  C   UNL     1      49.414 160.597  34.175  0.00  0.00    +0.037 C 
ATOM     23  C   UNL     1      49.446 159.519  33.287  0.00  0.00    +0.008 C 
BRANCH  19  24
ATOM     24  S   UNL     1      47.731 161.015  29.975  0.00  0.00    -0.141 S 
ATOM     25  H   UNL     1      47.850 159.865  29.259  0.00  0.00    +0.107 HD
ENDBRANCH  19  24
BRANCH  21  26
ATOM     26  O   UNL     1      48.809 162.911  34.568  0.00  0.00    -0.505 OA
ATOM     27  H   UNL     1      48.439 163.711  34.250  0.00  0.00    +0.292 HD
ENDBRANCH  21  26
ENDBRANCH  16  18
BRANCH  13  28
ATOM     28  O   UNL     1      48.745 156.286  29.348  0.00  0.00    -0.357 OA
BRANCH  28  29
ATOM     29  N   UNL     1      48.568 155.037  28.811  0.00  0.00    -0.164 NA
ATOM     30  H   UNL     1      47.605 154.736  28.961  0.00  0.00    +0.163 HD
ATOM     31  H   UNL     1      49.204 154.380  29.263  0.00  0.00    +0.163 HD
ENDBRANCH  28  29
ENDBRANCH  13  28
ENDBRANCH   1  15
BRANCH   2  32
ATOM     32  N   UNL     1      52.351 157.034  28.979  0.00  0.00    -0.135 N 
BRANCH  32  33
ATOM     33  N   UNL     1      52.065 156.985  27.594  0.00  0.00    -0.166 N 
ATOM     34  C   UNL     1      53.163 156.929  26.689  0.00  0.00    +0.418 C 
ATOM     35  O   UNL     1      54.372 156.923  27.063  0.00  0.00    -0.225 OA
ATOM     36  H   UNL     1      51.137 156.989  27.267  0.00  0.00    +0.181 HD
BRANCH  34  37
ATOM     37  O   UNL     1      52.892 156.882  25.316  0.00  0.00    -0.465 OA
ATOM     38  H   UNL     1      52.005 156.885  25.013  0.00  0.00    +0.297 HD
ENDBRANCH  34  37
ENDBRANCH  32  33
BRANCH  32  39
ATOM     39  O   UNL     1      52.603 155.859  29.617  0.00  0.00    -0.125 OA
BRANCH  39  40
ATOM     40  N   UNL     1      52.555 154.657  28.928  0.00  0.00    -0.168 N 
ATOM     41  C   UNL     1      53.540 153.807  28.605  0.00  0.00    +0.207 C 
ATOM     42  N   UNL     1      53.065 152.748  27.916  0.00  0.00    -0.220 NA
ATOM     43  C   UNL     1      51.743 152.911  27.785  0.00  0.00    +0.122 C 
ATOM     44  C   UNL     1      51.436 154.117  28.427  0.00  0.00    +0.130 C 
ENDBRANCH  39  40
ENDBRANCH  32  39
ENDBRANCH   2  32
TORSDOF 11
