REMARK  Name = =
REMARK  0 active torsions:
REMARK  status: ('A' for Active; 'I' for Inactive)
REMARK                            x       y       z     vdW  Elec       q    Type
REMARK                         _______ _______ _______ _____ _____    ______ ____
ROOT
ATOM      1  C   UNL     1      52.094 155.973  28.314  0.00  0.00    -0.031 C 
ATOM      2  C   UNL     1      52.757 156.028  27.175  0.00  0.00    -0.031 C 
ATOM      3  C   UNL     1      53.041 154.905  26.284  0.00  0.00    +0.026 C 
ATOM      4  C   UNL     1      52.138 153.739  26.695  0.00  0.00    +0.005 C 
ATOM      5  C   UNL     1      52.356 153.581  28.197  0.00  0.00    +0.005 C 
ATOM      6  C   UNL     1      51.533 154.694  28.841  0.00  0.00    +0.026 C 
ENDROOT
TORSDOF 0
