REMARK  Name = =
REMARK  4 active torsions:
REMARK  status: ('A' for Active; 'I' for Inactive)
REMARK    1  A    between atoms: O_1  and  C_10
REMARK    2  A    between atoms: O_1  and  C_14
REMARK    3  A    between atoms: C_12  and  O_13
REMARK    4  A    between atoms: C_19  and  N_20
REMARK                            x       y       z     vdW  Elec       q    Type
REMARK                         _______ _______ _______ _____ _____    ______ ____
ROOT
ATOM      1  O   UNL     1      52.154 156.988  28.071  0.00  0.00    -0.456 OA
ENDROOT
BRANCH   1  10
ATOM      2  O   UNL     1      55.065 155.859  24.357  0.00  0.00    -0.475 OA
ATOM      3  C   UNL     1      55.012 155.127  23.141  0.00  0.00    +0.214 C 
ATOM      4  C   UNL     1      55.000 153.631  23.346  0.00  0.00    +0.117 C 
ATOM      5  C   UNL     1      54.773 153.241  24.734  0.00  0.00    +0.183 C 
ATOM      6  O   UNL     1      55.159 152.152  25.186  0.00  0.00    -0.291 OA
ATOM      7  C   UNL     1      54.063 154.164  25.635  0.00  0.00    +0.103 C 
ATOM      8  C   UNL     1      54.234 155.528  25.416  0.00  0.00    +0.147 C 
ATOM      9  C   UNL     1      53.606 156.447  26.217  0.00  0.00    +0.075 C 
ATOM     10  C   UNL     1      52.786 156.065  27.263  0.00  0.00    +0.151 C 
ATOM     11  C   UNL     1      52.640 154.712  27.449  0.00  0.00    +0.074 C 
ATOM     12  C   UNL     1      53.260 153.748  26.658  0.00  0.00    +0.142 C 
BRANCH  12  13
ATOM     13  O   UNL     1      53.074 152.408  26.891  0.00  0.00    -0.505 OA
ATOM     14  H   UNL     1      53.500 151.774  26.348  0.00  0.00    +0.292 HD
ENDBRANCH  12  13
ENDBRANCH   1  10
BRANCH   1  15
ATOM     15  C   UNL     1      50.971 156.705  28.692  0.00  0.00    +0.136 C 
ATOM     16  C   UNL     1      50.300 155.589  28.370  0.00  0.00    +0.008 C 
ATOM     17  C   UNL     1      49.034 155.335  29.070  0.00  0.00    +0.029 C 
ATOM     18  C   UNL     1      49.076 155.601  30.539  0.00  0.00    +0.007 C 
ATOM     19  C   UNL     1      50.093 156.646  30.935  0.00  0.00    +0.028 C 
ATOM     20  C   UNL     1      50.328 157.552  29.733  0.00  0.00    +0.132 C 
BRANCH  20  21
ATOM     21  N   UNL     1      51.075 158.724  30.053  0.00  0.00    -0.274 N 
ATOM     22  C   UNL     1      50.352 159.912  30.510  0.00  0.00    +0.094 C 
ATOM     23  C   UNL     1      51.064 161.176  30.084  0.00  0.00    +0.022 C 
ATOM     24  C   UNL     1      52.476 161.205  30.579  0.00  0.00    +0.011 C 
ATOM     25  C   UNL     1      53.233 160.077  29.898  0.00  0.00    +0.085 C 
ATOM     26  C   UNL     1      52.470 158.794  29.951  0.00  0.00    +0.226 C 
ATOM     27  O   UNL     1      53.150 157.736  29.900  0.00  0.00    -0.275 OA
ENDBRANCH  20  21
ENDBRANCH   1  15
TORSDOF 4
