MODEL 1
REMARK VINA RESULT:    -6.201      0.000      0.000
REMARK INTER + INTRA:          -7.207
REMARK INTER:                  -7.470
REMARK INTRA:                   0.263
REMARK UNBOUND:                 0.263
REMARK  Name = =
REMARK  5 active torsions:
REMARK  status: ('A' for Active; 'I' for Inactive)
REMARK    1  A    between atoms: C_2  and  N_28
REMARK    2  A    between atoms: N_28  and  N_32
REMARK    3  A    between atoms: N_31  and  N_38
REMARK    4  A    between atoms: N_32  and  O_37
REMARK    5  A    between atoms: N_35  and  N_36
REMARK                            x       y       z     vdW  Elec       q    Type
REMARK                         _______ _______ _______ _____ _____    ______ ____
ROOT
ATOM      1  N   UNL     1      59.221 161.847  42.108  0.00  0.00    -0.257 NA
ATOM      2  C   UNL     1      59.655 162.597  41.006  0.00  0.00    +0.143 C 
ATOM      3  C   UNL     1      58.506 163.571  40.794  0.00  0.00    +0.038 C 
ATOM      4  C   UNL     1      57.779 163.656  42.094  0.00  0.00    +0.021 C 
ATOM      5  C   UNL     1      58.554 162.740  43.033  0.00  0.00    +0.074 C 
ATOM      6  C   UNL     1      60.871 163.443  41.426  0.00  0.00    +0.104 C 
ATOM      7  N   UNL     1      60.513 164.818  41.602  0.00  0.00    -0.295 NA
ATOM      8  C   UNL     1      61.066 165.731  40.653  0.00  0.00    +0.069 C 
ATOM      9  C   UNL     1      60.422 167.092  40.890  0.00  0.00    +0.017 C 
ATOM     10  C   UNL     1      59.490 167.500  39.784  0.00  0.00    +0.003 C 
ATOM     11  C   UNL     1      58.251 168.215  40.312  0.00  0.00    +0.017 C 
ATOM     12  C   UNL     1      56.981 167.435  40.033  0.00  0.00    +0.069 C 
ATOM     13  N   UNL     1      56.318 167.196  41.298  0.00  0.00    -0.296 NA
ATOM     14  C   UNL     1      54.885 167.152  41.204  0.00  0.00    +0.086 C 
ATOM     15  C   UNL     1      54.461 165.683  41.310  0.00  0.00    +0.089 C 
ATOM     16  N   UNL     1      53.155 165.609  41.887  0.00  0.00    -0.271 NA
ATOM     17  C   UNL     1      52.665 164.291  42.063  0.00  0.00    +0.073 C 
ATOM     18  C   UNL     1      51.187 164.296  41.760  0.00  0.00    +0.019 C 
ATOM     19  C   UNL     1      50.958 165.579  40.997  0.00  0.00    +0.019 C 
ATOM     20  C   UNL     1      52.183 166.420  41.241  0.00  0.00    +0.072 C 
ATOM     21  C   UNL     1      53.392 163.259  41.264  0.00  0.00    +0.085 C 
ATOM     22  N   UNL     1      53.283 161.943  41.882  0.00  0.00    -0.295 NA
ATOM     23  C   UNL     1      54.314 161.100  41.314  0.00  0.00    +0.086 C 
ATOM     24  C   UNL     1      55.234 160.662  42.404  0.00  0.00    +0.086 C 
ATOM     25  N   UNL     1      56.289 159.784  41.969  0.00  0.00    -0.295 NA
ATOM     26  C   UNL     1      57.335 160.482  41.226  0.00  0.00    +0.086 C 
ATOM     27  C   UNL     1      58.619 160.593  41.959  0.00  0.00    +0.091 C 
ATOM     28  H   UNL     1      59.497 164.886  41.547  0.00  0.00    +0.123 HD
ATOM     29  H   UNL     1      56.575 167.944  41.942  0.00  0.00    +0.123 HD
ATOM     30  H   UNL     1      52.363 161.545  41.690  0.00  0.00    +0.123 HD
ATOM     31  H   UNL     1      55.887 159.065  41.368  0.00  0.00    +0.123 HD
ENDROOT
BRANCH   2  32
ATOM     32  N   UNL     1      59.975 161.921  39.799  0.00  0.00    -0.152 N 
ATOM     33  C   UNL     1      60.958 160.939  39.592  0.00  0.00    +0.336 C 
ATOM     34  O   UNL     1      61.112 160.432  38.423  0.00  0.00    -0.250 OA
ATOM     35  N   UNL     1      61.789 160.496  40.656  0.00  0.00    -0.236 N 
ATOM     36  H   UNL     1      61.654 160.895  41.546  0.00  0.00    +0.170 HD
BRANCH  32  37
ATOM     37  N   UNL     1      59.207 162.280  38.647  0.00  0.00    -0.070 N 
ATOM     38  C   UNL     1      60.023 163.117  37.805  0.00  0.00    +0.356 C 
ATOM     39  O   UNL     1      61.207 163.430  38.121  0.00  0.00    -0.247 OA
ATOM     40  N   UNL     1      59.511 163.617  36.581  0.00  0.00    -0.234 N 
ATOM     41  H   UNL     1      58.594 163.397  36.297  0.00  0.00    +0.170 HD
BRANCH  40  42
ATOM     42  N   UNL     1      60.325 164.427  35.783  0.00  0.00    -0.253 NA
ATOM     43  H   UNL     1      60.819 165.098  36.372  0.00  0.00    +0.141 HD
ATOM     44  H   UNL     1      59.748 164.929  35.106  0.00  0.00    +0.141 HD
ENDBRANCH  40  42
BRANCH  37  45
ATOM     45  O   UNL     1      58.805 161.169  38.011  0.00  0.00    -0.273 OA
ATOM     46  H   UNL     1      57.837 161.111  38.043  0.00  0.00    +0.244 HD
ENDBRANCH  37  45
ENDBRANCH  32  37
BRANCH  35  47
ATOM     47  N   UNL     1      62.770 159.542  40.518  0.00  0.00    -0.253 NA
ATOM     48  H   UNL     1      63.372 159.553  41.340  0.00  0.00    +0.141 HD
ATOM     49  H   UNL     1      63.325 159.743  39.686  0.00  0.00    +0.141 HD
ENDBRANCH  35  47
ENDBRANCH   2  32
TORSDOF 5
ENDMDL
