REMARK  Name = =
REMARK  5 active torsions:
REMARK  status: ('A' for Active; 'I' for Inactive)
REMARK    1  A    between atoms: C_2  and  N_28
REMARK    2  A    between atoms: N_28  and  N_32
REMARK    3  A    between atoms: N_31  and  N_38
REMARK    4  A    between atoms: N_32  and  O_37
REMARK    5  A    between atoms: N_35  and  N_36
REMARK                            x       y       z     vdW  Elec       q    Type
REMARK                         _______ _______ _______ _____ _____    ______ ____
ROOT
ATOM      1  N   UNL     1      50.219 160.960  30.574  0.00  0.00    -0.257 NA
ATOM      2  C   UNL     1      51.514 161.182  31.063  0.00  0.00    +0.143 C 
ATOM      3  C   UNL     1      52.333 160.139  30.318  0.00  0.00    +0.038 C 
ATOM      4  C   UNL     1      51.555 159.785  29.096  0.00  0.00    +0.021 C 
ATOM      5  C   UNL     1      50.311 160.662  29.160  0.00  0.00    +0.074 C 
ATOM      6  C   UNL     1      52.005 162.556  30.570  0.00  0.00    +0.104 C 
ATOM      7  N   UNL     1      52.956 162.418  29.508  0.00  0.00    -0.295 NA
ATOM      8  C   UNL     1      54.294 162.812  29.817  0.00  0.00    +0.069 C 
ATOM      9  C   UNL     1      55.177 162.414  28.640  0.00  0.00    +0.017 C 
ATOM     10  C   UNL     1      56.113 161.284  28.966  0.00  0.00    +0.003 C 
ATOM     11  C   UNL     1      56.269 160.314  27.800  0.00  0.00    +0.017 C 
ATOM     12  C   UNL     1      55.740 158.933  28.133  0.00  0.00    +0.069 C 
ATOM     13  N   UNL     1      54.732 158.593  27.150  0.00  0.00    -0.296 NA
ATOM     14  C   UNL     1      54.658 157.189  26.855  0.00  0.00    +0.086 C 
ATOM     15  C   UNL     1      53.408 156.638  27.548  0.00  0.00    +0.089 C 
ATOM     16  N   UNL     1      52.908 155.524  26.804  0.00  0.00    -0.271 NA
ATOM     17  C   UNL     1      51.729 154.944  27.336  0.00  0.00    +0.073 C 
ATOM     18  C   UNL     1      51.819 153.449  27.155  0.00  0.00    +0.019 C 
ATOM     19  C   UNL     1      53.281 153.184  26.887  0.00  0.00    +0.019 C 
ATOM     20  C   UNL     1      53.877 154.520  26.531  0.00  0.00    +0.072 C 
ATOM     21  C   UNL     1      51.455 155.316  28.757  0.00  0.00    +0.085 C 
ATOM     22  N   UNL     1      50.032 155.216  29.061  0.00  0.00    -0.295 NA
ATOM     23  C   UNL     1      49.786 155.961  30.278  0.00  0.00    +0.086 C 
ATOM     24  C   UNL     1      48.835 157.072  29.979  0.00  0.00    +0.086 C 
ATOM     25  N   UNL     1      48.482 157.870  31.124  0.00  0.00    -0.295 NA
ATOM     26  C   UNL     1      49.557 158.765  31.544  0.00  0.00    +0.086 C 
ATOM     27  C   UNL     1      49.282 160.198  31.279  0.00  0.00    +0.091 C 
ATOM     28  H   UNL     1      52.975 161.437  29.230  0.00  0.00    +0.123 HD
ATOM     29  H   UNL     1      54.944 159.092  26.286  0.00  0.00    +0.123 HD
ATOM     30  H   UNL     1      49.774 154.238  29.194  0.00  0.00    +0.123 HD
ATOM     31  H   UNL     1      48.256 157.246  31.899  0.00  0.00    +0.123 HD
ENDROOT
BRANCH   2  32
ATOM     32  N   UNL     1      51.742 161.101  32.462  0.00  0.00    -0.152 N 
ATOM     33  C   UNL     1      50.889 161.503  33.503  0.00  0.00    +0.336 C 
ATOM     34  O   UNL     1      51.261 161.356  34.722  0.00  0.00    -0.250 OA
ATOM     35  N   UNL     1      49.616 162.073  33.230  0.00  0.00    -0.236 N 
ATOM     36  H   UNL     1      49.347 162.176  32.288  0.00  0.00    +0.170 HD
BRANCH  32  37
ATOM     37  N   UNL     1      52.995 160.544  32.870  0.00  0.00    -0.070 N 
ATOM     38  C   UNL     1      54.016 161.542  32.678  0.00  0.00    +0.356 C 
ATOM     39  O   UNL     1      53.750 162.688  32.215  0.00  0.00    -0.247 OA
ATOM     40  N   UNL     1      55.365 161.259  33.010  0.00  0.00    -0.234 N 
ATOM     41  H   UNL     1      55.615 160.379  33.374  0.00  0.00    +0.170 HD
BRANCH  40  42
ATOM     42  N   UNL     1      56.336 162.247  32.813  0.00  0.00    -0.253 NA
ATOM     43  H   UNL     1      55.896 163.085  32.432  0.00  0.00    +0.141 HD
ATOM     44  H   UNL     1      57.041 161.906  32.159  0.00  0.00    +0.141 HD
ENDBRANCH  40  42
BRANCH  37  45
ATOM     45  O   UNL     1      52.915 160.148  34.150  0.00  0.00    -0.273 OA
ATOM     46  H   UNL     1      52.219 159.478  34.238  0.00  0.00    +0.244 HD
ENDBRANCH  37  45
ENDBRANCH  32  37
BRANCH  35  47
ATOM     47  N   UNL     1      48.737 162.489  34.202  0.00  0.00    -0.253 NA
ATOM     48  H   UNL     1      49.144 162.323  35.122  0.00  0.00    +0.141 HD
ATOM     49  H   UNL     1      47.864 161.968  34.117  0.00  0.00    +0.141 HD
ENDBRANCH  35  47
ENDBRANCH   2  32
TORSDOF 5
