REMARK  Name = =
REMARK  0 active torsions:
REMARK  status: ('A' for Active; 'I' for Inactive)
REMARK                            x       y       z     vdW  Elec       q    Type
REMARK                         _______ _______ _______ _____ _____    ______ ____
ROOT
ATOM      1  C   UNL     1      52.793 156.249  27.916  0.00  0.00    +0.128 C 
ATOM      2  S   UNL     1      51.631 156.742  29.251  0.00  0.00    -0.121 S 
ATOM      3  C   UNL     1      51.315 155.044  29.888  0.00  0.00    +0.076 C 
ATOM      4  C   UNL     1      51.898 154.253  28.709  0.00  0.00    +0.081 C 
ATOM      5  N   UNL     1      53.117 154.899  28.337  0.00  0.00    -0.288 NA
ATOM      6  H   UNL     1      53.752 154.927  29.135  0.00  0.00    +0.124 HD
ENDROOT
TORSDOF 0
