REMARK  Name = =
REMARK  1 active torsions:
REMARK  status: ('A' for Active; 'I' for Inactive)
REMARK    1  A    between atoms: N_8  and  C_9
REMARK                            x       y       z     vdW  Elec       q    Type
REMARK                         _______ _______ _______ _____ _____    ______ ____
ROOT
ATOM      1  N   UNL     1      52.687 155.543  27.358  0.00  0.00    -0.214 N 
ATOM      2  C   UNL     1      53.164 156.015  26.076  0.00  0.00    +0.112 C 
ATOM      3  C   UNL     1      52.671 154.709  25.512  0.00  0.00    +0.108 C 
ATOM      4  C   UNL     1      52.869 154.209  26.903  0.00  0.00    +0.234 C 
ATOM      5  O   UNL     1      53.094 153.131  27.500  0.00  0.00    -0.274 OA
ATOM      6  C   UNL     1      52.232 156.152  28.562  0.00  0.00    +0.311 C 
ATOM      7  O   UNL     1      51.875 155.428  29.531  0.00  0.00    -0.252 OA
ATOM      8  N   UNL     1      52.176 157.559  28.679  0.00  0.00    -0.268 N 
ATOM      9  H   UNL     1      52.454 158.124  27.922  0.00  0.00    +0.153 HD
ENDROOT
BRANCH   8  10
ATOM     10  C   UNL     1      51.712 158.178  29.908  0.00  0.00    +0.182 C 
ATOM     11  S   UNL     1      49.877 158.331  29.897  0.00  0.00    -0.104 S 
ATOM     12  C   UNL     1      49.818 160.065  30.506  0.00  0.00    +0.078 C 
ATOM     13  C   UNL     1      51.275 160.268  30.851  0.00  0.00    +0.082 C 
ATOM     14  N   UNL     1      52.074 159.557  29.920  0.00  0.00    -0.273 NA
ATOM     15  H   UNL     1      51.935 159.949  28.989  0.00  0.00    +0.126 HD
ENDBRANCH   8  10
TORSDOF 1
