REMARK  Name = =
REMARK  2 active torsions:
REMARK  status: ('A' for Active; 'I' for Inactive)
REMARK    1  A    between atoms: C_3  and  S_15
REMARK    2  A    between atoms: N_8  and  C_9
REMARK                            x       y       z     vdW  Elec       q    Type
REMARK                         _______ _______ _______ _____ _____    ______ ____
ROOT
ATOM      1  N   UNL     1      51.258 156.073  29.160  0.00  0.00    -0.212 N 
ATOM      2  C   UNL     1      50.508 155.034  28.499  0.00  0.00    +0.121 C 
ATOM      3  C   UNL     1      51.801 154.640  27.816  0.00  0.00    +0.133 C 
ATOM      4  C   UNL     1      52.438 155.330  28.925  0.00  0.00    +0.243 C 
ATOM      5  O   UNL     1      53.559 155.302  29.471  0.00  0.00    -0.273 OA
ATOM      6  C   UNL     1      50.941 157.322  29.787  0.00  0.00    +0.311 C 
ATOM      7  O   UNL     1      51.864 158.008  30.283  0.00  0.00    -0.252 OA
ATOM      8  N   UNL     1      49.629 157.803  29.863  0.00  0.00    -0.271 N 
ATOM      9  H   UNL     1      48.911 157.255  29.470  0.00  0.00    +0.153 HD
ENDROOT
BRANCH   8  10
ATOM     10  C   UNL     1      49.265 159.057  30.484  0.00  0.00    +0.144 C 
ATOM     11  S   UNL     1      49.345 160.435  29.269  0.00  0.00    -0.107 S 
ATOM     12  C   UNL     1      50.859 161.232  29.947  0.00  0.00    +0.077 C 
ATOM     13  C   UNL     1      51.347 160.059  30.811  0.00  0.00    +0.082 C 
ATOM     14  N   UNL     1      50.207 159.501  31.457  0.00  0.00    -0.276 NA
ATOM     15  C   UNL     1      47.868 159.057  31.041  0.00  0.00    +0.048 C 
ATOM     16  H   UNL     1      50.498 158.710  32.032  0.00  0.00    +0.125 HD
ENDBRANCH   8  10
BRANCH   3  17
ATOM     17  S   UNL     1      51.928 155.374  26.209  0.00  0.00    -0.194 S 
ATOM     18  C   UNL     1      52.904 154.554  25.228  0.00  0.00    +0.055 C 
ATOM     19  H   UNL     1      52.410 156.639  26.345  0.00  0.00    +0.093 HD
ENDBRANCH   3  17
TORSDOF 2
