REMARK  Name = =
REMARK  4 active torsions:
REMARK  status: ('A' for Active; 'I' for Inactive)
REMARK    1  A    between atoms: C_3  and  S_17
REMARK    2  A    between atoms: N_8  and  C_9
REMARK    3  A    between atoms: C_9  and  C_14
REMARK    4  A    between atoms: C_14  and  C_15
REMARK                            x       y       z     vdW  Elec       q    Type
REMARK                         _______ _______ _______ _____ _____    ______ ____
ROOT
ATOM      1  N   UNL     1      50.883 157.495  29.517  0.00  0.00    -0.212 N 
ATOM      2  C   UNL     1      49.450 157.530  29.560  0.00  0.00    +0.121 C 
ATOM      3  C   UNL     1      49.630 158.193  30.922  0.00  0.00    +0.133 C 
ATOM      4  C   UNL     1      50.895 158.670  30.303  0.00  0.00    +0.243 C 
ATOM      5  O   UNL     1      51.622 159.679  30.445  0.00  0.00    -0.273 OA
ATOM      6  C   UNL     1      51.876 156.662  28.946  0.00  0.00    +0.311 C 
ATOM      7  O   UNL     1      53.104 156.887  29.079  0.00  0.00    -0.252 OA
ATOM      8  N   UNL     1      51.465 155.537  28.198  0.00  0.00    -0.271 N 
ATOM      9  H   UNL     1      50.496 155.392  28.102  0.00  0.00    +0.153 HD
ENDROOT
BRANCH   8  10
ATOM     10  C   UNL     1      52.320 154.603  27.576  0.00  0.00    +0.150 C 
ATOM     11  S   UNL     1      51.651 154.134  25.916  0.00  0.00    -0.107 S 
ATOM     12  C   UNL     1      52.656 155.318  24.939  0.00  0.00    +0.077 C 
ATOM     13  C   UNL     1      53.163 156.189  26.098  0.00  0.00    +0.082 C 
ATOM     14  N   UNL     1      53.575 155.228  27.111  0.00  0.00    -0.276 NA
ATOM     15  H   UNL     1      54.048 155.700  27.882  0.00  0.00    +0.125 HD
BRANCH  10  16
ATOM     16  C   UNL     1      52.564 153.328  28.278  0.00  0.00    +0.090 C 
BRANCH  16  17
ATOM     17  C   UNL     1      53.571 153.269  29.323  0.00  0.00    +0.066 C 
ATOM     18  N   UNL     1      54.781 152.895  29.148  0.00  0.00    -0.301 NA
ATOM     19  H   UNL     1      55.407 152.882  29.908  0.00  0.00    +0.186 HD
ENDBRANCH  16  17
ENDBRANCH  10  16
ENDBRANCH   8  10
BRANCH   3  20
ATOM     20  S   UNL     1      48.432 159.450  31.296  0.00  0.00    -0.194 S 
ATOM     21  C   UNL     1      48.702 160.742  30.404  0.00  0.00    +0.055 C 
ATOM     22  H   UNL     1      48.524 159.783  32.611  0.00  0.00    +0.093 HD
ENDBRANCH   3  20
TORSDOF 4
