REMARK  Name = =
REMARK  2 active torsions:
REMARK  status: ('A' for Active; 'I' for Inactive)
REMARK    1  A    between atoms: C_3  and  S_18
REMARK    2  A    between atoms: N_8  and  C_9
REMARK                            x       y       z     vdW  Elec       q    Type
REMARK                         _______ _______ _______ _____ _____    ______ ____
ROOT
ATOM      1  N   UNL     1      51.280 158.361  29.436  0.00  0.00    -0.212 N 
ATOM      2  C   UNL     1      49.846 158.407  29.634  0.00  0.00    +0.121 C 
ATOM      3  C   UNL     1      49.992 159.886  29.788  0.00  0.00    +0.133 C 
ATOM      4  C   UNL     1      51.437 159.685  29.932  0.00  0.00    +0.243 C 
ATOM      5  O   UNL     1      52.463 160.318  30.311  0.00  0.00    -0.273 OA
ATOM      6  C   UNL     1      52.161 157.343  28.930  0.00  0.00    +0.311 C 
ATOM      7  O   UNL     1      53.400 157.542  28.852  0.00  0.00    -0.252 OA
ATOM      8  N   UNL     1      51.655 156.094  28.506  0.00  0.00    -0.271 N 
ATOM      9  H   UNL     1      50.683 155.954  28.574  0.00  0.00    +0.153 HD
ENDROOT
BRANCH   8  10
ATOM     10  C   UNL     1      52.442 155.009  27.983  0.00  0.00    +0.150 C 
ATOM     11  S   UNL     1      51.350 153.807  27.148  0.00  0.00    -0.092 S 
ATOM     12  C   UNL     1      51.964 152.316  28.038  0.00  0.00    +0.083 C 
ATOM     13  C   UNL     1      53.319 152.907  28.460  0.00  0.00    +0.083 C 
ATOM     14  N   UNL     1      52.999 154.192  29.032  0.00  0.00    -0.276 NA
ATOM     15  C   UNL     1      53.475 155.553  27.031  0.00  0.00    +0.072 C 
ATOM     16  C   UNL     1      52.943 155.488  25.649  0.00  0.00    +0.120 C 
ATOM     17  N   UNL     1      51.784 155.034  25.445  0.00  0.00    -0.250 NA
ATOM     18  I   UNL     1      54.162 156.165  24.077  0.00  0.00    -0.057 I 
ATOM     19  H   UNL     1      52.318 154.079  29.783  0.00  0.00    +0.125 HD
ATOM     20  H   UNL     1      51.763 154.479  24.590  0.00  0.00    +0.136 HD
ENDBRANCH   8  10
BRANCH   3  21
ATOM     21  S   UNL     1      49.163 160.557  31.232  0.00  0.00    -0.194 S 
ATOM     22  C   UNL     1      47.899 159.659  31.642  0.00  0.00    +0.055 C 
ATOM     23  H   UNL     1      48.740 161.819  30.954  0.00  0.00    +0.093 HD
ENDBRANCH   3  21
TORSDOF 2
