REMARK  Name = =
REMARK  6 active torsions:
REMARK  status: ('A' for Active; 'I' for Inactive)
REMARK    1  A    between atoms: C_3  and  S_18
REMARK    2  A    between atoms: N_8  and  C_9
REMARK    3  A    between atoms: C_9  and  C_14
REMARK    4  A    between atoms: C_14  and  C_15
REMARK    5  A    between atoms: S_18  and  N_20
REMARK    6  A    between atoms: C_21  and  C_23
REMARK                            x       y       z     vdW  Elec       q    Type
REMARK                         _______ _______ _______ _____ _____    ______ ____
ROOT
ATOM      1  N   UNL     1      50.916 156.756  29.119  0.00  0.00    -0.212 N 
ATOM      2  C   UNL     1      49.538 156.688  29.551  0.00  0.00    +0.123 C 
ATOM      3  C   UNL     1      49.822 157.844  30.474  0.00  0.00    +0.152 C 
ATOM      4  C   UNL     1      51.129 157.971  29.848  0.00  0.00    +0.245 C 
ATOM      5  O   UNL     1      52.094 158.773  29.881  0.00  0.00    -0.273 OA
ATOM      6  C   UNL     1      51.690 155.913  28.281  0.00  0.00    +0.311 C 
ATOM      7  O   UNL     1      52.895 156.236  28.106  0.00  0.00    -0.252 OA
ATOM      8  N   UNL     1      51.095 154.779  27.694  0.00  0.00    -0.271 N 
ATOM      9  H   UNL     1      50.147 154.578  27.865  0.00  0.00    +0.153 HD
ENDROOT
BRANCH   8  10
ATOM     10  C   UNL     1      51.865 153.921  26.852  0.00  0.00    +0.150 C 
ATOM     11  S   UNL     1      53.527 153.732  27.561  0.00  0.00    -0.107 S 
ATOM     12  C   UNL     1      53.248 152.098  28.367  0.00  0.00    +0.077 C 
ATOM     13  C   UNL     1      51.716 152.063  28.264  0.00  0.00    +0.082 C 
ATOM     14  N   UNL     1      51.400 152.525  26.941  0.00  0.00    -0.276 NA
ATOM     15  H   UNL     1      51.878 151.951  26.246  0.00  0.00    +0.125 HD
BRANCH  10  16
ATOM     16  C   UNL     1      51.909 154.324  25.403  0.00  0.00    +0.095 C 
BRANCH  16  17
ATOM     17  C   UNL     1      53.117 155.101  25.072  0.00  0.00    +0.083 C 
ATOM     18  N   UNL     1      53.229 156.331  25.336  0.00  0.00    -0.297 NA
ATOM     19  I   UNL     1      54.704 154.095  24.126  0.00  0.00    -0.027 I 
ATOM     20  H   UNL     1      52.491 156.809  25.779  0.00  0.00    +0.187 HD
ENDBRANCH  16  17
ENDBRANCH  10  16
ENDBRANCH   8  10
BRANCH   3  21
ATOM     21  S   UNL     1      48.709 159.233  30.203  0.00  0.00    -0.095 S 
ATOM     22  C   UNL     1      47.272 158.699  29.708  0.00  0.00    +0.079 C 
BRANCH  21  23
ATOM     23  N   UNL     1      48.581 160.147  31.675  0.00  0.00    -0.259 N 
ATOM     24  C   UNL     1      49.606 161.052  32.026  0.00  0.00    +0.308 C 
ATOM     25  O   UNL     1      50.591 161.163  31.246  0.00  0.00    -0.264 OA
ATOM     26  H   UNL     1      47.798 160.034  32.261  0.00  0.00    +0.162 HD
BRANCH  24  27
ATOM     27  C   UNL     1      49.559 161.851  33.257  0.00  0.00    +0.297 C 
ATOM     28  O   UNL     1      48.748 161.591  34.176  0.00  0.00    -0.265 OA
ATOM     29  N   UNL     1      50.444 162.932  33.407  0.00  0.00    -0.322 N 
ATOM     30  H   UNL     1      51.086 163.146  32.692  0.00  0.00    +0.145 HD
ATOM     31  H   UNL     1      50.422 163.476  34.228  0.00  0.00    +0.145 HD
ENDBRANCH  24  27
ENDBRANCH  21  23
ENDBRANCH   3  21
TORSDOF 6
