REMARK  Name = =
REMARK  2 active torsions:
REMARK  status: ('A' for Active; 'I' for Inactive)
REMARK    1  A    between atoms: N_1  and  S_4
REMARK    2  A    between atoms: C_2  and  O_7
REMARK                            x       y       z     vdW  Elec       q    Type
REMARK                         _______ _______ _______ _____ _____    ______ ____
ROOT
ATOM      1  N   UNL     1      52.799 156.902  27.657  0.00  0.00    -0.158 N 
ATOM      2  C   UNL     1      52.987 155.733  26.908  0.00  0.00    +0.417 C 
ATOM      3  O   UNL     1      52.628 154.635  27.419  0.00  0.00    -0.225 OA
ATOM      4  H   UNL     1      53.076 157.761  27.265  0.00  0.00    +0.179 HD
ENDROOT
BRANCH   1   5
ATOM      5  S   UNL     1      52.098 156.904  29.249  0.00  0.00    +0.037 S 
ATOM      6  O   UNL     1      51.744 158.312  29.584  0.00  0.00    -0.158 OA
ATOM      7  O   UNL     1      50.875 156.029  29.296  0.00  0.00    -0.158 OA
ATOM      8  H   UNL     1      52.985 156.408  30.152  0.00  0.00    +0.233 HD
ENDBRANCH   1   5
BRANCH   2   9
ATOM      9  O   UNL     1      53.539 155.676  25.640  0.00  0.00    -0.465 OA
ATOM     10  H   UNL     1      53.822 156.462  25.216  0.00  0.00    +0.297 HD
ENDBRANCH   2   9
TORSDOF 2
