REMARK  Name = =
REMARK  4 active torsions:
REMARK  status: ('A' for Active; 'I' for Inactive)
REMARK    1  A    between atoms: N_1  and  S_6
REMARK    2  A    between atoms: C_2  and  O_9
REMARK    3  A    between atoms: N_5  and  O_10
REMARK    4  A    between atoms: O_10  and  C_11
REMARK                            x       y       z     vdW  Elec       q    Type
REMARK                         _______ _______ _______ _____ _____    ______ ____
ROOT
ATOM      1  N   UNL     1      53.577 153.373  25.404  0.00  0.00    -0.087 N 
ATOM      2  C   UNL     1      54.512 154.085  24.576  0.00  0.00    +0.426 C 
ATOM      3  O   UNL     1      54.484 155.343  24.512  0.00  0.00    -0.224 OA
ATOM      4  C   UNL     1      53.652 151.955  25.440  0.00  0.00    +0.235 C 
ATOM      5  N   UNL     1      52.811 151.330  26.183  0.00  0.00    -0.052 NA
ENDROOT
BRANCH   1   6
ATOM      6  S   UNL     1      52.418 154.256  26.305  0.00  0.00    +0.046 S 
ATOM      7  O   UNL     1      51.710 153.306  27.220  0.00  0.00    -0.157 OA
ATOM      8  O   UNL     1      53.133 155.333  27.066  0.00  0.00    -0.157 OA
ATOM      9  H   UNL     1      51.493 154.843  25.499  0.00  0.00    +0.234 HD
ENDBRANCH   1   6
BRANCH   2  10
ATOM     10  O   UNL     1      55.472 153.439  23.825  0.00  0.00    -0.465 OA
ATOM     11  H   UNL     1      55.529 152.504  23.842  0.00  0.00    +0.297 HD
ENDBRANCH   2  10
BRANCH   5  12
ATOM     12  O   UNL     1      52.766 149.969  26.316  0.00  0.00    -0.297 OA
BRANCH  12  13
ATOM     13  C   UNL     1      53.196 149.103  25.305  0.00  0.00    +0.423 C 
ATOM     14  O   UNL     1      52.372 148.167  25.043  0.00  0.00    -0.224 OA
ATOM     15  N   UNL     1      54.430 149.253  24.635  0.00  0.00    -0.293 N 
ATOM     16  H   UNL     1      55.033 149.994  24.874  0.00  0.00    +0.148 HD
ATOM     17  H   UNL     1      54.687 148.617  23.929  0.00  0.00    +0.148 HD
ENDBRANCH  12  13
ENDBRANCH   5  12
TORSDOF 4
