REMARK  Name = =
REMARK  5 active torsions:
REMARK  status: ('A' for Active; 'I' for Inactive)
REMARK    1  A    between atoms: N_1  and  S_6
REMARK    2  A    between atoms: C_2  and  O_15
REMARK    3  A    between atoms: N_5  and  O_16
REMARK    4  A    between atoms: S_6  and  N_9
REMARK    5  A    between atoms: O_16  and  C_17
REMARK                            x       y       z     vdW  Elec       q    Type
REMARK                         _______ _______ _______ _____ _____    ______ ____
ROOT
ATOM      1  N   UNL     1      52.614 152.491  26.860  0.00  0.00    -0.067 N 
ATOM      2  C   UNL     1      51.822 151.869  27.843  0.00  0.00    +0.427 C 
ATOM      3  O   UNL     1      51.260 152.564  28.775  0.00  0.00    -0.224 OA
ATOM      4  C   UNL     1      53.246 151.806  25.841  0.00  0.00    +0.237 C 
ATOM      5  N   UNL     1      53.277 150.606  25.577  0.00  0.00    -0.052 NA
ENDROOT
BRANCH   1   6
ATOM      6  S   UNL     1      52.762 154.235  27.007  0.00  0.00    +0.142 S 
ATOM      7  O   UNL     1      51.400 154.839  26.989  0.00  0.00    -0.134 OA
ATOM      8  O   UNL     1      53.375 154.533  28.344  0.00  0.00    -0.134 OA
BRANCH   6   9
ATOM      9  N   UNL     1      53.767 154.896  25.786  0.00  0.00    -0.147 N 
ATOM     10  C   UNL     1      53.799 156.278  25.463  0.00  0.00    +0.245 C 
ATOM     11  O   UNL     1      53.007 157.207  25.774  0.00  0.00    -0.273 OA
ATOM     12  C   UNL     1      55.016 156.530  24.617  0.00  0.00    +0.089 C 
ATOM     13  C   UNL     1      55.740 155.200  24.570  0.00  0.00    +0.033 C 
ATOM     14  C   UNL     1      54.687 154.158  24.941  0.00  0.00    +0.121 C 
ENDBRANCH   6   9
ENDBRANCH   1   6
BRANCH   2  15
ATOM     15  O   UNL     1      51.575 150.525  27.913  0.00  0.00    -0.465 OA
ATOM     16  H   UNL     1      51.945 149.947  27.275  0.00  0.00    +0.297 HD
ENDBRANCH   2  15
BRANCH   5  17
ATOM     17  O   UNL     1      52.776 149.488  26.078  0.00  0.00    -0.297 OA
BRANCH  17  18
ATOM     18  C   UNL     1      52.300 148.436  25.335  0.00  0.00    +0.423 C 
ATOM     19  O   UNL     1      53.016 147.967  24.400  0.00  0.00    -0.224 OA
ATOM     20  N   UNL     1      51.038 147.829  25.548  0.00  0.00    -0.293 N 
ATOM     21  H   UNL     1      50.447 148.159  26.263  0.00  0.00    +0.148 HD
ATOM     22  H   UNL     1      50.752 147.077  24.981  0.00  0.00    +0.148 HD
ENDBRANCH  17  18
ENDBRANCH   5  17
TORSDOF 5
