REMARK  Name = =
REMARK  3 active torsions:
REMARK  status: ('A' for Active; 'I' for Inactive)
REMARK    1  A    between atoms: N_1  and  C_9
REMARK    2  A    between atoms: N_1  and  C_16
REMARK    3  A    between atoms: C_8  and  C_15
REMARK                            x       y       z     vdW  Elec       q    Type
REMARK                         _______ _______ _______ _____ _____    ______ ____
ROOT
ATOM      1  N   UNL     1      53.934 152.196  26.078  0.00  0.00    -0.235 N 
ATOM      2  C   UNL     1      54.212 152.909  24.890  0.00  0.00    +0.228 C 
ATOM      3  N   UNL     1      55.243 153.784  24.834  0.00  0.00    -0.212 NA
ATOM      4  C   UNL     1      55.518 154.474  23.698  0.00  0.00    +0.103 C 
ATOM      5  C   UNL     1      54.719 154.261  22.603  0.00  0.00    +0.041 C 
ATOM      6  C   UNL     1      53.662 153.362  22.668  0.00  0.00    +0.103 C 
ATOM      7  N   UNL     1      53.442 152.714  23.812  0.00  0.00    -0.212 NA
ENDROOT
BRANCH   1   9
ATOM      8  C   UNL     1      54.037 153.021  28.359  0.00  0.00    +0.056 C 
ATOM      9  C   UNL     1      54.686 152.421  27.294  0.00  0.00    +0.061 C 
ATOM     10  C   UNL     1      56.005 152.033  27.348  0.00  0.00    +0.015 C 
ATOM     11  C   UNL     1      56.722 152.240  28.496  0.00  0.00    +0.001 C 
ATOM     12  C   UNL     1      56.083 152.837  29.560  0.00  0.00    +0.000 C 
ATOM     13  C   UNL     1      54.785 153.228  29.528  0.00  0.00    +0.005 C 
BRANCH   8  15
ATOM     14  O   UNL     1      52.120 153.983  29.295  0.00  0.00    -0.283 OA
ATOM     15  C   UNL     1      52.634 153.404  28.311  0.00  0.00    +0.235 C 
ENDBRANCH   8  15
ENDBRANCH   1   9
BRANCH   1  16
ATOM     16  C   UNL     1      52.886 151.237  26.062  0.00  0.00    +0.072 C 
ATOM     17  C   UNL     1      51.833 151.454  26.819  0.00  0.00    +0.018 C 
ENDBRANCH   1  16
TORSDOF 3
