REMARK  Name = =
REMARK  4 active torsions:
REMARK  status: ('A' for Active; 'I' for Inactive)
REMARK    1  A    between atoms: N_1  and  C_24
REMARK    2  A    between atoms: N_1  and  C_31
REMARK    3  A    between atoms: C_4  and  N_8
REMARK    4  A    between atoms: C_23  and  C_30
REMARK                            x       y       z     vdW  Elec       q    Type
REMARK                         _______ _______ _______ _____ _____    ______ ____
ROOT
ATOM      1  N   UNL     1      53.574 153.150  25.856  0.00  0.00    -0.235 N 
ATOM      2  C   UNL     1      52.822 153.445  27.032  0.00  0.00    +0.229 C 
ATOM      3  N   UNL     1      52.445 154.675  27.406  0.00  0.00    -0.197 NA
ATOM      4  C   UNL     1      51.733 154.955  28.505  0.00  0.00    +0.148 C 
ATOM      5  C   UNL     1      51.361 153.871  29.306  0.00  0.00    +0.056 C 
ATOM      6  C   UNL     1      51.726 152.587  28.960  0.00  0.00    +0.105 C 
ATOM      7  N   UNL     1      52.436 152.444  27.843  0.00  0.00    -0.211 NA
ENDROOT
BRANCH   4   8
ATOM      8  N   UNL     1      51.364 156.270  28.897  0.00  0.00    -0.185 N 
ATOM      9  C   UNL     1      50.067 156.569  29.380  0.00  0.00    +0.260 C 
ATOM     10  O   UNL     1      49.193 155.677  29.489  0.00  0.00    -0.269 OA
ATOM     11  C   UNL     1      49.674 157.937  29.781  0.00  0.00    +0.054 C 
ATOM     12  C   UNL     1      50.593 158.953  29.682  0.00  0.00    +0.009 C 
ATOM     13  C   UNL     1      50.210 160.238  30.062  0.00  0.00    +0.000 C 
ATOM     14  C   UNL     1      51.135 161.244  29.959  0.00  0.00    +0.000 C 
ATOM     15  C   UNL     1      52.420 161.064  29.503  0.00  0.00    +0.000 C 
ATOM     16  C   UNL     1      52.768 159.776  29.135  0.00  0.00    +0.005 C 
ATOM     17  C   UNL     1      51.875 158.713  29.216  0.00  0.00    +0.054 C 
ATOM     18  C   UNL     1      52.269 157.365  28.819  0.00  0.00    +0.260 C 
ATOM     19  O   UNL     1      53.427 157.153  28.398  0.00  0.00    -0.269 OA
ATOM     20  C   UNL     1      48.932 160.464  30.522  0.00  0.00    +0.000 C 
ATOM     21  C   UNL     1      48.003 159.449  30.624  0.00  0.00    +0.000 C 
ATOM     22  C   UNL     1      48.401 158.193  30.246  0.00  0.00    +0.005 C 
ENDBRANCH   4   8
BRANCH   1  24
ATOM     23  C   UNL     1      55.288 154.079  24.367  0.00  0.00    +0.056 C 
ATOM     24  C   UNL     1      54.051 154.094  24.936  0.00  0.00    +0.061 C 
ATOM     25  C   UNL     1      53.217 155.126  24.566  0.00  0.00    +0.015 C 
ATOM     26  C   UNL     1      53.572 156.102  23.682  0.00  0.00    +0.001 C 
ATOM     27  C   UNL     1      54.837 156.076  23.112  0.00  0.00    +0.000 C 
ATOM     28  C   UNL     1      55.688 155.069  23.454  0.00  0.00    +0.005 C 
BRANCH  23  30
ATOM     29  O   UNL     1      55.938 151.829  24.314  0.00  0.00    -0.283 OA
ATOM     30  C   UNL     1      56.209 152.999  24.624  0.00  0.00    +0.235 C 
ENDBRANCH  23  30
ENDBRANCH   1  24
BRANCH   1  31
ATOM     31  C   UNL     1      53.889 151.783  25.592  0.00  0.00    +0.072 C 
ATOM     32  C   UNL     1      53.549 151.287  24.421  0.00  0.00    +0.018 C 
ENDBRANCH   1  31
TORSDOF 4
