MODEL 1
REMARK VINA RESULT:    -6.136      0.000      0.000
REMARK INTER + INTRA:         -11.119
REMARK INTER:                  -9.186
REMARK INTRA:                  -1.933
REMARK UNBOUND:                -1.933
REMARK  Name = =
REMARK  10 active torsions:
REMARK  status: ('A' for Active; 'I' for Inactive)
REMARK    1  A    between atoms: C_1  and  C_12
REMARK    2  A    between atoms: C_1  and  C_23
REMARK    3  A    between atoms: N_22  and  O_27
REMARK    4  A    between atoms: O_27  and  P_28
REMARK    5  A    between atoms: P_28  and  C_30
REMARK    6  A    between atoms: P_28  and  O_38
REMARK    7  A    between atoms: C_30  and  P_34
REMARK    8  A    between atoms: C_31  and  C_32
REMARK    9  A    between atoms: P_34  and  O_36
REMARK   10  A    between atoms: P_34  and  O_37
REMARK                            x       y       z     vdW  Elec       q    Type
REMARK                         _______ _______ _______ _____ _____    ______ ____
ROOT
ATOM      1  C   UNL     1      60.389 163.502  38.920  0.00  0.00    +0.016 C 
ATOM      2  C   UNL     1      60.453 162.112  39.337  0.00  0.00    +0.005 C 
ATOM      3  C   UNL     1      59.373 161.260  38.786  0.00  0.00    +0.018 C 
ATOM      4  C   UNL     1      59.231 161.268  37.289  0.00  0.00    +0.004 C 
ATOM      5  C   UNL     1      59.731 162.553  36.692  0.00  0.00    +0.000 C 
ATOM      6  C   UNL     1      59.588 163.698  37.665  0.00  0.00    +0.001 C 
ATOM      7  C   UNL     1      59.388 159.847  39.202  0.00  0.00    -0.045 C 
ATOM      8  C   UNL     1      58.812 158.935  38.460  0.00  0.00    -0.009 C 
ATOM      9  C   UNL     1      60.031 159.366  40.442  0.00  0.00    +0.022 C 
ATOM     10  C   UNL     1      61.242 160.239  40.660  0.00  0.00    +0.004 C 
ATOM     11  C   UNL     1      60.755 161.705  40.702  0.00  0.00    +0.001 C 
ENDROOT
BRANCH   1  12
ATOM     12  C   UNL     1      59.890 164.521  39.929  0.00  0.00    +0.001 C 
ATOM     13  C   UNL     1      58.818 164.047  40.839  0.00  0.00    +0.000 C 
ATOM     14  C   UNL     1      57.478 164.776  40.688  0.00  0.00    +0.000 C 
ATOM     15  C   UNL     1      57.649 166.261  40.898  0.00  0.00    +0.000 C 
ATOM     16  C   UNL     1      59.022 166.727  40.504  0.00  0.00    +0.000 C 
ATOM     17  C   UNL     1      59.507 165.852  39.321  0.00  0.00    +0.000 C 
ATOM     18  C   UNL     1      56.628 164.256  41.847  0.00  0.00    +0.000 C 
ATOM     19  C   UNL     1      57.126 162.915  42.359  0.00  0.00    +0.000 C 
ATOM     20  C   UNL     1      58.494 163.048  43.016  0.00  0.00    +0.000 C 
ATOM     21  C   UNL     1      59.129 164.250  42.326  0.00  0.00    +0.000 C 
ENDBRANCH   1  12
BRANCH   1  23
ATOM     22  N   UNL     1      61.952 165.000  37.732  0.00  0.00    -0.159 NA
ATOM     23  C   UNL     1      61.862 163.921  38.659  0.00  0.00    +0.085 C 
ATOM     24  C   UNL     1      62.607 164.280  39.886  0.00  0.00    +0.020 C 
ATOM     25  C   UNL     1      63.237 165.646  39.603  0.00  0.00    +0.021 C 
ATOM     26  C   UNL     1      63.031 165.851  38.122  0.00  0.00    +0.101 C 
BRANCH  22  27
ATOM     27  O   UNL     1      62.009 164.731  36.454  0.00  0.00    -0.211 OA
BRANCH  27  28
ATOM     28  P   UNL     1      61.498 165.799  35.327  0.00  0.00    +0.386 P 
ATOM     29  O   UNL     1      61.017 165.147  34.042  0.00  0.00    -0.251 OA
BRANCH  28  30
ATOM     30  C   UNL     1      62.667 167.052  34.898  0.00  0.00    +0.164 C 
ATOM     31  C   UNL     1      63.878 166.794  34.518  0.00  0.00    +0.060 C 
BRANCH  31  32
ATOM     32  C   UNL     1      64.532 165.509  34.375  0.00  0.00    +0.235 C 
ATOM     33  O   UNL     1      64.663 164.965  33.274  0.00  0.00    -0.283 OA
ENDBRANCH  31  32
BRANCH  30  34
ATOM     34  P   UNL     1      62.126 168.775  34.985  0.00  0.00    +0.367 P 
ATOM     35  O   UNL     1      60.879 168.894  34.143  0.00  0.00    -0.253 OA
BRANCH  34  36
ATOM     36  O   UNL     1      61.735 169.163  36.582  0.00  0.00    -0.321 OA
ATOM     37  H   UNL     1      62.326 169.864  36.898  0.00  0.00    +0.220 HD
ENDBRANCH  34  36
BRANCH  34  38
ATOM     38  O   UNL     1      63.287 169.818  34.363  0.00  0.00    -0.321 OA
ATOM     39  H   UNL     1      63.556 170.447  35.050  0.00  0.00    +0.220 HD
ENDBRANCH  34  38
ENDBRANCH  30  34
ENDBRANCH  28  30
BRANCH  28  40
ATOM     40  O   UNL     1      60.121 166.635  35.927  0.00  0.00    -0.320 OA
ATOM     41  H   UNL     1      59.528 166.007  36.367  0.00  0.00    +0.220 HD
ENDBRANCH  28  40
ENDBRANCH  27  28
ENDBRANCH  22  27
ENDBRANCH   1  23
TORSDOF 10
ENDMDL
