REMARK  Name = =
REMARK  0 active torsions:
REMARK  status: ('A' for Active; 'I' for Inactive)
REMARK                            x       y       z     vdW  Elec       q    Type
REMARK                         _______ _______ _______ _____ _____    ______ ____
ROOT
ATOM      1  N   UNL     1      -4.255  -4.110  30.964  0.00  0.00    -0.281 N 
ATOM      2  C   UNL     1      -5.497  -3.706  31.634  0.00  0.00    +0.177 C 
ATOM      3  C   UNL     1      -4.951  -2.991  32.818  0.00  0.00    +0.249 C 
ATOM      4  O   UNL     1      -5.398  -2.948  33.995  0.00  0.00    -0.273 OA
ATOM      5  N   UNL     1      -3.769  -2.329  32.356  0.00  0.00    -0.238 N 
ATOM      6  C   UNL     1      -3.343  -3.043  31.193  0.00  0.00    +0.307 C 
ATOM      7  O   UNL     1      -2.344  -2.819  30.450  0.00  0.00    -0.252 OA
ATOM      8  H   UNL     1      -4.089  -4.941  30.463  0.00  0.00    +0.151 HD
ATOM      9  H   UNL     1      -3.337  -1.541  32.758  0.00  0.00    +0.159 HD
ENDROOT
TORSDOF 0
