REMARK  Name = =
REMARK  0 active torsions:
REMARK  status: ('A' for Active; 'I' for Inactive)
REMARK                            x       y       z     vdW  Elec       q    Type
REMARK                         _______ _______ _______ _____ _____    ______ ____
ROOT
ATOM      1  C   UNL     1      -3.773  -4.979  30.878  0.00  0.00    +0.162 C 
ATOM      2  N   UNL     1      -3.778  -3.847  29.980  0.00  0.00    -0.277 NA
ATOM      3  C   UNL     1      -2.469  -3.340  29.706  0.00  0.00    +0.098 C 
ATOM      4  C   UNL     1      -1.644  -4.438  29.158  0.00  0.00    +0.007 C 
ATOM      5  C   UNL     1      -1.884  -5.695  29.458  0.00  0.00    +0.056 C 
ATOM      6  N   UNL     1      -2.947  -6.040  30.322  0.00  0.00    -0.319 N 
ATOM      7  H   UNL     1      -4.333  -3.102  30.401  0.00  0.00    +0.125 HD
ATOM      8  H   UNL     1      -3.126  -6.982  30.544  0.00  0.00    +0.148 HD
ENDROOT
TORSDOF 0
