REMARK  Name = =
REMARK  6 active torsions:
REMARK  status: ('A' for Active; 'I' for Inactive)
REMARK    1  A    between atoms: C_1  and  O_21
REMARK    2  A    between atoms: C_2  and  C_12
REMARK    3  A    between atoms: C_6  and  O_20
REMARK    4  A    between atoms: C_8  and  O_19
REMARK    5  A    between atoms: C_15  and  O_18
REMARK    6  A    between atoms: O_21  and  N_26
REMARK                            x       y       z     vdW  Elec       q    Type
REMARK                         _______ _______ _______ _____ _____    ______ ____
ROOT
ATOM      1  C   UNL     1      -4.773  -1.801  31.537  0.00  0.00    +0.244 A 
ATOM      2  C   UNL     1      -4.396  -0.827  30.648  0.00  0.00    +0.185 A 
ATOM      3  O   UNL     1      -3.384  -1.076  29.797  0.00  0.00    -0.450 OA
ATOM      4  C   UNL     1      -2.715  -2.170  29.730  0.00  0.00    +0.155 A 
ATOM      5  C   UNL     1      -3.052  -3.204  30.611  0.00  0.00    +0.111 A 
ATOM      6  C   UNL     1      -2.360  -4.387  30.568  0.00  0.00    +0.143 C 
ATOM      7  C   UNL     1      -1.324  -4.509  29.621  0.00  0.00    +0.073 C 
ATOM      8  C   UNL     1      -1.022  -3.490  28.781  0.00  0.00    +0.140 C 
ATOM      9  C   UNL     1      -1.690  -2.292  28.793  0.00  0.00    +0.074 C 
ATOM     10  C   UNL     1      -4.076  -3.017  31.509  0.00  0.00    +0.241 A 
ATOM     11  O   UNL     1      -4.402  -3.929  32.317  0.00  0.00    -0.283 OA
ENDROOT
BRANCH   2  12
ATOM     12  C   UNL     1      -4.976   0.487  30.513  0.00  0.00    +0.038 C 
ATOM     13  C   UNL     1      -4.774   1.243  29.369  0.00  0.00    +0.006 C 
ATOM     14  C   UNL     1      -5.318   2.489  29.182  0.00  0.00    +0.037 C 
ATOM     15  C   UNL     1      -6.105   3.024  30.174  0.00  0.00    +0.134 C 
ATOM     16  C   UNL     1      -6.332   2.315  31.319  0.00  0.00    +0.037 C 
ATOM     17  C   UNL     1      -5.760   1.052  31.468  0.00  0.00    +0.006 C 
BRANCH  15  18
ATOM     18  O   UNL     1      -6.647   4.285  29.970  0.00  0.00    -0.506 OA
ATOM     19  H   UNL     1      -6.473   4.747  29.173  0.00  0.00    +0.292 HD
ENDBRANCH  15  18
ENDBRANCH   2  12
BRANCH   8  20
ATOM     20  O   UNL     1       0.011  -3.644  27.854  0.00  0.00    -0.505 OA
ATOM     21  H   UNL     1       0.225  -2.943  27.270  0.00  0.00    +0.292 HD
ENDBRANCH   8  20
BRANCH   6  22
ATOM     22  O   UNL     1      -2.597  -5.453  31.369  0.00  0.00    -0.505 OA
ATOM     23  H   UNL     1      -3.277  -5.414  32.012  0.00  0.00    +0.292 HD
ENDBRANCH   6  22
BRANCH   1  24
ATOM     24  O   UNL     1      -5.776  -1.598  32.407  0.00  0.00    -0.366 OA
BRANCH  24  29
ATOM     25  N   UNL     1      -8.987  -3.165  33.108  0.00  0.00    -0.278 N 
ATOM     26  C   UNL     1      -9.248  -2.701  31.761  0.00  0.00    +0.181 C 
ATOM     27  C   UNL     1      -8.126  -1.726  31.531  0.00  0.00    +0.285 C 
ATOM     28  O   UNL     1      -8.212  -0.818  30.667  0.00  0.00    -0.270 OA
ATOM     29  N   UNL     1      -7.058  -2.027  32.414  0.00  0.00    -0.048 N 
ATOM     30  C   UNL     1      -7.610  -2.921  33.386  0.00  0.00    +0.343 C 
ATOM     31  O   UNL     1      -7.031  -3.460  34.376  0.00  0.00    -0.249 OA
ATOM     32  H   UNL     1      -9.641  -3.574  33.720  0.00  0.00    +0.152 HD
ENDBRANCH  24  29
ENDBRANCH   1  24
TORSDOF 6
