REMARK  Name = =
REMARK  9 active torsions:
REMARK  status: ('A' for Active; 'I' for Inactive)
REMARK    1  A    between atoms: C_1  and  O_21
REMARK    2  A    between atoms: C_2  and  C_12
REMARK    3  A    between atoms: C_6  and  O_20
REMARK    4  A    between atoms: C_8  and  O_19
REMARK    5  A    between atoms: C_15  and  O_18
REMARK    6  A    between atoms: O_21  and  N_26
REMARK    7  A    between atoms: N_22  and  O_29
REMARK    8  A    between atoms: O_29  and  S_30
REMARK    9  A    between atoms: S_30  and  O_32
REMARK                            x       y       z     vdW  Elec       q    Type
REMARK                         _______ _______ _______ _____ _____    ______ ____
ROOT
ATOM      1  C   UNL     1     -15.562   0.579  24.504  0.00  0.00    +0.244 A 
ATOM      2  C   UNL     1     -16.394  -0.527  24.259  0.00  0.00    +0.185 A 
ATOM      3  O   UNL     1     -17.016  -0.582  23.111  0.00  0.00    -0.450 OA
ATOM      4  C   UNL     1     -16.975   0.258  22.138  0.00  0.00    +0.155 A 
ATOM      5  C   UNL     1     -16.166   1.374  22.325  0.00  0.00    +0.111 A 
ATOM      6  C   UNL     1     -16.121   2.277  21.280  0.00  0.00    +0.143 C 
ATOM      7  C   UNL     1     -16.815   2.130  20.101  0.00  0.00    +0.073 C 
ATOM      8  C   UNL     1     -17.615   0.990  19.961  0.00  0.00    +0.140 C 
ATOM      9  C   UNL     1     -17.697   0.064  20.963  0.00  0.00    +0.074 C 
ATOM     10  C   UNL     1     -15.476   1.526  23.486  0.00  0.00    +0.241 A 
ATOM     11  O   UNL     1     -14.739   2.544  23.656  0.00  0.00    -0.283 OA
ENDROOT
BRANCH   2  12
ATOM     12  C   UNL     1     -16.600  -1.615  25.210  0.00  0.00    +0.038 C 
ATOM     13  C   UNL     1     -15.884  -2.809  25.047  0.00  0.00    +0.006 C 
ATOM     14  C   UNL     1     -16.022  -3.894  25.880  0.00  0.00    +0.037 C 
ATOM     15  C   UNL     1     -16.891  -3.860  26.937  0.00  0.00    +0.134 C 
ATOM     16  C   UNL     1     -17.606  -2.704  27.122  0.00  0.00    +0.037 C 
ATOM     17  C   UNL     1     -17.466  -1.593  26.270  0.00  0.00    +0.006 C 
BRANCH  15  18
ATOM     18  O   UNL     1     -17.068  -4.947  27.815  0.00  0.00    -0.506 OA
ATOM     19  H   UNL     1     -16.579  -5.736  27.688  0.00  0.00    +0.292 HD
ENDBRANCH  15  18
ENDBRANCH   2  12
BRANCH   8  20
ATOM     20  O   UNL     1     -18.327   0.840  18.755  0.00  0.00    -0.505 OA
ATOM     21  H   UNL     1     -18.253   1.489  18.084  0.00  0.00    +0.292 HD
ENDBRANCH   8  20
BRANCH   6  22
ATOM     22  O   UNL     1     -15.309   3.408  21.455  0.00  0.00    -0.505 OA
ATOM     23  H   UNL     1     -14.830   3.522  22.252  0.00  0.00    +0.292 HD
ENDBRANCH   6  22
BRANCH   1  24
ATOM     24  O   UNL     1     -14.906   0.676  25.660  0.00  0.00    -0.366 OA
BRANCH  24  29
ATOM     25  N   UNL     1     -15.282   2.745  28.629  0.00  0.00    -0.115 N 
ATOM     26  C   UNL     1     -13.954   3.090  28.168  0.00  0.00    +0.216 C 
ATOM     27  C   UNL     1     -13.619   1.978  27.281  0.00  0.00    +0.288 C 
ATOM     28  O   UNL     1     -12.457   1.541  27.037  0.00  0.00    -0.269 OA
ATOM     29  N   UNL     1     -14.859   1.455  26.727  0.00  0.00    -0.046 N 
ATOM     30  C   UNL     1     -15.867   1.958  27.592  0.00  0.00    +0.370 C 
ATOM     31  O   UNL     1     -17.112   1.738  27.458  0.00  0.00    -0.247 OA
BRANCH  25  32
ATOM     32  O   UNL     1     -15.790   3.131  29.820  0.00  0.00    -0.110 OA
BRANCH  32  33
ATOM     33  S   UNL     1     -14.754   2.574  31.058  0.00  0.00    +0.161 S 
ATOM     34  O   UNL     1     -14.377   1.125  30.845  0.00  0.00    -0.135 OA
BRANCH  33  35
ATOM     35  O   UNL     1     -13.378   3.554  31.222  0.00  0.00    -0.244 OA
ATOM     36  H   UNL     1     -13.651   4.475  31.357  0.00  0.00    +0.245 HD
ENDBRANCH  33  35
ENDBRANCH  32  33
ENDBRANCH  25  32
ENDBRANCH  24  29
ENDBRANCH   1  24
TORSDOF 9
