REMARK  Name = =
REMARK  11 active torsions:
REMARK  status: ('A' for Active; 'I' for Inactive)
REMARK    1  A    between atoms: C_1  and  O_28
REMARK    2  A    between atoms: C_2  and  C_12
REMARK    3  A    between atoms: C_6  and  O_27
REMARK    4  A    between atoms: C_8  and  O_26
REMARK    5  A    between atoms: C_14  and  O_19
REMARK    6  A    between atoms: C_15  and  O_18
REMARK    7  A    between atoms: O_19  and  C_20
REMARK    8  A    between atoms: O_28  and  N_33
REMARK    9  A    between atoms: N_29  and  O_36
REMARK   10  A    between atoms: O_36  and  S_37
REMARK   11  A    between atoms: S_37  and  O_39
REMARK                            x       y       z     vdW  Elec       q    Type
REMARK                         _______ _______ _______ _____ _____    ______ ____
ROOT
ATOM      1  C   UNL     1     -15.742   0.418  24.909  0.00  0.00    +0.244 A 
ATOM      2  C   UNL     1     -15.159   0.773  23.730  0.00  0.00    +0.185 A 
ATOM      3  O   UNL     1     -15.438   0.092  22.625  0.00  0.00    -0.450 OA
ATOM      4  C   UNL     1     -16.259  -0.922  22.607  0.00  0.00    +0.155 A 
ATOM      5  C   UNL     1     -16.910  -1.370  23.753  0.00  0.00    +0.111 A 
ATOM      6  C   UNL     1     -17.781  -2.451  23.717  0.00  0.00    +0.143 C 
ATOM      7  C   UNL     1     -17.984  -3.082  22.466  0.00  0.00    +0.073 C 
ATOM      8  C   UNL     1     -17.345  -2.644  21.341  0.00  0.00    +0.140 C 
ATOM      9  C   UNL     1     -16.487  -1.576  21.388  0.00  0.00    +0.074 C 
ATOM     10  C   UNL     1     -16.626  -0.667  24.906  0.00  0.00    +0.241 A 
ATOM     11  O   UNL     1     -17.159  -0.991  25.981  0.00  0.00    -0.283 OA
ENDROOT
BRANCH   2  12
ATOM     12  C   UNL     1     -14.216   1.878  23.540  0.00  0.00    +0.041 C 
ATOM     13  C   UNL     1     -13.524   1.968  22.336  0.00  0.00    +0.044 C 
ATOM     14  C   UNL     1     -12.633   2.986  22.110  0.00  0.00    +0.179 C 
ATOM     15  C   UNL     1     -12.380   3.958  23.050  0.00  0.00    +0.168 C 
ATOM     16  C   UNL     1     -13.059   3.871  24.236  0.00  0.00    +0.040 C 
ATOM     17  C   UNL     1     -13.976   2.836  24.485  0.00  0.00    +0.006 C 
BRANCH  15  18
ATOM     18  O   UNL     1     -11.469   5.004  22.824  0.00  0.00    -0.503 OA
ATOM     19  H   UNL     1     -11.008   5.056  22.010  0.00  0.00    +0.292 HD
ENDBRANCH  15  18
BRANCH  14  20
ATOM     20  O   UNL     1     -11.988   3.006  20.894  0.00  0.00    -0.449 OA
BRANCH  20  21
ATOM     21  C   UNL     1     -10.746   2.483  20.607  0.00  0.00    +0.165 C 
ATOM     22  C   UNL     1     -10.126   1.597  21.443  0.00  0.00    +0.136 C 
ATOM     23  N   UNL     1      -8.920   1.118  21.121  0.00  0.00    -0.239 NA
ATOM     24  C   UNL     1      -8.294   1.486  19.991  0.00  0.00    +0.099 C 
ATOM     25  C   UNL     1      -8.900   2.383  19.128  0.00  0.00    +0.024 C 
ATOM     26  C   UNL     1     -10.134   2.879  19.448  0.00  0.00    +0.041 C 
ENDBRANCH  20  21
ENDBRANCH  14  20
ENDBRANCH   2  12
BRANCH   8  27
ATOM     27  O   UNL     1     -17.526  -3.250  20.092  0.00  0.00    -0.505 OA
ATOM     28  H   UNL     1     -17.071  -2.922  19.342  0.00  0.00    +0.292 HD
ENDBRANCH   8  27
BRANCH   6  29
ATOM     29  O   UNL     1     -18.415  -2.893  24.811  0.00  0.00    -0.505 OA
ATOM     30  H   UNL     1     -18.276  -2.471  25.636  0.00  0.00    +0.292 HD
ENDBRANCH   6  29
BRANCH   1  31
ATOM     31  O   UNL     1     -15.484   1.085  26.044  0.00  0.00    -0.366 OA
BRANCH  31  36
ATOM     32  N   UNL     1     -16.012   0.466  29.565  0.00  0.00    -0.115 N 
ATOM     33  C   UNL     1     -15.048  -0.567  29.208  0.00  0.00    +0.216 C 
ATOM     34  C   UNL     1     -14.390   0.063  28.005  0.00  0.00    +0.288 C 
ATOM     35  O   UNL     1     -13.167  -0.031  27.718  0.00  0.00    -0.269 OA
ATOM     36  N   UNL     1     -15.437   0.738  27.331  0.00  0.00    -0.046 N 
ATOM     37  C   UNL     1     -16.457   0.994  28.304  0.00  0.00    +0.370 C 
ATOM     38  O   UNL     1     -17.561   1.580  28.111  0.00  0.00    -0.247 OA
BRANCH  32  39
ATOM     39  O   UNL     1     -16.419   0.862  30.805  0.00  0.00    -0.110 OA
BRANCH  39  40
ATOM     40  S   UNL     1     -15.062   0.915  31.825  0.00  0.00    +0.161 S 
ATOM     41  O   UNL     1     -14.548   2.346  31.987  0.00  0.00    -0.135 OA
BRANCH  40  42
ATOM     42  O   UNL     1     -15.457   0.216  33.338  0.00  0.00    -0.244 OA
ATOM     43  H   UNL     1     -15.779  -0.689  33.202  0.00  0.00    +0.245 HD
ENDBRANCH  40  42
ENDBRANCH  39  40
ENDBRANCH  32  39
ENDBRANCH  31  36
ENDBRANCH   1  31
TORSDOF 11
