REMARK  Name = =
REMARK  0 active torsions:
REMARK  status: ('A' for Active; 'I' for Inactive)
REMARK                            x       y       z     vdW  Elec       q    Type
REMARK                         _______ _______ _______ _____ _____    ______ ____
ROOT
ATOM      1  C   UNL     1      51.497 155.583  28.290  0.00  0.00    +0.027 C 
ATOM      2  C   UNL     1      51.884 154.146  27.923  0.00  0.00    +0.013 C 
ATOM      3  C   UNL     1      51.881 154.053  26.400  0.00  0.00    +0.069 C 
ATOM      4  C   UNL     1      52.784 155.068  25.807  0.00  0.00    +0.173 C 
ATOM      5  O   UNL     1      53.273 154.921  24.647  0.00  0.00    -0.291 OA
ATOM      6  C   UNL     1      53.088 156.245  26.612  0.00  0.00    +0.033 C 
ATOM      7  C   UNL     1      52.516 156.521  27.767  0.00  0.00    -0.023 C 
ENDROOT
TORSDOF 0
