REMARK  Name = =
REMARK  1 active torsions:
REMARK  status: ('A' for Active; 'I' for Inactive)
REMARK    1  A    between atoms: C_2  and  C_14
REMARK                            x       y       z     vdW  Elec       q    Type
REMARK                         _______ _______ _______ _____ _____    ______ ____
ROOT
ATOM      1  N   UNL     1      49.379 155.731  29.058  0.00  0.00    -0.248 NA
ATOM      2  C   UNL     1      50.579 156.028  28.777  0.00  0.00    +0.059 C 
ATOM      3  C   UNL     1      51.088 157.298  29.296  0.00  0.00    -0.000 C 
ATOM      4  C   UNL     1      50.294 158.127  30.057  0.00  0.00    +0.069 C 
ATOM      5  C   UNL     1      48.999 157.779  30.347  0.00  0.00    +0.005 C 
ATOM      6  C   UNL     1      48.458 156.509  29.836  0.00  0.00    +0.095 C 
ATOM      7  C   UNL     1      48.211 158.640  31.122  0.00  0.00    -0.002 C 
ATOM      8  C   UNL     1      48.668 159.836  31.618  0.00  0.00    -0.001 C 
ATOM      9  C   UNL     1      49.968 160.184  31.327  0.00  0.00    -0.004 C 
ATOM     10  C   UNL     1      50.761 159.339  30.559  0.00  0.00    -0.014 C 
ATOM     11  C   UNL     1      52.065 159.668  30.251  0.00  0.00    -0.004 C 
ATOM     12  C   UNL     1      52.858 158.839  29.489  0.00  0.00    -0.001 C 
ATOM     13  C   UNL     1      52.392 157.631  28.991  0.00  0.00    -0.002 C 
ENDROOT
BRANCH   2  14
ATOM     14  C   UNL     1      51.467 155.143  27.975  0.00  0.00    +0.062 C 
ATOM     15  C   UNL     1      50.904 153.728  28.108  0.00  0.00    +0.018 C 
ATOM     16  C   UNL     1      51.617 152.881  27.054  0.00  0.00    +0.070 C 
ATOM     17  C   UNL     1      53.069 152.998  27.321  0.00  0.00    +0.173 C 
ATOM     18  O   UNL     1      53.900 152.230  26.804  0.00  0.00    -0.291 OA
ATOM     19  C   UNL     1      53.588 154.048  28.224  0.00  0.00    +0.033 C 
ATOM     20  C   UNL     1      52.834 155.080  28.547  0.00  0.00    -0.018 C 
ENDBRANCH   2  14
TORSDOF 1
