REMARK  Name = =
REMARK  2 active torsions:
REMARK  status: ('A' for Active; 'I' for Inactive)
REMARK    1  A    between atoms: C_2  and  C_14
REMARK    2  A    between atoms: C_14  and  C_21
REMARK                            x       y       z     vdW  Elec       q    Type
REMARK                         _______ _______ _______ _____ _____    ______ ____
ROOT
ATOM      1  N   UNL     1      49.892 156.126  28.959  0.00  0.00    -0.248 NA
ATOM      2  C   UNL     1      51.049 156.660  28.665  0.00  0.00    +0.065 C 
ATOM      3  C   UNL     1      51.345 157.900  29.363  0.00  0.00    -0.000 C 
ATOM      4  C   UNL     1      50.452 158.483  30.282  0.00  0.00    +0.069 C 
ATOM      5  C   UNL     1      49.263 157.858  30.526  0.00  0.00    +0.005 C 
ATOM      6  C   UNL     1      48.920 156.599  29.852  0.00  0.00    +0.095 C 
ATOM      7  C   UNL     1      48.377 158.435  31.439  0.00  0.00    -0.002 C 
ATOM      8  C   UNL     1      48.715 159.606  32.068  0.00  0.00    -0.001 C 
ATOM      9  C   UNL     1      49.917 160.229  31.817  0.00  0.00    -0.004 C 
ATOM     10  C   UNL     1      50.804 159.672  30.917  0.00  0.00    -0.014 C 
ATOM     11  C   UNL     1      52.017 160.290  30.667  0.00  0.00    -0.004 C 
ATOM     12  C   UNL     1      52.886 159.721  29.778  0.00  0.00    -0.001 C 
ATOM     13  C   UNL     1      52.541 158.540  29.140  0.00  0.00    -0.002 C 
ENDROOT
BRANCH   2  14
ATOM     14  C   UNL     1      51.926 156.062  27.665  0.00  0.00    +0.105 C 
ATOM     15  C   UNL     1      51.283 155.743  26.335  0.00  0.00    +0.025 C 
ATOM     16  C   UNL     1      52.136 154.655  25.679  0.00  0.00    +0.070 C 
ATOM     17  C   UNL     1      53.517 155.241  25.589  0.00  0.00    +0.173 C 
ATOM     18  O   UNL     1      54.287 154.700  24.756  0.00  0.00    -0.291 OA
ATOM     19  C   UNL     1      53.934 156.381  26.429  0.00  0.00    +0.034 C 
ATOM     20  C   UNL     1      53.188 156.798  27.436  0.00  0.00    -0.011 C 
BRANCH  14  21
ATOM     21  C   UNL     1      52.348 154.721  28.193  0.00  0.00    +0.131 C 
ATOM     22  O   UNL     1      53.579 154.351  28.371  0.00  0.00    -0.454 OA
ATOM     23  C   UNL     1      53.677 153.127  28.845  0.00  0.00    +0.179 C 
ATOM     24  C   UNL     1      52.413 152.635  28.999  0.00  0.00    +0.043 C 
ATOM     25  C   UNL     1      51.564 153.655  28.581  0.00  0.00    +0.037 C 
ENDBRANCH  14  21
ENDBRANCH   2  14
TORSDOF 2
