REMARK  Name = =
REMARK  2 active torsions:
REMARK  status: ('A' for Active; 'I' for Inactive)
REMARK    1  A    between atoms: C_2  and  C_14
REMARK    2  A    between atoms: C_14  and  C_21
REMARK                            x       y       z     vdW  Elec       q    Type
REMARK                         _______ _______ _______ _____ _____    ______ ____
ROOT
ATOM      1  N   UNL     1      50.340 155.384  28.540  0.00  0.00    -0.248 NA
ATOM      2  C   UNL     1      51.491 155.945  28.397  0.00  0.00    +0.065 C 
ATOM      3  C   UNL     1      51.669 157.239  29.035  0.00  0.00    -0.000 C 
ATOM      4  C   UNL     1      50.637 157.837  29.765  0.00  0.00    +0.069 C 
ATOM      5  C   UNL     1      49.440 157.185  29.877  0.00  0.00    +0.005 C 
ATOM      6  C   UNL     1      49.221 155.886  29.253  0.00  0.00    +0.095 C 
ATOM      7  C   UNL     1      48.425 157.768  30.595  0.00  0.00    -0.002 C 
ATOM      8  C   UNL     1      48.589 159.003  31.206  0.00  0.00    -0.001 C 
ATOM      9  C   UNL     1      49.798 159.663  31.094  0.00  0.00    -0.004 C 
ATOM     10  C   UNL     1      50.832 159.085  30.373  0.00  0.00    -0.014 C 
ATOM     11  C   UNL     1      52.029 159.756  30.274  0.00  0.00    -0.004 C 
ATOM     12  C   UNL     1      53.024 159.146  29.551  0.00  0.00    -0.001 C 
ATOM     13  C   UNL     1      52.868 157.905  28.932  0.00  0.00    -0.002 C 
ENDROOT
BRANCH   2  14
ATOM     14  C   UNL     1      52.582 155.278  27.591  0.00  0.00    +0.105 C 
ATOM     15  C   UNL     1      53.646 156.251  27.219  0.00  0.00    +0.025 C 
ATOM     16  C   UNL     1      53.791 156.558  25.755  0.00  0.00    +0.070 C 
ATOM     17  C   UNL     1      52.498 156.412  25.039  0.00  0.00    +0.173 C 
ATOM     18  O   UNL     1      51.988 157.285  24.296  0.00  0.00    -0.291 OA
ATOM     19  C   UNL     1      51.823 155.139  25.257  0.00  0.00    +0.034 C 
ATOM     20  C   UNL     1      51.876 154.626  26.462  0.00  0.00    -0.011 C 
BRANCH  14  21
ATOM     21  C   UNL     1      53.163 154.133  28.386  0.00  0.00    +0.133 C 
ATOM     22  O   UNL     1      54.398 153.925  28.733  0.00  0.00    -0.441 OA
ATOM     23  C   UNL     1      54.517 152.815  29.423  0.00  0.00    +0.234 C 
ATOM     24  C   UNL     1      53.276 152.210  29.566  0.00  0.00    +0.059 C 
ATOM     25  C   UNL     1      52.423 153.090  28.882  0.00  0.00    +0.038 C 
ATOM     26  N   UNL     1      55.744 152.325  29.939  0.00  0.00    -0.088 NA
ENDBRANCH  14  21
ENDBRANCH   2  14
TORSDOF 2
