REMARK  Name = =
REMARK  6 active torsions:
REMARK  status: ('A' for Active; 'I' for Inactive)
REMARK    1  A    between atoms: C_1  and  C_6
REMARK    2  A    between atoms: C_3  and  N_26
REMARK    3  A    between atoms: C_6  and  C_14
REMARK    4  A    between atoms: N_26  and  C_27
REMARK    5  A    between atoms: C_27  and  C_29
REMARK    6  A    between atoms: N_28  and  O_40
REMARK                            x       y       z     vdW  Elec       q    Type
REMARK                         _______ _______ _______ _____ _____    ______ ____
ROOT
ATOM      1  C   UNL     1      52.354 155.588  27.656  0.00  0.00    +0.133 C 
ATOM      2  O   UNL     1      51.130 155.962  27.998  0.00  0.00    -0.442 OA
ATOM      3  C   UNL     1      50.925 155.824  29.279  0.00  0.00    +0.220 C 
ATOM      4  C   UNL     1      52.055 155.328  29.878  0.00  0.00    +0.058 C 
ATOM      5  C   UNL     1      52.964 155.185  28.805  0.00  0.00    +0.038 C 
ENDROOT
BRANCH   1   6
ATOM      6  C   UNL     1      52.942 155.612  26.265  0.00  0.00    +0.105 C 
ATOM      7  C   UNL     1      54.341 156.260  26.547  0.00  0.00    +0.025 C 
ATOM      8  C   UNL     1      55.170 156.382  25.323  0.00  0.00    +0.070 C 
ATOM      9  C   UNL     1      54.344 156.621  24.115  0.00  0.00    +0.173 C 
ATOM     10  O   UNL     1      54.776 156.433  22.970  0.00  0.00    -0.291 OA
ATOM     11  C   UNL     1      52.975 157.095  24.339  0.00  0.00    +0.034 C 
ATOM     12  C   UNL     1      52.323 156.590  25.389  0.00  0.00    -0.011 C 
BRANCH   6  14
ATOM     13  N   UNL     1      54.055 154.174  24.720  0.00  0.00    -0.248 NA
ATOM     14  C   UNL     1      53.260 154.281  25.737  0.00  0.00    +0.065 C 
ATOM     15  C   UNL     1      52.777 153.012  26.298  0.00  0.00    -0.000 C 
ATOM     16  C   UNL     1      53.147 151.776  25.776  0.00  0.00    +0.069 C 
ATOM     17  C   UNL     1      53.994 151.728  24.699  0.00  0.00    +0.005 C 
ATOM     18  C   UNL     1      54.499 152.975  24.107  0.00  0.00    +0.095 C 
ATOM     19  C   UNL     1      54.371 150.493  24.160  0.00  0.00    -0.002 C 
ATOM     20  C   UNL     1      53.879 149.341  24.729  0.00  0.00    -0.001 C 
ATOM     21  C   UNL     1      53.026 149.381  25.813  0.00  0.00    -0.004 C 
ATOM     22  C   UNL     1      52.654 150.589  26.345  0.00  0.00    -0.014 C 
ATOM     23  C   UNL     1      51.806 150.704  27.413  0.00  0.00    -0.004 C 
ATOM     24  C   UNL     1      51.430 151.916  27.939  0.00  0.00    -0.001 C 
ATOM     25  C   UNL     1      51.921 153.076  27.374  0.00  0.00    -0.002 C 
ENDBRANCH   6  14
ENDBRANCH   1   6
BRANCH   3  26
ATOM     26  N   UNL     1      49.712 156.141  29.944  0.00  0.00    -0.157 NA
BRANCH  26  27
ATOM     27  C   UNL     1      49.316 157.474  29.760  0.00  0.00    +0.192 C 
ATOM     28  N   UNL     1      48.194 157.698  29.167  0.00  0.00    -0.069 NA
BRANCH  27  29
ATOM     29  C   UNL     1      50.084 158.632  30.193  0.00  0.00    +0.037 C 
ATOM     30  C   UNL     1      51.431 158.802  29.896  0.00  0.00    +0.004 C 
ATOM     31  C   UNL     1      52.131 159.910  30.320  0.00  0.00    +0.015 C 
ATOM     32  C   UNL     1      51.518 160.903  31.061  0.00  0.00    +0.051 C 
ATOM     33  C   UNL     1      50.188 160.739  31.358  0.00  0.00    +0.052 C 
ATOM     34  C   UNL     1      49.479 159.624  30.931  0.00  0.00    +0.007 C 
ATOM     35  C   UNL     1      49.574 161.735  32.102  0.00  0.00    +0.198 C 
ATOM     36  O   UNL     1      48.362 161.595  32.377  0.00  0.00    -0.286 OA
ATOM     37  C   UNL     1      50.293 162.837  32.517  0.00  0.00    +0.058 C 
ATOM     38  C   UNL     1      51.622 162.968  32.203  0.00  0.00    +0.065 C 
ATOM     39  N   UNL     1      52.206 161.996  31.480  0.00  0.00    -0.311 N 
ATOM     40  H   UNL     1      53.159 162.079  31.248  0.00  0.00    +0.152 HD
ENDBRANCH  27  29
BRANCH  28  41
ATOM     41  O   UNL     1      47.350 156.749  28.699  0.00  0.00    -0.408 OA
ATOM     42  H   UNL     1      46.551 156.999  28.278  0.00  0.00    +0.328 HD
ENDBRANCH  28  41
ENDBRANCH  26  27
ENDBRANCH   3  26
TORSDOF 6
