MODEL 1
REMARK VINA RESULT:    -8.154      0.000      0.000
REMARK INTER + INTRA:         -12.451
REMARK INTER:                 -11.967
REMARK INTRA:                  -0.484
REMARK UNBOUND:                -0.484
REMARK  Name = =
REMARK  8 active torsions:
REMARK  status: ('A' for Active; 'I' for Inactive)
REMARK    1  A    between atoms: N_1  and  C_12
REMARK    2  A    between atoms: C_6  and  C_18
REMARK    3  A    between atoms: C_8  and  C_13
REMARK    4  A    between atoms: C_18  and  O_19
REMARK    5  A    between atoms: O_19  and  C_20
REMARK    6  A    between atoms: C_21  and  C_26
REMARK    7  A    between atoms: C_24  and  O_28
REMARK    8  A    between atoms: O_28  and  O_29
REMARK                            x       y       z     vdW  Elec       q    Type
REMARK                         _______ _______ _______ _____ _____    ______ ____
ROOT
ATOM      1  N   UNL     1      51.302 156.902  29.447  0.00  0.00    -0.246 NA
ATOM      2  C   UNL     1      50.307 155.927  29.611  0.00  0.00    +0.148 C 
ATOM      3  N   UNL     1      50.495 154.686  28.906  0.00  0.00    -0.270 NA
ATOM      4  C   UNL     1      51.833 154.246  28.819  0.00  0.00    +0.144 C 
ATOM      5  N   UNL     1      52.829 155.247  28.974  0.00  0.00    -0.269 NA
ATOM      6  C   UNL     1      52.433 156.593  28.635  0.00  0.00    +0.162 C 
ATOM      7  H   UNL     1      50.139 154.803  27.957  0.00  0.00    +0.126 HD
ATOM      8  H   UNL     1      53.619 154.995  28.379  0.00  0.00    +0.126 HD
ENDROOT
BRANCH   1  14
ATOM      9  C   UNL     1      52.020 159.072  30.149  0.00  0.00    +0.022 C 
ATOM     10  C   UNL     1      51.607 160.242  30.956  0.00  0.00    +0.038 C 
ATOM     11  C   UNL     1      50.198 160.698  30.546  0.00  0.00    +0.006 C 
ATOM     12  C   UNL     1      49.284 159.579  30.978  0.00  0.00    +0.002 C 
ATOM     13  C   UNL     1      49.597 158.339  30.231  0.00  0.00    +0.016 C 
ATOM     14  C   UNL     1      50.919 158.278  29.539  0.00  0.00    +0.060 C 
BRANCH  10  15
ATOM     15  C   UNL     1      52.504 161.400  30.936  0.00  0.00    +0.041 C 
ATOM     16  C   UNL     1      52.236 162.579  31.471  0.00  0.00    +0.069 C 
ATOM     17  C   UNL     1      53.403 163.459  31.230  0.00  0.00    +0.000 C 
ATOM     18  C   UNL     1      54.344 162.587  30.485  0.00  0.00    +0.094 C 
ATOM     19  N   UNL     1      53.794 161.455  30.351  0.00  0.00    -0.252 NA
ENDBRANCH  10  15
ENDBRANCH   1  14
BRANCH   6  20
ATOM     20  C   UNL     1      52.084 156.632  27.138  0.00  0.00    +0.238 C 
BRANCH  20  21
ATOM     21  O   UNL     1      52.786 155.789  26.451  0.00  0.00    -0.472 OA
BRANCH  21  22
ATOM     22  C   UNL     1      53.462 154.951  25.761  0.00  0.00    +0.145 C 
ATOM     23  C   UNL     1      54.456 155.333  24.869  0.00  0.00    +0.076 C 
ATOM     24  C   UNL     1      55.158 154.370  24.137  0.00  0.00    +0.010 C 
ATOM     25  C   UNL     1      54.900 153.044  24.266  0.00  0.00    +0.041 C 
ATOM     26  C   UNL     1      53.912 152.625  25.150  0.00  0.00    +0.186 C 
ATOM     27  C   UNL     1      53.223 153.577  25.870  0.00  0.00    +0.078 C 
BRANCH  23  28
ATOM     28  C   UNL     1      54.782 156.708  24.701  0.00  0.00    +0.237 C 
ATOM     29  O   UNL     1      55.123 157.221  23.624  0.00  0.00    -0.283 OA
ENDBRANCH  23  28
BRANCH  26  30
ATOM     30  O   UNL     1      53.684 151.271  25.249  0.00  0.00    -0.333 OA
BRANCH  30  31
ATOM     31  O   UNL     1      54.478 150.383  24.710  0.00  0.00    -0.170 OA
ATOM     32  C   UNL     1      54.043 149.076  24.730  0.00  0.00    +0.232 C 
ENDBRANCH  30  31
ENDBRANCH  26  30
ENDBRANCH  21  22
ENDBRANCH  20  21
ENDBRANCH   6  20
TORSDOF 8
ENDMDL
