REMARK  Name = =
REMARK  0 active torsions:
REMARK  status: ('A' for Active; 'I' for Inactive)
REMARK                            x       y       z     vdW  Elec       q    Type
REMARK                         _______ _______ _______ _____ _____    ______ ____
ROOT
ATOM      1  C   UNL     1     -12.357 -42.638  27.451  0.00  0.00    -0.001 C 
ATOM      2  C   UNL     1     -11.177 -42.107  27.944  0.00  0.00    +0.096 C 
ATOM      3  N   UNL     1     -10.630 -42.559  29.088  0.00  0.00    -0.228 NA
ATOM      4  C   UNL     1     -11.183 -43.536  29.813  0.00  0.00    +0.151 C 
ATOM      5  N   UNL     1     -10.672 -44.011  30.950  0.00  0.00    -0.173 NA
ATOM      6  C   UNL     1     -11.220 -44.992  31.684  0.00  0.00    +0.187 C 
ATOM      7  N   UNL     1     -12.368 -45.537  31.242  0.00  0.00    -0.225 NA
ATOM      8  C   UNL     1     -12.939 -45.105  30.099  0.00  0.00    +0.099 C 
ATOM      9  C   UNL     1     -12.366 -44.100  29.358  0.00  0.00    +0.035 C 
ATOM     10  C   UNL     1     -12.938 -43.648  28.190  0.00  0.00    +0.058 C 
ENDROOT
TORSDOF 0
