MODEL 1
REMARK VINA RESULT:    -7.700      0.000      0.000
REMARK INTER + INTRA:         -12.308
REMARK INTER:                 -10.851
REMARK INTRA:                  -1.458
REMARK UNBOUND:                -1.458
REMARK  Name = =
REMARK  8 active torsions:
REMARK  status: ('A' for Active; 'I' for Inactive)
REMARK    1  A    between atoms: C_1  and  N_32
REMARK    2  A    between atoms: C_22  and  C_24
REMARK    3  A    between atoms: C_23  and  S_28
REMARK    4  A    between atoms: C_24  and  C_25
REMARK    5  A    between atoms: S_28  and  C_29
REMARK    6  A    between atoms: C_29  and  O_31
REMARK    7  A    between atoms: N_32  and  S_33
REMARK    8  A    between atoms: S_33  and  N_36
REMARK                            x       y       z     vdW  Elec       q    Type
REMARK                         _______ _______ _______ _____ _____    ______ ____
ROOT
ATOM      1  C   UNL     1      -0.680  -4.782  28.537  0.00  0.00    +0.093 C 
ATOM      2  C   UNL     1       0.324  -3.948  29.065  0.00  0.00    +0.019 C 
ATOM      3  C   UNL     1      -0.050  -3.830  27.650  0.00  0.00    +0.022 C 
ATOM      4  C   UNL     1      -0.748  -2.636  27.211  0.00  0.00    +0.006 C 
ATOM      5  C   UNL     1      -2.215  -2.540  27.506  0.00  0.00    +0.000 C 
ATOM      6  C   UNL     1      -0.093  -1.366  27.804  0.00  0.00    +0.026 C 
ATOM      7  C   UNL     1       1.182  -1.362  26.969  0.00  0.00    -0.026 C 
ATOM      8  C   UNL     1       1.922  -0.299  26.814  0.00  0.00    -0.005 C 
ATOM      9  C   UNL     1       1.557  -2.625  26.316  0.00  0.00    -0.026 C 
ATOM     10  C   UNL     1       2.144  -2.514  25.124  0.00  0.00    -0.005 C 
ATOM     11  C   UNL     1       1.299  -3.950  26.947  0.00  0.00    +0.025 C 
ATOM     12  C   UNL     1       1.219  -3.755  29.793  0.00  0.00    +0.002 C 
ATOM     13  C   UNL     1       2.218  -4.878  29.132  0.00  0.00    +0.003 C 
ATOM     14  C   UNL     1       2.459  -4.467  27.700  0.00  0.00    +0.020 C 
ATOM     15  C   UNL     1       3.613  -3.536  27.708  0.00  0.00    +0.089 C 
ATOM     16  N   UNL     1       4.365  -3.282  26.614  0.00  0.00    -0.218 NA
ATOM     17  C   UNL     1       5.139  -4.095  25.834  0.00  0.00    +0.089 C 
ATOM     18  C   UNL     1       5.014  -5.560  25.833  0.00  0.00    +0.019 C 
ATOM     19  C   UNL     1       4.358  -6.062  27.145  0.00  0.00    +0.002 C 
ATOM     20  C   UNL     1       2.907  -5.842  27.142  0.00  0.00    +0.002 C 
ATOM     21  C   UNL     1       1.433  -6.133  28.984  0.00  0.00    +0.012 C 
ATOM     22  C   UNL     1       2.142  -6.861  27.858  0.00  0.00    +0.008 C 
ATOM     23  C   UNL     1      -0.021  -6.163  28.879  0.00  0.00    +0.072 C 
ENDROOT
BRANCH  22  24
ATOM     24  C   UNL     1       2.706  -8.113  28.335  0.00  0.00    +0.065 C 
BRANCH  24  25
ATOM     25  C   UNL     1       2.629  -9.333  27.527  0.00  0.00    +0.151 C 
ATOM     26  O   UNL     1       1.642  -9.913  27.150  0.00  0.00    -0.296 OA
ATOM     27  C   UNL     1       3.898 -10.028  27.055  0.00  0.00    +0.072 C 
ENDBRANCH  24  25
ENDBRANCH  22  24
BRANCH  23  28
ATOM     28  S   UNL     1      -0.906  -7.448  28.122  0.00  0.00    -0.070 S 
BRANCH  28  29
ATOM     29  C   UNL     1      -1.281  -8.911  29.015  0.00  0.00    +0.199 C 
ATOM     30  S   UNL     1      -2.366  -8.884  30.281  0.00  0.00    -0.004 S 
BRANCH  29  31
ATOM     31  O   UNL     1      -0.743 -10.158  28.768  0.00  0.00    -0.496 OA
ATOM     32  H   UNL     1      -1.300 -10.867  28.513  0.00  0.00    +0.293 HD
ENDBRANCH  29  31
ENDBRANCH  28  29
ENDBRANCH  23  28
BRANCH   1  33
ATOM     33  N   UNL     1      -2.050  -4.793  28.786  0.00  0.00    -0.069 NA
BRANCH  33  34
ATOM     34  S   UNL     1      -2.573  -4.602  30.383  0.00  0.00    +0.109 S 
ATOM     35  O   UNL     1      -2.011  -5.634  31.323  0.00  0.00    -0.140 OA
ATOM     36  O   UNL     1      -4.082  -4.812  30.403  0.00  0.00    -0.140 OA
BRANCH  34  37
ATOM     37  N   UNL     1      -2.290  -3.043  31.036  0.00  0.00    -0.192 NA
ATOM     38  H   UNL     1      -2.951  -2.866  31.792  0.00  0.00    +0.145 HD
ATOM     39  H   UNL     1      -2.414  -2.341  30.306  0.00  0.00    +0.145 HD
ENDBRANCH  34  37
ENDBRANCH  33  34
ENDBRANCH   1  33
TORSDOF 8
ENDMDL
