REMARK  Name = =
REMARK  2 active torsions:
REMARK  status: ('A' for Active; 'I' for Inactive)
REMARK    1  A    between atoms: C_1  and  O_8
REMARK    2  A    between atoms: O_8  and  C_9
REMARK                            x       y       z     vdW  Elec       q    Type
REMARK                         _______ _______ _______ _____ _____    ______ ____
ROOT
ATOM      1  C   UNL     1     -14.047 -42.838  27.511  0.00  0.00    +0.305 C 
ATOM      2  C   UNL     1     -15.073 -42.325  26.753  0.00  0.00    +0.120 C 
ATOM      3  C   UNL     1     -16.378 -42.239  27.187  0.00  0.00    +0.205 C 
ATOM      4  O   UNL     1     -17.316 -41.777  26.515  0.00  0.00    -0.286 OA
ATOM      5  C   UNL     1     -16.639 -42.708  28.468  0.00  0.00    +0.083 C 
ATOM      6  C   UNL     1     -15.581 -43.215  29.193  0.00  0.00    +0.186 C 
ATOM      7  O   UNL     1     -14.358 -43.266  28.716  0.00  0.00    -0.420 OA
ENDROOT
BRANCH   1   8
ATOM      8  O   UNL     1     -12.732 -42.908  27.034  0.00  0.00    -0.412 OA
BRANCH   8   9
ATOM      9  C   UNL     1     -11.723 -43.205  27.926  0.00  0.00    +0.226 C 
ATOM     10  S   UNL     1     -10.891 -42.072  28.737  0.00  0.00    -0.007 S 
ENDBRANCH   8   9
ENDBRANCH   1   8
TORSDOF 2
