REMARK  Name = =
REMARK  0 active torsions:
REMARK  status: ('A' for Active; 'I' for Inactive)
REMARK                            x       y       z     vdW  Elec       q    Type
REMARK                         _______ _______ _______ _____ _____    ______ ____
ROOT
ATOM      1  N   UNL     1      -3.348  -3.761  31.297  0.00  0.00    -0.255 N 
ATOM      2  C   UNL     1      -3.497  -4.957  32.048  0.00  0.00    +0.229 C 
ATOM      3  O   UNL     1      -2.758  -5.969  32.036  0.00  0.00    -0.275 OA
ATOM      4  C   UNL     1      -4.711  -4.799  32.874  0.00  0.00    +0.095 C 
ATOM      5  C   UNL     1      -4.772  -3.295  33.057  0.00  0.00    +0.095 C 
ATOM      6  C   UNL     1      -4.362  -2.821  31.709  0.00  0.00    +0.229 C 
ATOM      7  O   UNL     1      -4.757  -1.844  31.025  0.00  0.00    -0.275 OA
ATOM      8  H   UNL     1      -2.664  -3.600  30.607  0.00  0.00    +0.158 HD
ENDROOT
TORSDOF 0
