REMARK  Name = =
REMARK  1 active torsions:
REMARK  status: ('A' for Active; 'I' for Inactive)
REMARK    1  A    between atoms: C_5  and  C_8
REMARK                            x       y       z     vdW  Elec       q    Type
REMARK                         _______ _______ _______ _____ _____    ______ ____
ROOT
ATOM      1  N   UNL     1      -3.332  -3.798  30.902  0.00  0.00    -0.255 N 
ATOM      2  C   UNL     1      -3.717  -4.835  31.808  0.00  0.00    +0.229 C 
ATOM      3  O   UNL     1      -3.299  -6.005  31.878  0.00  0.00    -0.275 OA
ATOM      4  C   UNL     1      -4.766  -4.227  32.701  0.00  0.00    +0.104 C 
ATOM      5  C   UNL     1      -5.434  -3.270  31.737  0.00  0.00    +0.162 C 
ATOM      6  C   UNL     1      -4.231  -2.695  31.037  0.00  0.00    +0.237 C 
ATOM      7  O   UNL     1      -4.036  -1.525  30.652  0.00  0.00    -0.274 OA
ATOM      8  H   UNL     1      -2.568  -3.837  30.283  0.00  0.00    +0.158 HD
ENDROOT
BRANCH   5   9
ATOM      9  C   UNL     1      -6.238  -2.253  32.400  0.00  0.00    +0.228 C 
ATOM     10  O   UNL     1      -6.287  -2.161  33.645  0.00  0.00    -0.275 OA
ATOM     11  N   UNL     1      -6.996  -1.333  31.629  0.00  0.00    -0.328 N 
ATOM     12  H   UNL     1      -6.977  -1.381  30.646  0.00  0.00    +0.145 HD
ATOM     13  H   UNL     1      -7.541  -0.647  32.077  0.00  0.00    +0.145 HD
ENDBRANCH   5   9
TORSDOF 1
