REMARK  Name = =
REMARK  3 active torsions:
REMARK  status: ('A' for Active; 'I' for Inactive)
REMARK    1  A    between atoms: C_1  and  N_12
REMARK    2  A    between atoms: C_1  and  N_22
REMARK    3  A    between atoms: C_16  and  C_19
REMARK                            x       y       z     vdW  Elec       q    Type
REMARK                         _______ _______ _______ _____ _____    ______ ____
ROOT
ATOM      1  C   UNL     1      -0.153  -4.335  29.433  0.00  0.00    +0.282 C 
ATOM      2  C   UNL     1      -0.205  -4.255  27.942  0.00  0.00    +0.261 C 
ATOM      3  O   UNL     1       1.037  -4.562  27.333  0.00  0.00    -0.444 OA
ATOM      4  C   UNL     1       1.567  -3.847  26.272  0.00  0.00    +0.317 C 
ATOM      5  O   UNL     1       2.031  -4.374  25.227  0.00  0.00    -0.250 OA
ATOM      6  C   UNL     1       1.591  -2.364  26.365  0.00  0.00    +0.113 C 
ATOM      7  C   UNL     1       2.552  -1.871  27.424  0.00  0.00    +0.059 C 
ATOM      8  C   UNL     1       1.847  -1.970  28.758  0.00  0.00    +0.209 C 
ATOM      9  O   UNL     1       2.092  -3.271  29.256  0.00  0.00    -0.446 OA
ATOM     10  C   UNL     1       1.214  -4.038  29.967  0.00  0.00    +0.359 C 
ATOM     11  O   UNL     1       1.494  -4.542  31.107  0.00  0.00    -0.246 OA
ENDROOT
BRANCH   1  12
ATOM     12  N   UNL     1      -0.553  -5.651  29.923  0.00  0.00    -0.201 N 
ATOM     13  C   UNL     1       0.128  -6.883  29.732  0.00  0.00    +0.234 C 
ATOM     14  O   UNL     1       1.194  -7.039  29.102  0.00  0.00    -0.274 OA
ATOM     15  C   UNL     1      -0.655  -7.939  30.412  0.00  0.00    +0.104 C 
ATOM     16  C   UNL     1      -1.444  -7.159  31.445  0.00  0.00    +0.162 C 
ATOM     17  C   UNL     1      -1.739  -5.897  30.700  0.00  0.00    +0.242 C 
ATOM     18  O   UNL     1      -2.773  -5.186  30.719  0.00  0.00    -0.274 OA
BRANCH  16  19
ATOM     19  C   UNL     1      -2.664  -7.858  31.871  0.00  0.00    +0.228 C 
ATOM     20  O   UNL     1      -2.807  -8.239  33.061  0.00  0.00    -0.275 OA
ATOM     21  N   UNL     1      -3.722  -8.130  30.963  0.00  0.00    -0.328 N 
ATOM     22  H   UNL     1      -3.648  -7.848  30.023  0.00  0.00    +0.145 HD
ATOM     23  H   UNL     1      -4.529  -8.601  31.274  0.00  0.00    +0.145 HD
ENDBRANCH  16  19
ENDBRANCH   1  12
BRANCH   1  24
ATOM     24  N   UNL     1      -1.022  -3.325  29.966  0.00  0.00    -0.238 NA
ATOM     25  C   UNL     1      -1.570  -2.454  29.207  0.00  0.00    +0.116 C 
ENDBRANCH   1  24
TORSDOF 3
