REMARK  Name = =
REMARK  6 active torsions:
REMARK  status: ('A' for Active; 'I' for Inactive)
REMARK    1  A    between atoms: C_1  and  N_12
REMARK    2  A    between atoms: C_1  and  N_31
REMARK    3  A    between atoms: C_2  and  C_27
REMARK    4  A    between atoms: C_15  and  S_19
REMARK    5  A    between atoms: C_16  and  C_24
REMARK    6  A    between atoms: N_29  and  N_30
REMARK                            x       y       z     vdW  Elec       q    Type
REMARK                         _______ _______ _______ _____ _____    ______ ____
ROOT
ATOM      1  C   UNL     1       0.925  -5.359  28.730  0.00  0.00    +0.287 C 
ATOM      2  C   UNL     1       2.287  -5.326  29.313  0.00  0.00    +0.293 C 
ATOM      3  O   UNL     1       3.004  -4.155  28.929  0.00  0.00    -0.438 OA
ATOM      4  C   UNL     1       4.041  -4.127  28.059  0.00  0.00    +0.318 C 
ATOM      5  O   UNL     1       4.284  -3.153  27.318  0.00  0.00    -0.250 OA
ATOM      6  C   UNL     1       4.940  -5.294  27.964  0.00  0.00    +0.113 C 
ATOM      7  C   UNL     1       4.450  -6.395  27.085  0.00  0.00    +0.059 C 
ATOM      8  C   UNL     1       3.185  -6.044  26.395  0.00  0.00    +0.209 C 
ATOM      9  O   UNL     1       2.009  -6.580  26.900  0.00  0.00    -0.446 OA
ATOM     10  C   UNL     1       0.888  -6.050  27.399  0.00  0.00    +0.360 C 
ATOM     11  O   UNL     1      -0.240  -6.063  26.863  0.00  0.00    -0.246 OA
ENDROOT
BRANCH   1  12
ATOM     12  N   UNL     1      -0.110  -5.805  29.619  0.00  0.00    -0.200 N 
ATOM     13  C   UNL     1      -0.950  -4.993  30.385  0.00  0.00    +0.242 C 
ATOM     14  O   UNL     1      -1.113  -3.722  30.346  0.00  0.00    -0.274 OA
ATOM     15  C   UNL     1      -1.696  -5.829  31.325  0.00  0.00    +0.125 C 
ATOM     16  C   UNL     1      -1.664  -7.190  30.735  0.00  0.00    +0.170 C 
ATOM     17  C   UNL     1      -0.459  -7.184  29.866  0.00  0.00    +0.243 C 
ATOM     18  O   UNL     1       0.096  -8.233  29.462  0.00  0.00    -0.274 OA
BRANCH  15  19
ATOM     19  S   UNL     1      -3.439  -5.288  31.312  0.00  0.00    -0.202 S 
ATOM     20  C   UNL     1      -3.618  -3.479  31.548  0.00  0.00    +0.057 C 
ATOM     21  C   UNL     1      -4.918  -3.540  32.364  0.00  0.00    +0.100 C 
ATOM     22  N   UNL     1      -4.676  -4.536  33.372  0.00  0.00    -0.207 NA
ATOM     23  C   UNL     1      -4.417  -5.794  32.697  0.00  0.00    +0.127 C 
ATOM     24  H   UNL     1      -3.834  -5.812  30.121  0.00  0.00    +0.086 HD
ENDBRANCH  15  19
BRANCH  16  25
ATOM     25  C   UNL     1      -1.584  -8.261  31.759  0.00  0.00    +0.229 C 
ATOM     26  O   UNL     1      -0.970  -8.035  32.829  0.00  0.00    -0.275 OA
ATOM     27  N   UNL     1      -2.194  -9.518  31.525  0.00  0.00    -0.328 N 
ATOM     28  H   UNL     1      -2.673  -9.683  30.681  0.00  0.00    +0.145 HD
ATOM     29  H   UNL     1      -2.139 -10.226  32.206  0.00  0.00    +0.145 HD
ENDBRANCH  16  25
ENDBRANCH   1  12
BRANCH   2  30
ATOM     30  C   UNL     1       2.297  -5.378  30.770  0.00  0.00    +0.280 C 
ATOM     31  O   UNL     1       2.261  -4.302  31.435  0.00  0.00    -0.270 OA
ATOM     32  N   UNL     1       2.352  -6.568  31.525  0.00  0.00    -0.250 N 
ATOM     33  H   UNL     1       2.387  -7.431  31.052  0.00  0.00    +0.169 HD
BRANCH  32  34
ATOM     34  N   UNL     1       2.359  -6.564  32.937  0.00  0.00    -0.254 NA
ATOM     35  H   UNL     1       2.319  -5.602  33.274  0.00  0.00    +0.140 HD
ATOM     36  H   UNL     1       3.213  -7.008  33.274  0.00  0.00    +0.140 HD
ENDBRANCH  32  34
ENDBRANCH   2  30
BRANCH   1  37
ATOM     37  N   UNL     1       0.594  -3.928  28.509  0.00  0.00    -0.238 NA
ATOM     38  C   UNL     1       0.648  -3.456  27.320  0.00  0.00    +0.116 C 
ENDBRANCH   1  37
TORSDOF 6
