MODEL 1
REMARK VINA RESULT:    -7.704      0.000      0.000
REMARK INTER + INTRA:         -12.664
REMARK INTER:                 -11.982
REMARK INTRA:                  -0.682
REMARK UNBOUND:                -0.682
REMARK  Name = =
REMARK  11 active torsions:
REMARK  status: ('A' for Active; 'I' for Inactive)
REMARK    1  A    between atoms: N_1  and  O_22
REMARK    2  A    between atoms: C_3  and  N_7
REMARK    3  A    between atoms: C_10  and  S_17
REMARK    4  A    between atoms: C_12  and  N_16
REMARK    5  A    between atoms: S_17  and  S_19
REMARK    6  A    between atoms: S_19  and  N_20
REMARK    7  A    between atoms: N_20  and  O_21
REMARK    8  A    between atoms: O_22  and  P_23
REMARK    9  A    between atoms: P_23  and  O_25
REMARK   10  A    between atoms: P_23  and  O_26
REMARK   11  A    between atoms: O_26  and  N_27
REMARK                            x       y       z     vdW  Elec       q    Type
REMARK                         _______ _______ _______ _____ _____    ______ ____
ROOT
ATOM      1  N   UNL     1      54.099 162.213  42.018  0.00  0.00    -0.149 NA
ATOM      2  C   UNL     1      55.445 161.696  42.166  0.00  0.00    +0.153 C 
ATOM      3  C   UNL     1      55.618 160.517  41.256  0.00  0.00    +0.217 C 
ATOM      4  O   UNL     1      54.654 159.548  41.406  0.00  0.00    -0.334 OA
ATOM      5  C   UNL     1      53.891 159.829  42.522  0.00  0.00    +0.164 C 
ATOM      6  C   UNL     1      53.172 161.151  42.257  0.00  0.00    +0.134 C 
ENDROOT
BRANCH   3   7
ATOM      7  N   UNL     1      56.918 159.920  41.578  0.00  0.00    -0.230 N 
ATOM      8  C   UNL     1      58.080 160.110  40.903  0.00  0.00    +0.161 A 
ATOM      9  N   UNL     1      58.406 160.831  39.829  0.00  0.00    -0.201 NA
ATOM     10  C   UNL     1      59.630 160.896  39.297  0.00  0.00    +0.234 A 
ATOM     11  N   UNL     1      60.604 160.169  39.907  0.00  0.00    -0.202 NA
ATOM     12  C   UNL     1      60.365 159.416  40.993  0.00  0.00    +0.148 A 
ATOM     13  C   UNL     1      59.086 159.376  41.512  0.00  0.00    +0.146 A 
ATOM     14  N   UNL     1      58.502 158.753  42.550  0.00  0.00    -0.222 NA
ATOM     15  C   UNL     1      57.198 159.081  42.589  0.00  0.00    +0.171 C 
BRANCH  12  16
ATOM     16  N   UNL     1      61.395 158.668  41.610  0.00  0.00    -0.341 N 
ATOM     17  H   UNL     1      62.211 159.120  41.925  0.00  0.00    +0.144 HD
ATOM     18  H   UNL     1      61.295 157.696  41.725  0.00  0.00    +0.144 HD
ENDBRANCH  12  16
BRANCH  10  19
ATOM     19  S   UNL     1      59.928 161.877  37.891  0.00  0.00    +0.168 S 
ATOM     20  O   UNL     1      61.361 162.202  37.629  0.00  0.00    -0.236 OA
BRANCH  19  21
ATOM     21  S   UNL     1      58.781 161.441  36.230  0.00  0.00    +0.056 S 
BRANCH  21  22
ATOM     22  N   UNL     1      59.204 162.291  34.772  0.00  0.00    -0.134 NA
ATOM     23  H   UNL     1      60.220 162.347  34.703  0.00  0.00    +0.169 HD
BRANCH  22  24
ATOM     24  O   UNL     1      58.723 161.662  33.677  0.00  0.00    -0.304 OA
ATOM     25  H   UNL     1      58.361 160.799  33.933  0.00  0.00    +0.237 HD
ENDBRANCH  22  24
ENDBRANCH  21  22
ENDBRANCH  19  21
ENDBRANCH  10  19
ENDBRANCH   3   7
BRANCH   1  26
ATOM     26  O   UNL     1      53.997 162.786  40.819  0.00  0.00    -0.192 OA
BRANCH  26  27
ATOM     27  P   UNL     1      53.829 164.461  40.890  0.00  0.00    +0.511 P 
ATOM     28  O   UNL     1      55.148 165.180  40.861  0.00  0.00    -0.224 OA
BRANCH  27  29
ATOM     29  O   UNL     1      52.961 164.934  39.503  0.00  0.00    -0.300 OA
ATOM     30  H   UNL     1      52.876 165.900  39.489  0.00  0.00    +0.222 HD
ENDBRANCH  27  29
BRANCH  27  31
ATOM     31  O   UNL     1      52.962 164.966  42.237  0.00  0.00    -0.171 OA
BRANCH  31  32
ATOM     32  N   UNL     1      51.666 165.097  41.845  0.00  0.00    -0.159 N 
ATOM     33  C   UNL     1      51.136 166.413  41.716  0.00  0.00    +0.248 C 
ATOM     34  O   UNL     1      51.924 167.308  42.097  0.00  0.00    -0.273 OA
ATOM     35  C   UNL     1      49.792 166.841  41.197  0.00  0.00    +0.087 C 
ATOM     36  C   UNL     1      49.202 165.784  40.293  0.00  0.00    +0.010 C 
ATOM     37  C   UNL     1      48.593 164.649  41.065  0.00  0.00    +0.002 C 
ATOM     38  C   UNL     1      49.522 164.072  42.095  0.00  0.00    +0.024 C 
ATOM     39  C   UNL     1      50.924 163.872  41.590  0.00  0.00    +0.125 C 
ENDBRANCH  31  32
ENDBRANCH  27  31
ENDBRANCH  26  27
ENDBRANCH   1  26
TORSDOF 11
ENDMDL
