REMARK  Name = =
REMARK  0 active torsions:
REMARK  status: ('A' for Active; 'I' for Inactive)
REMARK                            x       y       z     vdW  Elec       q    Type
REMARK                         _______ _______ _______ _____ _____    ______ ____
ROOT
ATOM      1  S   UNL     1      -3.661  -3.740  31.259  0.00  0.00    +0.019 S 
ATOM      2  O   UNL     1      -2.920  -2.580  31.034  0.00  0.00    -0.260 OA
ATOM      3  C   UNL     1      -4.182  -3.652  32.623  0.00  0.00    +0.102 C 
ATOM      4  H   UNL     1      -4.687  -3.819  30.370  0.00  0.00    +0.139 HD
ENDROOT
TORSDOF 0
