REMARK  Name = =
REMARK  3 active torsions:
REMARK  status: ('A' for Active; 'I' for Inactive)
REMARK    1  A    between atoms: C_1  and  S_3
REMARK    2  A    between atoms: C_2  and  C_6
REMARK    3  A    between atoms: C_6  and  O_8
REMARK                            x       y       z     vdW  Elec       q    Type
REMARK                         _______ _______ _______ _____ _____    ______ ____
ROOT
ATOM      1  C   UNL     1      -3.405  -3.036  31.236  0.00  0.00    +0.043 C 
ATOM      2  C   UNL     1      -4.273  -2.263  31.830  0.00  0.00    +0.089 C 
ENDROOT
BRANCH   1   3
ATOM      3  S   UNL     1      -3.677  -4.745  30.952  0.00  0.00    -0.072 S 
ATOM      4  O   UNL     1      -4.249  -4.841  29.536  0.00  0.00    -0.170 OA
ATOM      5  C   UNL     1      -2.294  -5.504  30.754  0.00  0.00    +0.081 C 
ATOM      6  H   UNL     1      -4.425  -5.244  31.972  0.00  0.00    +0.118 HD
ENDBRANCH   1   3
BRANCH   2   7
ATOM      7  C   UNL     1      -5.555  -2.754  32.311  0.00  0.00    +0.339 C 
ATOM      8  O   UNL     1      -5.720  -3.059  33.528  0.00  0.00    -0.245 OA
BRANCH   7   9
ATOM      9  O   UNL     1      -6.635  -2.908  31.477  0.00  0.00    -0.477 OA
ATOM     10  H   UNL     1      -6.559  -2.695  30.568  0.00  0.00    +0.295 HD
ENDBRANCH   7   9
ENDBRANCH   2   7
TORSDOF 3
