REMARK  Name = =
REMARK  4 active torsions:
REMARK  status: ('A' for Active; 'I' for Inactive)
REMARK    1  A    between atoms: C_1  and  C_15
REMARK    2  A    between atoms: C_15  and  S_17
REMARK    3  A    between atoms: C_16  and  C_20
REMARK    4  A    between atoms: C_20  and  O_22
REMARK                            x       y       z     vdW  Elec       q    Type
REMARK                         _______ _______ _______ _____ _____    ______ ____
ROOT
ATOM      1  C   UNL     1       3.796  -3.785  23.484  0.00  0.00    +0.008 C 
ATOM      2  C   UNL     1       3.446  -3.110  22.365  0.00  0.00    +0.020 C 
ATOM      3  C   UNL     1       3.135  -3.773  21.193  0.00  0.00    +0.081 C 
ATOM      4  N   UNL     1       2.792  -3.039  20.099  0.00  0.00    -0.244 NA
ATOM      5  C   UNL     1       2.480  -3.645  18.926  0.00  0.00    +0.099 C 
ATOM      6  C   UNL     1       2.491  -5.021  18.782  0.00  0.00    +0.099 C 
ATOM      7  N   UNL     1       2.178  -5.625  17.609  0.00  0.00    -0.242 NA
ATOM      8  C   UNL     1       1.835  -4.926  16.510  0.00  0.00    +0.099 C 
ATOM      9  C   UNL     1       1.814  -3.554  16.621  0.00  0.00    +0.022 C 
ATOM     10  C   UNL     1       2.130  -2.902  17.807  0.00  0.00    +0.022 C 
ATOM     11  C   UNL     1       2.840  -5.755  19.901  0.00  0.00    +0.022 C 
ATOM     12  C   UNL     1       3.160  -5.148  21.097  0.00  0.00    +0.019 C 
ATOM     13  C   UNL     1       3.513  -5.853  22.235  0.00  0.00    +0.002 C 
ATOM     14  C   UNL     1       3.819  -5.197  23.378  0.00  0.00    +0.001 C 
ENDROOT
BRANCH   1  15
ATOM     15  C   UNL     1       4.264  -3.248  24.738  0.00  0.00    +0.037 C 
ATOM     16  C   UNL     1       4.334  -2.048  25.135  0.00  0.00    +0.088 C 
BRANCH  15  17
ATOM     17  S   UNL     1       4.774  -4.501  25.921  0.00  0.00    -0.072 S 
ATOM     18  O   UNL     1       6.060  -4.026  26.547  0.00  0.00    -0.170 OA
ATOM     19  C   UNL     1       3.793  -4.509  27.176  0.00  0.00    +0.081 C 
ATOM     20  H   UNL     1       4.829  -5.696  25.274  0.00  0.00    +0.118 HD
ENDBRANCH  15  17
BRANCH  16  21
ATOM     21  C   UNL     1       4.031  -0.770  24.595  0.00  0.00    +0.339 C 
ATOM     22  O   UNL     1       2.890  -0.234  24.929  0.00  0.00    -0.245 OA
BRANCH  21  23
ATOM     23  O   UNL     1       4.774   0.004  23.766  0.00  0.00    -0.477 OA
ATOM     24  H   UNL     1       5.611  -0.296  23.470  0.00  0.00    +0.295 HD
ENDBRANCH  21  23
ENDBRANCH  16  21
ENDBRANCH   1  15
TORSDOF 4
