REMARK  Name = =
REMARK  5 active torsions:
REMARK  status: ('A' for Active; 'I' for Inactive)
REMARK    1  A    between atoms: C_1  and  C_3
REMARK    2  A    between atoms: C_1  and  S_17
REMARK    3  A    between atoms: C_2  and  C_20
REMARK    4  A    between atoms: C_20  and  O_22
REMARK    5  A    between atoms: O_22  and  C_23
REMARK                            x       y       z     vdW  Elec       q    Type
REMARK                         _______ _______ _______ _____ _____    ______ ____
ROOT
ATOM      1  C   UNL     1       4.382  -3.036  24.150  0.00  0.00    +0.037 C 
ATOM      2  C   UNL     1       3.765  -3.639  25.083  0.00  0.00    +0.089 C 
ENDROOT
BRANCH   1   3
ATOM      3  C   UNL     1       3.923  -1.987  23.273  0.00  0.00    +0.008 C 
ATOM      4  C   UNL     1       2.901  -2.015  22.385  0.00  0.00    +0.020 C 
ATOM      5  C   UNL     1       2.515  -0.855  21.699  0.00  0.00    +0.081 C 
ATOM      6  N   UNL     1       1.500  -0.893  20.824  0.00  0.00    -0.244 NA
ATOM      7  C   UNL     1       1.088   0.189  20.140  0.00  0.00    +0.099 C 
ATOM      8  C   UNL     1       1.704   1.413  20.309  0.00  0.00    +0.099 C 
ATOM      9  N   UNL     1       1.316   2.513  19.640  0.00  0.00    -0.242 NA
ATOM     10  C   UNL     1       0.286   2.479  18.750  0.00  0.00    +0.099 C 
ATOM     11  C   UNL     1      -0.331   1.262  18.578  0.00  0.00    +0.022 C 
ATOM     12  C   UNL     1       0.035   0.117  19.241  0.00  0.00    +0.022 C 
ATOM     13  C   UNL     1       2.762   1.468  21.217  0.00  0.00    +0.022 C 
ATOM     14  C   UNL     1       3.162   0.344  21.903  0.00  0.00    +0.019 C 
ATOM     15  C   UNL     1       4.212   0.408  22.802  0.00  0.00    +0.002 C 
ATOM     16  C   UNL     1       4.556  -0.745  23.451  0.00  0.00    +0.001 C 
ENDBRANCH   1   3
BRANCH   1  17
ATOM     17  S   UNL     1       6.070  -3.615  23.842  0.00  0.00    -0.072 S 
ATOM     18  O   UNL     1       6.826  -3.494  25.130  0.00  0.00    -0.170 OA
ATOM     19  C   UNL     1       6.016  -5.192  23.637  0.00  0.00    +0.081 C 
ATOM     20  H   UNL     1       6.606  -2.930  22.797  0.00  0.00    +0.118 HD
ENDBRANCH   1  17
BRANCH   2  21
ATOM     21  C   UNL     1       2.438  -3.546  25.650  0.00  0.00    +0.346 C 
ATOM     22  O   UNL     1       1.454  -2.907  25.257  0.00  0.00    -0.244 OA
BRANCH  21  23
ATOM     23  O   UNL     1       2.153  -4.283  26.852  0.00  0.00    -0.419 OA
BRANCH  23  24
ATOM     24  C   UNL     1       1.170  -3.793  27.692  0.00  0.00    +0.178 C 
ATOM     25  C   UNL     1       0.000  -4.497  27.847  0.00  0.00    +0.202 C 
ATOM     26  C   UNL     1      -1.039  -4.109  28.651  0.00  0.00    +0.170 C 
ATOM     27  C   UNL     1      -0.888  -2.915  29.354  0.00  0.00    +0.032 C 
ATOM     28  C   UNL     1       0.269  -2.174  29.231  0.00  0.00    +0.006 C 
ATOM     29  C   UNL     1       1.299  -2.614  28.398  0.00  0.00    +0.040 C 
ATOM     30  F   UNL     1      -2.185  -4.822  28.787  0.00  0.00    -0.202 F 
ATOM     31  F   UNL     1      -0.149  -5.665  27.160  0.00  0.00    -0.199 F 
ENDBRANCH  23  24
ENDBRANCH  21  23
ENDBRANCH   2  21
TORSDOF 5
