REMARK  Name = =
REMARK  6 active torsions:
REMARK  status: ('A' for Active; 'I' for Inactive)
REMARK    1  A    between atoms: C_1  and  C_3
REMARK    2  A    between atoms: C_1  and  S_17
REMARK    3  A    between atoms: C_2  and  C_20
REMARK    4  A    between atoms: C_20  and  O_22
REMARK    5  A    between atoms: O_22  and  C_23
REMARK    6  A    between atoms: C_26  and  C_31
REMARK                            x       y       z     vdW  Elec       q    Type
REMARK                         _______ _______ _______ _____ _____    ______ ____
ROOT
ATOM      1  C   UNL     1       2.782  -2.564  24.277  0.00  0.00    +0.037 C 
ATOM      2  C   UNL     1       1.954  -2.291  25.242  0.00  0.00    +0.089 C 
ENDROOT
BRANCH   1   3
ATOM      3  C   UNL     1       2.698  -1.748  23.040  0.00  0.00    +0.008 C 
ATOM      4  C   UNL     1       1.502  -1.199  22.667  0.00  0.00    +0.020 C 
ATOM      5  C   UNL     1       1.369  -0.362  21.540  0.00  0.00    +0.081 C 
ATOM      6  N   UNL     1       0.178   0.163  21.195  0.00  0.00    -0.244 NA
ATOM      7  C   UNL     1       0.017   0.961  20.126  0.00  0.00    +0.099 C 
ATOM      8  C   UNL     1       1.090   1.287  19.314  0.00  0.00    +0.099 C 
ATOM      9  N   UNL     1       0.921   2.086  18.246  0.00  0.00    -0.242 NA
ATOM     10  C   UNL     1      -0.276   2.606  17.903  0.00  0.00    +0.099 C 
ATOM     11  C   UNL     1      -1.391   2.314  18.679  0.00  0.00    +0.022 C 
ATOM     12  C   UNL     1      -1.202   1.496  19.772  0.00  0.00    +0.022 C 
ATOM     13  C   UNL     1       2.317   0.748  19.671  0.00  0.00    +0.022 C 
ATOM     14  C   UNL     1       2.473  -0.075  20.774  0.00  0.00    +0.019 C 
ATOM     15  C   UNL     1       3.672  -0.626  21.150  0.00  0.00    +0.002 C 
ATOM     16  C   UNL     1       3.798  -1.455  22.269  0.00  0.00    +0.001 C 
ENDBRANCH   1   3
BRANCH   1  17
ATOM     17  S   UNL     1       3.866  -3.913  24.396  0.00  0.00    -0.072 S 
ATOM     18  O   UNL     1       3.826  -4.680  23.055  0.00  0.00    -0.170 OA
ATOM     19  C   UNL     1       5.415  -3.459  24.335  0.00  0.00    +0.081 C 
ATOM     20  H   UNL     1       3.507  -4.569  25.532  0.00  0.00    +0.118 HD
ENDBRANCH   1  17
BRANCH   2  21
ATOM     21  C   UNL     1       1.933  -2.996  26.492  0.00  0.00    +0.346 C 
ATOM     22  O   UNL     1       2.862  -3.713  26.877  0.00  0.00    -0.244 OA
BRANCH  21  23
ATOM     23  O   UNL     1       0.812  -2.869  27.315  0.00  0.00    -0.419 OA
BRANCH  23  24
ATOM     24  C   UNL     1       0.394  -3.866  28.177  0.00  0.00    +0.178 C 
ATOM     25  C   UNL     1       0.908  -4.101  29.422  0.00  0.00    +0.202 C 
ATOM     26  C   UNL     1       0.433  -5.120  30.226  0.00  0.00    +0.172 C 
ATOM     27  C   UNL     1      -0.592  -5.958  29.809  0.00  0.00    +0.051 C 
ATOM     28  C   UNL     1      -1.114  -5.727  28.553  0.00  0.00    +0.007 C 
ATOM     29  C   UNL     1      -0.632  -4.699  27.747  0.00  0.00    +0.040 C 
ATOM     30  F   UNL     1       0.957  -5.341  31.463  0.00  0.00    -0.202 F 
ATOM     31  F   UNL     1       1.906  -3.312  29.877  0.00  0.00    -0.199 F 
BRANCH  27  32
ATOM     32  C   UNL     1      -1.084  -7.024  30.674  0.00  0.00    +0.124 C 
ATOM     33  N   UNL     1      -0.471  -7.601  31.713  0.00  0.00    -0.204 NA
ATOM     34  C   UNL     1      -1.302  -8.536  32.224  0.00  0.00    +0.285 C 
ATOM     35  O   UNL     1      -2.392  -8.541  31.527  0.00  0.00    -0.428 OA
ATOM     36  C   UNL     1      -2.307  -7.641  30.577  0.00  0.00    +0.201 C 
ENDBRANCH  27  32
ENDBRANCH  23  24
ENDBRANCH  21  23
ENDBRANCH   2  21
TORSDOF 6
