REMARK  Name = =
REMARK  5 active torsions:
REMARK  status: ('A' for Active; 'I' for Inactive)
REMARK    1  A    between atoms: N_1  and  C_9
REMARK    2  A    between atoms: C_3  and  C_22
REMARK    3  A    between atoms: C_10  and  N_14
REMARK    4  A    between atoms: C_22  and  C_23
REMARK    5  A    between atoms: C_23  and  C_25
REMARK                            x       y       z     vdW  Elec       q    Type
REMARK                         _______ _______ _______ _____ _____    ______ ____
ROOT
ATOM      1  N   UNL     1       1.088  -5.367  30.043  0.00  0.00    -0.269 NA
ATOM      2  C   UNL     1       1.879  -6.391  29.441  0.00  0.00    +0.088 C 
ATOM      3  C   UNL     1       2.906  -5.924  28.437  0.00  0.00    +0.074 C 
ATOM      4  N   UNL     1       3.279  -4.582  28.488  0.00  0.00    -0.296 NA
ATOM      5  C   UNL     1       2.805  -3.712  29.482  0.00  0.00    +0.086 C 
ATOM      6  C   UNL     1       1.852  -4.243  30.491  0.00  0.00    +0.089 C 
ATOM      7  H   UNL     1       2.999  -4.175  27.596  0.00  0.00    +0.123 HD
ENDROOT
BRANCH   1  10
ATOM      8  N   UNL     1      -1.085  -7.166  28.886  0.00  0.00    -0.269 N 
ATOM      9  C   UNL     1      -1.260  -6.114  29.891  0.00  0.00    +0.112 C 
ATOM     10  C   UNL     1      -0.181  -5.116  29.523  0.00  0.00    +0.098 C 
ATOM     11  C   UNL     1      -0.347  -5.192  28.017  0.00  0.00    +0.118 C 
ATOM     12  C   UNL     1      -0.256  -6.648  27.781  0.00  0.00    +0.115 C 
ATOM     13  C   UNL     1      -1.606  -8.484  28.925  0.00  0.00    +0.303 C 
ATOM     14  O   UNL     1      -2.308  -8.884  29.885  0.00  0.00    -0.265 OA
BRANCH  11  15
ATOM     15  N   UNL     1       0.405  -4.312  27.237  0.00  0.00    -0.228 N 
ATOM     16  C   UNL     1       1.395  -4.710  26.270  0.00  0.00    +0.231 C 
ATOM     17  O   UNL     1       1.314  -5.814  25.735  0.00  0.00    -0.274 OA
ATOM     18  C   UNL     1       2.466  -3.726  25.990  0.00  0.00    +0.086 C 
ATOM     19  C   UNL     1       1.906  -2.399  25.529  0.00  0.00    +0.019 C 
ATOM     20  C   UNL     1       0.714  -1.940  26.312  0.00  0.00    +0.086 C 
ATOM     21  C   UNL     1       0.251  -2.886  27.346  0.00  0.00    +0.231 C 
ATOM     22  O   UNL     1      -0.304  -2.436  28.373  0.00  0.00    -0.274 OA
ENDBRANCH  11  15
ENDBRANCH   1  10
BRANCH   3  23
ATOM     23  C   UNL     1       4.071  -6.932  28.390  0.00  0.00    +0.039 C 
BRANCH  23  24
ATOM     24  C   UNL     1       3.865  -8.027  27.441  0.00  0.00    -0.039 C 
ATOM     25  C   UNL     1       2.709  -8.667  27.477  0.00  0.00    -0.009 C 
BRANCH  24  26
ATOM     26  C   UNL     1       4.891  -8.406  26.416  0.00  0.00    +0.037 C 
ATOM     27  C   UNL     1       6.266  -8.418  26.970  0.00  0.00    +0.007 C 
ATOM     28  C   UNL     1       6.856  -9.718  27.377  0.00  0.00    +0.001 C 
ATOM     29  C   UNL     1       7.520 -10.441  26.220  0.00  0.00    +0.000 C 
ATOM     30  C   UNL     1       8.623  -9.566  25.659  0.00  0.00    +0.000 C 
ATOM     31  C   UNL     1       8.089  -8.218  25.226  0.00  0.00    +0.000 C 
ATOM     32  C   UNL     1       7.289  -7.588  26.313  0.00  0.00    +0.001 C 
ATOM     33  C   UNL     1       6.813  -6.225  25.969  0.00  0.00    +0.004 C 
ATOM     34  C   UNL     1       5.523  -6.220  25.199  0.00  0.00    +0.022 C 
ATOM     35  C   UNL     1       4.846  -7.521  25.233  0.00  0.00    -0.041 C 
ATOM     36  C   UNL     1       4.156  -7.938  24.139  0.00  0.00    -0.009 C 
ENDBRANCH  24  26
ENDBRANCH  23  24
ENDBRANCH   3  23
TORSDOF 5
