REMARK  Name = =
REMARK  8 active torsions:
REMARK  status: ('A' for Active; 'I' for Inactive)
REMARK    1  A    between atoms: C_1  and  C_2
REMARK    2  A    between atoms: C_1  and  C_3
REMARK    3  A    between atoms: C_1  and  S_29
REMARK    4  A    between atoms: C_2  and  C_17
REMARK    5  A    between atoms: C_2  and  C_32
REMARK    6  A    between atoms: C_32  and  O_34
REMARK    7  A    between atoms: O_34  and  C_35
REMARK    8  A    between atoms: C_38  and  C_43
REMARK                            x       y       z     vdW  Elec       q    Type
REMARK                         _______ _______ _______ _____ _____    ______ ____
ROOT
ATOM      1  C   UNL     1       4.748  -5.331  24.415  0.00  0.00    +0.139 C 
ENDROOT
BRANCH   1   2
ATOM      2  C   UNL     1       5.404  -6.274  25.273  0.00  0.00    +0.031 C 
ATOM      3  C   UNL     1       6.356  -5.849  26.154  0.00  0.00    +0.041 C 
ATOM      4  C   UNL     1       7.071  -6.717  27.071  0.00  0.00    +0.196 C 
ATOM      5  O   UNL     1       7.932  -6.225  27.840  0.00  0.00    -0.287 OA
ATOM      6  C   UNL     1       6.818  -8.124  27.122  0.00  0.00    +0.042 C 
ATOM      7  C   UNL     1       5.877  -8.640  26.277  0.00  0.00    +0.042 C 
ATOM      8  C   UNL     1       5.585  -9.989  26.273  0.00  0.00    +0.003 C 
ATOM      9  C   UNL     1       6.244 -10.827  27.127  0.00  0.00    +0.000 C 
ATOM     10  C   UNL     1       7.197 -10.336  27.990  0.00  0.00    +0.000 C 
ATOM     11  C   UNL     1       7.471  -8.988  27.975  0.00  0.00    +0.003 C 
ATOM     12  C   UNL     1       5.175  -7.704  25.356  0.00  0.00    +0.192 C 
ATOM     13  O   UNL     1       4.346  -8.263  24.641  0.00  0.00    -0.287 OA
ENDBRANCH   1   2
BRANCH   1  14
ATOM     14  C   UNL     1       3.850  -4.372  25.178  0.00  0.00    +0.326 C 
ATOM     15  O   UNL     1       4.221  -3.530  25.999  0.00  0.00    -0.249 OA
BRANCH  14  16
ATOM     16  O   UNL     1       2.472  -4.392  24.997  0.00  0.00    -0.421 OA
BRANCH  16  17
ATOM     17  C   UNL     1       1.569  -4.129  26.020  0.00  0.00    +0.178 C 
ATOM     18  C   UNL     1       1.365  -4.958  27.094  0.00  0.00    +0.202 C 
ATOM     19  C   UNL     1       0.437  -4.593  28.056  0.00  0.00    +0.172 C 
ATOM     20  C   UNL     1      -0.301  -3.437  27.998  0.00  0.00    +0.051 C 
ATOM     21  C   UNL     1      -0.073  -2.619  26.901  0.00  0.00    +0.007 C 
ATOM     22  C   UNL     1       0.839  -2.966  25.946  0.00  0.00    +0.040 C 
ATOM     23  F   UNL     1       0.252  -5.436  29.119  0.00  0.00    -0.202 F 
ATOM     24  F   UNL     1       2.074  -6.113  27.193  0.00  0.00    -0.199 F 
BRANCH  20  25
ATOM     25  C   UNL     1      -1.283  -3.028  28.991  0.00  0.00    +0.124 C 
ATOM     26  N   UNL     1      -2.083  -1.941  28.897  0.00  0.00    -0.204 NA
ATOM     27  C   UNL     1      -2.869  -1.843  29.970  0.00  0.00    +0.285 C 
ATOM     28  O   UNL     1      -2.562  -2.863  30.729  0.00  0.00    -0.428 OA
ATOM     29  C   UNL     1      -1.617  -3.604  30.188  0.00  0.00    +0.201 C 
ENDBRANCH  20  25
ENDBRANCH  16  17
ENDBRANCH  14  16
ENDBRANCH   1  14
BRANCH   1  30
ATOM     30  C   UNL     1       4.563  -5.258  23.160  0.00  0.00    +0.091 C 
BRANCH  30  31
ATOM     31  C   UNL     1       3.818  -4.071  22.577  0.00  0.00    -0.010 C 
ATOM     32  C   UNL     1       4.302  -2.797  22.645  0.00  0.00    +0.016 C 
ATOM     33  C   UNL     1       3.576  -1.751  22.044  0.00  0.00    +0.081 C 
ATOM     34  N   UNL     1       4.106  -0.500  22.142  0.00  0.00    -0.244 NA
ATOM     35  C   UNL     1       3.444   0.531  21.582  0.00  0.00    +0.099 C 
ATOM     36  C   UNL     1       2.254   0.299  20.927  0.00  0.00    +0.099 C 
ATOM     37  N   UNL     1       1.591   1.351  20.363  0.00  0.00    -0.242 NA
ATOM     38  C   UNL     1       2.061   2.609  20.425  0.00  0.00    +0.099 C 
ATOM     39  C   UNL     1       3.247   2.890  21.069  0.00  0.00    +0.022 C 
ATOM     40  C   UNL     1       3.917   1.826  21.640  0.00  0.00    +0.022 C 
ATOM     41  C   UNL     1       1.713  -0.960  20.824  0.00  0.00    +0.022 C 
ATOM     42  C   UNL     1       2.396  -2.026  21.402  0.00  0.00    +0.019 C 
ATOM     43  C   UNL     1       1.921  -3.302  21.341  0.00  0.00    +0.001 C 
ATOM     44  C   UNL     1       2.643  -4.340  21.937  0.00  0.00    -0.003 C 
ENDBRANCH  30  31
BRANCH  30  45
ATOM     45  S   UNL     1       5.076  -6.321  21.884  0.00  0.00    -0.088 S 
ATOM     46  O   UNL     1       4.481  -5.727  20.527  0.00  0.00    -0.174 OA
ATOM     47  C   UNL     1       6.609  -6.155  21.494  0.00  0.00    +0.076 C 
ATOM     48  H   UNL     1       4.736  -7.571  22.299  0.00  0.00    +0.114 HD
ENDBRANCH  30  45
ENDBRANCH   1  30
TORSDOF 8
