REMARK  Name = =
REMARK  0 active torsions:
REMARK  status: ('A' for Active; 'I' for Inactive)
REMARK                            x       y       z     vdW  Elec       q    Type
REMARK                         _______ _______ _______ _____ _____    ______ ____
ROOT
ATOM      1  N   UNL     1      -3.397  -3.967  31.154  0.00  0.00    -0.272 N 
ATOM      2  C   UNL     1      -3.838  -3.300  32.383  0.00  0.00    +0.094 C 
ATOM      3  C   UNL     1      -4.767  -4.328  32.977  0.00  0.00    +0.023 C 
ATOM      4  C   UNL     1      -3.934  -5.602  32.768  0.00  0.00    +0.023 C 
ATOM      5  C   UNL     1      -3.490  -5.405  31.335  0.00  0.00    +0.094 C 
ATOM      6  C   UNL     1      -2.956  -3.305  29.989  0.00  0.00    +0.303 C 
ATOM      7  O   UNL     1      -2.902  -2.052  29.903  0.00  0.00    -0.265 OA
ENDROOT
TORSDOF 0
