REMARK  Name = =
REMARK  1 active torsions:
REMARK  status: ('A' for Active; 'I' for Inactive)
REMARK    1  A    between atoms: C_1  and  C_14
REMARK                            x       y       z     vdW  Elec       q    Type
REMARK                         _______ _______ _______ _____ _____    ______ ____
ROOT
ATOM      1  C   UNL     1     -15.231 -13.029  21.982  0.00  0.00    -0.003 C 
ATOM      2  C   UNL     1     -15.348 -11.684  21.706  0.00  0.00    -0.001 C 
ATOM      3  C   UNL     1     -14.840 -11.112  20.553  0.00  0.00    +0.021 C 
ATOM      4  C   UNL     1     -14.197 -11.890  19.643  0.00  0.00    +0.135 C 
ATOM      5  C   UNL     1     -14.060 -13.240  19.884  0.00  0.00    +0.064 C 
ATOM      6  C   UNL     1     -14.578 -13.808  21.056  0.00  0.00    +0.013 C 
ATOM      7  N   UNL     1     -13.379 -14.025  18.919  0.00  0.00    -0.317 N 
ATOM      8  C   UNL     1     -12.305 -13.621  18.085  0.00  0.00    +0.182 C 
ATOM      9  N   UNL     1     -12.191 -12.249  17.753  0.00  0.00    -0.160 NA
ATOM     10  S   UNL     1     -13.517 -11.274  18.149  0.00  0.00    +0.063 S 
ATOM     11  O   UNL     1     -13.150  -9.840  18.393  0.00  0.00    -0.153 OA
ATOM     12  O   UNL     1     -14.569 -11.391  17.080  0.00  0.00    -0.153 OA
ATOM     13  H   UNL     1     -13.686 -14.955  18.816  0.00  0.00    +0.148 HD
ATOM     14  H   UNL     1     -12.046 -12.183  16.746  0.00  0.00    +0.151 HD
ENDROOT
BRANCH   1  16
ATOM     15  N   UNL     1     -17.164 -13.971  23.131  0.00  0.00    -0.270 N 
ATOM     16  C   UNL     1     -15.791 -13.564  23.218  0.00  0.00    +0.098 C 
ATOM     17  C   UNL     1     -15.871 -12.497  24.320  0.00  0.00    +0.026 C 
ATOM     18  C   UNL     1     -16.759 -13.203  25.324  0.00  0.00    +0.024 C 
ATOM     19  C   UNL     1     -17.560 -14.201  24.527  0.00  0.00    +0.094 C 
ATOM     20  C   UNL     1     -18.015 -14.144  22.034  0.00  0.00    +0.303 C 
ATOM     21  O   UNL     1     -19.206 -14.512  22.166  0.00  0.00    -0.265 OA
ENDBRANCH   1  16
TORSDOF 1
