REMARK  Name = =
REMARK  2 active torsions:
REMARK  status: ('A' for Active; 'I' for Inactive)
REMARK    1  A    between atoms: C_1  and  C_14
REMARK    2  A    between atoms: C_3  and  C_20
REMARK                            x       y       z     vdW  Elec       q    Type
REMARK                         _______ _______ _______ _____ _____    ______ ____
ROOT
ATOM      1  C   UNL     1     -15.209 -12.736  21.906  0.00  0.00    -0.003 C 
ATOM      2  C   UNL     1     -15.292 -11.359  21.811  0.00  0.00    -0.004 C 
ATOM      3  C   UNL     1     -14.764 -10.649  20.762  0.00  0.00    +0.014 C 
ATOM      4  C   UNL     1     -14.129 -11.344  19.770  0.00  0.00    +0.132 C 
ATOM      5  C   UNL     1     -14.020 -12.722  19.818  0.00  0.00    +0.064 C 
ATOM      6  C   UNL     1     -14.563 -13.402  20.891  0.00  0.00    +0.013 C 
ATOM      7  N   UNL     1     -13.344 -13.381  18.758  0.00  0.00    -0.317 N 
ATOM      8  C   UNL     1     -12.215 -12.902  18.037  0.00  0.00    +0.182 C 
ATOM      9  N   UNL     1     -12.013 -11.502  17.977  0.00  0.00    -0.160 NA
ATOM     10  S   UNL     1     -13.418 -10.584  18.371  0.00  0.00    +0.063 S 
ATOM     11  O   UNL     1     -13.109  -9.159  18.536  0.00  0.00    -0.153 OA
ATOM     12  O   UNL     1     -14.393 -10.774  17.220  0.00  0.00    -0.153 OA
ATOM     13  H   UNL     1     -13.693 -14.263  18.494  0.00  0.00    +0.148 HD
ATOM     14  H   UNL     1     -11.724 -11.258  17.030  0.00  0.00    +0.151 HD
ENDROOT
BRANCH   1  16
ATOM     15  N   UNL     1     -17.110 -13.894  22.963  0.00  0.00    -0.270 N 
ATOM     16  C   UNL     1     -15.775 -13.401  23.065  0.00  0.00    +0.098 C 
ATOM     17  C   UNL     1     -15.944 -12.473  24.276  0.00  0.00    +0.026 C 
ATOM     18  C   UNL     1     -16.845 -13.351  25.154  0.00  0.00    +0.024 C 
ATOM     19  C   UNL     1     -17.339 -14.489  24.262  0.00  0.00    +0.094 C 
ATOM     20  C   UNL     1     -18.030 -13.823  21.921  0.00  0.00    +0.303 C 
ATOM     21  O   UNL     1     -17.833 -13.254  20.816  0.00  0.00    -0.265 OA
ENDBRANCH   1  16
BRANCH   3  22
ATOM     22  C   UNL     1     -14.843  -9.172  20.647  0.00  0.00    +0.110 C 
ATOM     23  N   UNL     1     -16.014  -8.702  19.958  0.00  0.00    -0.268 NA
ATOM     24  C   UNL     1     -16.133  -7.344  20.443  0.00  0.00    +0.217 C 
ATOM     25  O   UNL     1     -15.455  -7.244  21.629  0.00  0.00    -0.336 OA
ATOM     26  C   UNL     1     -15.004  -8.509  21.999  0.00  0.00    +0.164 C 
ATOM     27  H   UNL     1     -15.881  -8.723  18.947  0.00  0.00    +0.126 HD
ENDBRANCH   3  22
TORSDOF 2
