REMARK  Name = =
REMARK  4 active torsions:
REMARK  status: ('A' for Active; 'I' for Inactive)
REMARK    1  A    between atoms: C_1  and  C_14
REMARK    2  A    between atoms: C_3  and  C_28
REMARK    3  A    between atoms: C_15  and  C_20
REMARK    4  A    between atoms: N_25  and  C_26
REMARK                            x       y       z     vdW  Elec       q    Type
REMARK                         _______ _______ _______ _____ _____    ______ ____
ROOT
ATOM      1  C   UNL     1     -15.317  -9.798  21.890  0.00  0.00    -0.003 C 
ATOM      2  C   UNL     1     -15.859 -10.483  20.846  0.00  0.00    -0.004 C 
ATOM      3  C   UNL     1     -16.144 -11.862  20.914  0.00  0.00    +0.014 C 
ATOM      4  C   UNL     1     -15.851 -12.534  22.082  0.00  0.00    +0.132 C 
ATOM      5  C   UNL     1     -15.296 -11.822  23.119  0.00  0.00    +0.064 C 
ATOM      6  C   UNL     1     -15.024 -10.477  23.065  0.00  0.00    +0.013 C 
ATOM      7  N   UNL     1     -14.892 -12.551  24.308  0.00  0.00    -0.317 N 
ATOM      8  C   UNL     1     -14.155 -13.793  24.221  0.00  0.00    +0.182 C 
ATOM      9  N   UNL     1     -14.509 -14.651  23.156  0.00  0.00    -0.160 NA
ATOM     10  S   UNL     1     -16.025 -14.204  22.400  0.00  0.00    +0.063 S 
ATOM     11  O   UNL     1     -16.329 -15.176  21.406  0.00  0.00    -0.153 OA
ATOM     12  O   UNL     1     -17.012 -14.344  23.557  0.00  0.00    -0.153 OA
ATOM     13  H   UNL     1     -15.125 -12.192  25.194  0.00  0.00    +0.148 HD
ATOM     14  H   UNL     1     -14.592 -15.601  23.517  0.00  0.00    +0.151 HD
ENDROOT
BRANCH   1  16
ATOM     15  N   UNL     1     -14.588  -8.001  20.498  0.00  0.00    -0.270 N 
ATOM     16  C   UNL     1     -15.040  -8.330  21.860  0.00  0.00    +0.107 C 
ATOM     17  C   UNL     1     -13.851  -7.939  22.645  0.00  0.00    +0.101 C 
ATOM     18  C   UNL     1     -12.646  -8.278  21.758  0.00  0.00    +0.033 C 
ATOM     19  C   UNL     1     -13.235  -8.498  20.410  0.00  0.00    +0.095 C 
ATOM     20  C   UNL     1     -15.322  -7.363  19.493  0.00  0.00    +0.303 C 
ATOM     21  O   UNL     1     -14.930  -7.078  18.375  0.00  0.00    -0.265 OA
BRANCH  17  22
ATOM     22  C   UNL     1     -13.824  -6.534  23.065  0.00  0.00    +0.231 C 
ATOM     23  O   UNL     1     -14.663  -5.689  23.029  0.00  0.00    -0.275 OA
ATOM     24  N   UNL     1     -12.333  -6.036  23.739  0.00  0.00    -0.240 N 
ATOM     25  C   UNL     1     -12.745  -4.771  24.171  0.00  0.00    +0.308 C 
ATOM     26  O   UNL     1     -13.562  -3.978  23.680  0.00  0.00    -0.252 OA
ATOM     27  N   UNL     1     -12.167  -4.349  25.374  0.00  0.00    -0.261 N 
ATOM     28  H   UNL     1     -11.463  -6.493  23.803  0.00  0.00    +0.159 HD
ATOM     29  H   UNL     1     -11.514  -5.085  25.340  0.00  0.00    +0.153 HD
BRANCH  27  30
ATOM     30  C   UNL     1     -11.643  -3.906  26.534  0.00  0.00    +0.278 C 
ATOM     31  O   UNL     1     -12.518  -3.154  27.142  0.00  0.00    -0.196 OA
ENDBRANCH  27  30
ENDBRANCH  17  22
ENDBRANCH   1  16
BRANCH   3  32
ATOM     32  C   UNL     1     -16.891 -12.567  19.928  0.00  0.00    +0.110 C 
ATOM     33  N   UNL     1     -18.199 -13.075  20.153  0.00  0.00    -0.268 NA
ATOM     34  C   UNL     1     -18.538 -13.459  18.787  0.00  0.00    +0.217 C 
ATOM     35  O   UNL     1     -17.382 -13.781  18.122  0.00  0.00    -0.336 OA
ATOM     36  C   UNL     1     -16.308 -13.183  18.721  0.00  0.00    +0.164 C 
ATOM     37  H   UNL     1     -18.829 -12.360  20.516  0.00  0.00    +0.126 HD
ENDBRANCH   3  32
TORSDOF 4
