REMARK  Name = =
REMARK  0 active torsions:
REMARK  status: ('A' for Active; 'I' for Inactive)
REMARK                            x       y       z     vdW  Elec       q    Type
REMARK                         _______ _______ _______ _____ _____    ______ ____
ROOT
ATOM      1  O   UNL     1      52.225 155.191  29.341  0.00  0.00    -0.354 OA
ATOM      2  C   UNL     1      50.977 155.108  28.806  0.00  0.00    +0.142 C 
ATOM      3  C   UNL     1      50.884 154.233  27.582  0.00  0.00    +0.032 C 
ATOM      4  C   UNL     1      51.637 152.970  27.807  0.00  0.00    +0.005 C 
ATOM      5  C   UNL     1      52.847 153.112  28.376  0.00  0.00    +0.032 C 
ATOM      6  C   UNL     1      53.228 154.518  28.684  0.00  0.00    +0.142 C 
ENDROOT
TORSDOF 0
