REMARK  Name = =
REMARK  1 active torsions:
REMARK  status: ('A' for Active; 'I' for Inactive)
REMARK    1  A    between atoms: C_2  and  C_7
REMARK                            x       y       z     vdW  Elec       q    Type
REMARK                         _______ _______ _______ _____ _____    ______ ____
ROOT
ATOM      1  O   UNL     1      53.049 154.764  29.160  0.00  0.00    -0.347 OA
ATOM      2  C   UNL     1      51.921 155.511  29.235  0.00  0.00    +0.142 C 
ATOM      3  C   UNL     1      50.851 155.231  28.236  0.00  0.00    +0.060 C 
ATOM      4  C   UNL     1      50.900 153.902  27.637  0.00  0.00    -0.025 C 
ATOM      5  C   UNL     1      51.895 153.096  27.878  0.00  0.00    +0.001 C 
ATOM      6  C   UNL     1      52.988 153.491  28.748  0.00  0.00    +0.168 C 
ENDROOT
BRANCH   2   7
ATOM      7  C   UNL     1      52.294 156.951  29.144  0.00  0.00    +0.009 C 
ATOM      8  C   UNL     1      52.821 157.481  28.044  0.00  0.00    +0.033 C 
ATOM      9  I   UNL     1      53.169 156.295  26.323  0.00  0.00    -0.042 I 
ENDBRANCH   2   7
TORSDOF 1
