REMARK  Name = =
REMARK  7 active torsions:
REMARK  status: ('A' for Active; 'I' for Inactive)
REMARK    1  A    between atoms: C_1  and  C_3
REMARK    2  A    between atoms: C_1  and  O_12
REMARK    3  A    between atoms: C_5  and  O_11
REMARK    4  A    between atoms: C_6  and  O_10
REMARK    5  A    between atoms: C_7  and  O_9
REMARK    6  A    between atoms: O_12  and  C_13
REMARK    7  A    between atoms: C_13  and  C_17
REMARK                            x       y       z     vdW  Elec       q    Type
REMARK                         _______ _______ _______ _____ _____    ______ ____
ROOT
ATOM      1  C   UNL     1      50.242 157.826  29.770  0.00  0.00    +0.346 C 
ATOM      2  O   UNL     1      49.348 157.179  29.190  0.00  0.00    -0.244 OA
ENDROOT
BRANCH   1   3
ATOM      3  C   UNL     1      49.887 158.938  30.621  0.00  0.00    +0.082 C 
ATOM      4  C   UNL     1      48.626 158.981  31.158  0.00  0.00    +0.046 C 
ATOM      5  C   UNL     1      48.251 160.042  31.984  0.00  0.00    +0.171 C 
ATOM      6  C   UNL     1      49.123 161.063  32.279  0.00  0.00    +0.202 C 
ATOM      7  C   UNL     1      50.406 160.981  31.709  0.00  0.00    +0.171 C 
ATOM      8  C   UNL     1      50.786 159.946  30.897  0.00  0.00    +0.046 C 
BRANCH   7   9
ATOM      9  O   UNL     1      51.317 161.997  31.984  0.00  0.00    -0.503 OA
ATOM     10  H   UNL     1      51.069 162.711  32.538  0.00  0.00    +0.292 HD
ENDBRANCH   7   9
BRANCH   6  11
ATOM     11  O   UNL     1      48.845 162.151  33.084  0.00  0.00    -0.501 OA
ATOM     12  H   UNL     1      48.000 162.237  33.480  0.00  0.00    +0.292 HD
ENDBRANCH   6  11
BRANCH   5  13
ATOM     13  O   UNL     1      46.975 160.082  32.526  0.00  0.00    -0.503 OA
ATOM     14  H   UNL     1      46.364 159.397  32.338  0.00  0.00    +0.292 HD
ENDBRANCH   5  13
ENDBRANCH   1   3
BRANCH   1  15
ATOM     15  O   UNL     1      51.582 157.515  29.626  0.00  0.00    -0.423 OA
BRANCH  15  16
ATOM     16  C   UNL     1      52.104 156.931  28.502  0.00  0.00    +0.159 C 
ATOM     17  C   UNL     1      52.550 157.664  27.520  0.00  0.00    +0.071 C 
ATOM     18  I   UNL     1      53.368 156.873  25.754  0.00  0.00    -0.039 I 
BRANCH  16  20
ATOM     19  O   UNL     1      52.922 154.960  29.485  0.00  0.00    -0.344 OA
ATOM     20  C   UNL     1      52.163 155.464  28.403  0.00  0.00    +0.177 C 
ATOM     21  C   UNL     1      50.806 154.803  28.502  0.00  0.00    +0.063 C 
ATOM     22  C   UNL     1      51.021 153.343  28.282  0.00  0.00    -0.025 C 
ATOM     23  C   UNL     1      52.225 152.865  28.576  0.00  0.00    +0.001 C 
ATOM     24  C   UNL     1      53.336 153.691  29.100  0.00  0.00    +0.169 C 
ENDBRANCH  16  20
ENDBRANCH  15  16
ENDBRANCH   1  15
TORSDOF 7
