REMARK  Name = =
REMARK  8 active torsions:
REMARK  status: ('A' for Active; 'I' for Inactive)
REMARK    1  A    between atoms: C_1  and  C_13
REMARK    2  A    between atoms: C_2  and  N_7
REMARK    3  A    between atoms: C_3  and  O_27
REMARK    4  A    between atoms: C_4  and  O_26
REMARK    5  A    between atoms: C_5  and  O_25
REMARK    6  A    between atoms: C_13  and  O_15
REMARK    7  A    between atoms: O_15  and  C_16
REMARK    8  A    between atoms: C_16  and  C_20
REMARK                            x       y       z     vdW  Elec       q    Type
REMARK                         _______ _______ _______ _____ _____    ______ ____
ROOT
ATOM      1  C   UNL     1      52.046 155.722  28.413  0.00  0.00    +0.095 C 
ATOM      2  C   UNL     1      52.590 155.272  27.242  0.00  0.00    +0.092 C 
ATOM      3  C   UNL     1      52.616 153.903  26.950  0.00  0.00    +0.184 C 
ATOM      4  C   UNL     1      52.091 152.992  27.840  0.00  0.00    +0.203 C 
ATOM      5  C   UNL     1      51.549 153.457  29.012  0.00  0.00    +0.171 C 
ATOM      6  C   UNL     1      51.526 154.811  29.295  0.00  0.00    +0.048 C 
ENDROOT
BRANCH   2   7
ATOM      7  N   UNL     1      53.165 156.119  26.253  0.00  0.00    -0.305 N 
ATOM      8  C   UNL     1      52.743 155.925  24.881  0.00  0.00    +0.091 C 
ATOM      9  C   UNL     1      53.112 157.118  24.032  0.00  0.00    +0.021 C 
ATOM     10  C   UNL     1      54.576 157.438  24.092  0.00  0.00    +0.004 C 
ATOM     11  C   UNL     1      55.213 157.176  25.422  0.00  0.00    +0.021 C 
ATOM     12  C   UNL     1      54.139 157.144  26.512  0.00  0.00    +0.091 C 
ENDBRANCH   2   7
BRANCH   1  13
ATOM     13  C   UNL     1      52.018 157.139  28.709  0.00  0.00    +0.347 C 
ATOM     14  O   UNL     1      52.109 158.022  27.821  0.00  0.00    -0.244 OA
BRANCH  13  15
ATOM     15  O   UNL     1      51.886 157.622  30.018  0.00  0.00    -0.423 OA
BRANCH  15  16
ATOM     16  C   UNL     1      51.721 158.985  30.279  0.00  0.00    +0.159 C 
ATOM     17  C   UNL     1      52.774 159.751  30.266  0.00  0.00    +0.071 C 
ATOM     18  I   UNL     1      52.659 161.802  30.640  0.00  0.00    -0.039 I 
BRANCH  16  20
ATOM     19  O   UNL     1      50.372 160.775  31.148  0.00  0.00    -0.344 OA
ATOM     20  C   UNL     1      50.393 159.539  30.561  0.00  0.00    +0.177 C 
ATOM     21  C   UNL     1      49.475 159.588  29.362  0.00  0.00    +0.063 C 
ATOM     22  C   UNL     1      48.109 159.903  29.855  0.00  0.00    -0.025 C 
ATOM     23  C   UNL     1      47.988 160.573  30.991  0.00  0.00    +0.001 C 
ATOM     24  C   UNL     1      49.174 161.009  31.769  0.00  0.00    +0.169 C 
ENDBRANCH  16  20
ENDBRANCH  15  16
ENDBRANCH  13  15
ENDBRANCH   1  13
BRANCH   5  25
ATOM     25  O   UNL     1      51.027 152.540  29.895  0.00  0.00    -0.503 OA
ATOM     26  H   UNL     1      51.050 151.626  29.689  0.00  0.00    +0.292 HD
ENDBRANCH   5  25
BRANCH   4  27
ATOM     27  O   UNL     1      52.125 151.653  27.535  0.00  0.00    -0.501 OA
ATOM     28  H   UNL     1      52.502 151.366  26.727  0.00  0.00    +0.292 HD
ENDBRANCH   4  27
BRANCH   3  29
ATOM     29  O   UNL     1      53.163 153.433  25.768  0.00  0.00    -0.502 OA
ATOM     30  H   UNL     1      53.526 154.035  25.148  0.00  0.00    +0.292 HD
ENDBRANCH   3  29
TORSDOF 8
