REMARK  Name = =
REMARK  0 active torsions:
REMARK  status: ('A' for Active; 'I' for Inactive)
REMARK                            x       y       z     vdW  Elec       q    Type
REMARK                         _______ _______ _______ _____ _____    ______ ____
ROOT
ATOM      1  C   UNL     1     -13.536 -43.445  27.290  0.00  0.00    +0.145 C 
ATOM      2  O   UNL     1     -12.681 -42.491  27.833  0.00  0.00    -0.351 OA
ATOM      3  C   UNL     1     -12.594 -42.583  29.220  0.00  0.00    +0.174 C 
ATOM      4  C   UNL     1     -11.901 -43.885  29.643  0.00  0.00    +0.174 C 
ATOM      5  O   UNL     1     -10.615 -43.645  30.108  0.00  0.00    -0.326 OA
ATOM      6  C   UNL     1      -9.721 -43.948  29.107  0.00  0.00    +0.264 C 
ATOM      7  O   UNL     1      -8.460 -43.455  29.282  0.00  0.00    -0.321 OA
ATOM      8  C   UNL     1      -7.749 -44.019  30.316  0.00  0.00    +0.209 C 
ATOM      9  C   UNL     1      -8.236 -45.339  30.742  0.00  0.00    +0.183 C 
ATOM     10  O   UNL     1      -7.836 -45.786  31.803  0.00  0.00    -0.293 OA
ATOM     11  C   UNL     1      -9.183 -46.161  29.966  0.00  0.00    +0.102 C 
ATOM     12  C   UNL     1      -9.734 -45.419  28.768  0.00  0.00    +0.179 C 
ATOM     13  O   UNL     1     -11.035 -45.826  28.493  0.00  0.00    -0.350 OA
ATOM     14  C   UNL     1     -11.847 -44.751  28.446  0.00  0.00    +0.147 C 
ATOM     15  C   UNL     1     -13.097 -44.865  27.669  0.00  0.00    +0.064 C 
ENDROOT
TORSDOF 0
