REMARK  Name = =
REMARK  5 active torsions:
REMARK  status: ('A' for Active; 'I' for Inactive)
REMARK    1  A    between atoms: C_1  and  C_17
REMARK    2  A    between atoms: C_1  and  C_29
REMARK    3  A    between atoms: N_19  and  C_22
REMARK    4  A    between atoms: C_23  and  O_28
REMARK    5  A    between atoms: C_29  and  C_34
REMARK                            x       y       z     vdW  Elec       q    Type
REMARK                         _______ _______ _______ _____ _____    ______ ____
ROOT
ATOM      1  C   UNL     1     -14.961 -42.687  26.698  0.00  0.00    +0.139 C 
ATOM      2  O   UNL     1     -14.700 -44.054  26.654  0.00  0.00    -0.352 OA
ATOM      3  C   UNL     1     -13.535 -44.412  27.315  0.00  0.00    +0.174 C 
ATOM      4  C   UNL     1     -12.400 -43.470  27.139  0.00  0.00    +0.174 C 
ATOM      5  O   UNL     1     -11.169 -43.992  27.365  0.00  0.00    -0.326 OA
ATOM      6  C   UNL     1     -10.632 -43.727  28.600  0.00  0.00    +0.264 C 
ATOM      7  O   UNL     1      -9.496 -42.884  28.540  0.00  0.00    -0.321 OA
ATOM      8  C   UNL     1      -8.748 -43.135  29.679  0.00  0.00    +0.209 C 
ATOM      9  C   UNL     1      -9.626 -42.946  30.864  0.00  0.00    +0.183 C 
ATOM     10  O   UNL     1      -9.062 -42.939  31.955  0.00  0.00    -0.293 OA
ATOM     11  C   UNL     1     -11.085 -42.770  30.828  0.00  0.00    +0.102 C 
ATOM     12  C   UNL     1     -11.666 -43.009  29.453  0.00  0.00    +0.179 C 
ATOM     13  O   UNL     1     -12.064 -41.813  28.852  0.00  0.00    -0.350 OA
ATOM     14  C   UNL     1     -12.683 -42.103  27.644  0.00  0.00    +0.147 C 
ATOM     15  C   UNL     1     -14.176 -41.932  27.711  0.00  0.00    +0.064 C 
ENDROOT
BRANCH   1  17
ATOM     16  N   UNL     1     -16.443 -42.274  28.626  0.00  0.00    -0.294 NA
ATOM     17  C   UNL     1     -16.405 -42.685  27.282  0.00  0.00    +0.102 C 
ATOM     18  C   UNL     1     -17.396 -42.158  26.326  0.00  0.00    +0.109 C 
ATOM     19  N   UNL     1     -18.707 -42.149  26.941  0.00  0.00    -0.302 N 
ATOM     20  C   UNL     1     -18.802 -42.517  28.333  0.00  0.00    +0.108 C 
ATOM     21  C   UNL     1     -17.705 -41.732  29.045  0.00  0.00    +0.090 C 
ATOM     22  H   UNL     1     -16.232 -43.081  29.213  0.00  0.00    +0.123 HD
BRANCH  19  23
ATOM     23  C   UNL     1     -19.865 -41.787  26.228  0.00  0.00    +0.082 C 
ATOM     24  C   UNL     1     -20.863 -42.707  26.006  0.00  0.00    +0.147 C 
ATOM     25  C   UNL     1     -22.021 -42.363  25.299  0.00  0.00    +0.038 C 
ATOM     26  C   UNL     1     -22.168 -41.072  24.813  0.00  0.00    +0.003 C 
ATOM     27  C   UNL     1     -21.183 -40.141  25.025  0.00  0.00    +0.001 C 
ATOM     28  C   UNL     1     -20.055 -40.505  25.723  0.00  0.00    +0.018 C 
BRANCH  24  29
ATOM     29  O   UNL     1     -20.771 -44.009  26.462  0.00  0.00    -0.504 OA
ATOM     30  H   UNL     1     -20.014 -44.286  26.940  0.00  0.00    +0.292 HD
ENDBRANCH  24  29
ENDBRANCH  19  23
ENDBRANCH   1  17
BRANCH   1  31
ATOM     31  C   UNL     1     -14.942 -42.143  25.313  0.00  0.00    +0.169 C 
ATOM     32  O   UNL     1     -16.180 -41.700  24.860  0.00  0.00    -0.349 OA
ATOM     33  C   UNL     1     -15.988 -41.052  23.681  0.00  0.00    +0.143 C 
ATOM     34  C   UNL     1     -14.643 -40.408  23.793  0.00  0.00    +0.035 C 
ATOM     35  C   UNL     1     -14.018 -41.026  25.018  0.00  0.00    +0.040 C 
BRANCH  31  36
ATOM     36  C   UNL     1     -14.645 -43.285  24.351  0.00  0.00    +0.184 A 
ATOM     37  N   UNL     1     -15.643 -44.068  23.870  0.00  0.00    -0.110 NA
ATOM     38  N   UNL     1     -15.103 -44.981  23.055  0.00  0.00    -0.023 NA
ATOM     39  N   UNL     1     -13.806 -44.777  23.027  0.00  0.00    -0.047 NA
ATOM     40  N   UNL     1     -13.525 -43.730  23.826  0.00  0.00    -0.240 N 
ATOM     41  H   UNL     1     -12.628 -43.359  23.990  0.00  0.00    +0.192 HD
ENDBRANCH  31  36
ENDBRANCH   1  31
TORSDOF 5
