REMARK  Name = =
REMARK  0 active torsions:
REMARK  status: ('A' for Active; 'I' for Inactive)
REMARK                            x       y       z     vdW  Elec       q    Type
REMARK                         _______ _______ _______ _____ _____    ______ ____
ROOT
ATOM      1  N   UNL     1      51.188 155.640  28.731  0.00  0.00    -0.297 NA
ATOM      2  C   UNL     1      50.700 156.520  29.748  0.00  0.00    +0.069 C 
ATOM      3  C   UNL     1      51.460 157.779  29.589  0.00  0.00    +0.019 C 
ATOM      4  C   UNL     1      52.485 157.543  28.792  0.00  0.00    +0.019 C 
ATOM      5  C   UNL     1      52.492 156.133  28.360  0.00  0.00    +0.069 C 
ATOM      6  H   UNL     1      50.564 155.652  27.925  0.00  0.00    +0.123 HD
ENDROOT
TORSDOF 0
