REMARK  Name = =
REMARK  1 active torsions:
REMARK  status: ('A' for Active; 'I' for Inactive)
REMARK    1  A    between atoms: C_2  and  N_8
REMARK                            x       y       z     vdW  Elec       q    Type
REMARK                         _______ _______ _______ _____ _____    ______ ____
ROOT
ATOM      1  S   UNL     1      50.022 155.770  28.822  0.00  0.00    -0.110 S 
ATOM      2  C   UNL     1      51.477 156.968  28.804  0.00  0.00    +0.135 C 
ATOM      3  N   UNL     1      52.438 155.899  29.029  0.00  0.00    -0.254 NA
ATOM      4  C   UNL     1      52.053 155.065  30.113  0.00  0.00    +0.086 C 
ATOM      5  C   UNL     1      50.762 154.849  30.192  0.00  0.00    +0.077 C 
ATOM      6  C   UNL     1      53.210 156.429  27.903  0.00  0.00    +0.078 C 
ATOM      7  C   UNL     1      51.993 157.287  27.503  0.00  0.00    +0.058 C 
ENDROOT
BRANCH   2   8
ATOM      8  N   UNL     1      51.328 157.809  29.898  0.00  0.00    -0.255 NA
ATOM      9  C   UNL     1      50.004 158.034  30.386  0.00  0.00    +0.074 C 
ATOM     10  C   UNL     1      49.787 159.492  30.175  0.00  0.00    +0.019 C 
ATOM     11  C   UNL     1      50.974 160.056  29.911  0.00  0.00    +0.019 C 
ATOM     12  C   UNL     1      52.044 159.030  29.934  0.00  0.00    +0.074 C 
ENDBRANCH   2   8
TORSDOF 1
