REMARK  Name = =
REMARK  5 active torsions:
REMARK  status: ('A' for Active; 'I' for Inactive)
REMARK    1  A    between atoms: C_1  and  S_16
REMARK    2  A    between atoms: S_16  and  C_20
REMARK    3  A    between atoms: N_18  and  C_19
REMARK    4  A    between atoms: N_18  and  C_33
REMARK    5  A    between atoms: C_19  and  C_20
REMARK                            x       y       z     vdW  Elec       q    Type
REMARK                         _______ _______ _______ _____ _____    ______ ____
ROOT
ATOM      1  S   UNL     1      52.912 154.039  27.349  0.00  0.00    -0.196 S 
ATOM      2  H   UNL     1      53.122 154.299  26.031  0.00  0.00    +0.093 HD
ENDROOT
BRANCH   1   3
ATOM      3  C   UNL     1      52.585 155.524  28.028  0.00  0.00    +0.080 C 
ATOM      4  C   UNL     1      53.676 156.107  28.925  0.00  0.00    -0.013 C 
ATOM      5  C   UNL     1      53.692 157.394  29.380  0.00  0.00    -0.025 C 
ATOM      6  C   UNL     1      54.770 157.753  30.201  0.00  0.00    -0.005 C 
ATOM      7  C   UNL     1      55.739 156.821  30.508  0.00  0.00    -0.000 C 
ATOM      8  C   UNL     1      55.670 155.533  30.019  0.00  0.00    -0.000 C 
ATOM      9  C   UNL     1      54.600 155.159  29.197  0.00  0.00    -0.003 C 
ATOM     10  C   UNL     1      52.836 158.572  29.234  0.00  0.00    +0.031 C 
ATOM     11  C   UNL     1      51.605 158.426  28.413  0.00  0.00    +0.031 C 
ATOM     12  C   UNL     1      50.904 157.190  28.858  0.00  0.00    -0.025 C 
ATOM     13  C   UNL     1      51.345 155.847  28.688  0.00  0.00    -0.013 C 
ATOM     14  C   UNL     1      50.582 154.822  29.183  0.00  0.00    -0.003 C 
ATOM     15  C   UNL     1      49.407 155.106  29.833  0.00  0.00    -0.000 C 
ATOM     16  C   UNL     1      48.965 156.420  30.005  0.00  0.00    -0.000 C 
ATOM     17  C   UNL     1      49.734 157.441  29.507  0.00  0.00    -0.005 C 
ENDBRANCH   1   3
BRANCH   1  18
ATOM     18  C   UNL     1      51.879 152.580  27.366  0.00  0.00    +0.064 C 
BRANCH  18  19
ATOM     19  C   UNL     1      51.598 152.321  26.114  0.00  0.00    +0.099 C 
BRANCH  19  20
ATOM     20  N   UNL     1      52.132 153.187  25.154  0.00  0.00    -0.218 NA
BRANCH  20  34
ATOM     21  C   UNL     1      53.320 153.884  25.599  0.00  0.00    +0.088 C 
ATOM     22  C   UNL     1      52.312 153.927  23.894  0.00  0.00    +0.019 C 
ATOM     23  C   UNL     1      52.926 155.036  24.768  0.00  0.00    +0.004 C 
ATOM     24  N   UNL     1      54.560 153.360  25.258  0.00  0.00    -0.274 NA
ATOM     25  C   UNL     1      55.017 152.181  25.872  0.00  0.00    +0.019 C 
ATOM     26  C   UNL     1      56.481 152.406  26.060  0.00  0.00    +0.016 C 
ATOM     27  C   UNL     1      56.817 153.579  25.543  0.00  0.00    +0.019 C 
ATOM     28  C   UNL     1      55.621 154.247  24.964  0.00  0.00    +0.045 C 
ATOM     29  C   UNL     1      54.891 152.740  26.054  0.00  0.00    +0.072 C 
ATOM     30  C   UNL     1      55.860 153.207  25.041  0.00  0.00    +0.048 C 
ATOM     31  C   UNL     1      55.213 154.096  24.064  0.00  0.00    +0.154 C 
ATOM     32  O   UNL     1      55.884 154.759  23.234  0.00  0.00    -0.223 OA
ATOM     33  C   UNL     1      53.770 154.226  24.042  0.00  0.00    +0.047 C 
ATOM     34  C   UNL     1      52.968 153.432  24.749  0.00  0.00    +0.076 C 
ENDBRANCH  20  34
ENDBRANCH  19  20
ENDBRANCH  18  19
ENDBRANCH   1  18
TORSDOF 5
REMARK  Name = =
REMARK  5 active torsions:
REMARK  status: ('A' for Active; 'I' for Inactive)
REMARK    1  A    between atoms: C_1  and  S_16
REMARK    2  A    between atoms: S_16  and  C_20
REMARK    3  A    between atoms: N_18  and  C_19
REMARK    4  A    between atoms: N_18  and  C_33
REMARK    5  A    between atoms: C_19  and  C_20
REMARK                            x       y       z     vdW  Elec       q    Type
REMARK                         _______ _______ _______ _____ _____    ______ ____
ROOT
ATOM      1  N   UNL     1      53.417 151.144  24.904  0.00  0.00    -0.218 NA
ATOM      2  C   UNL     1      53.512 149.904  25.555  0.00  0.00    +0.090 C 
ATOM      3  C   UNL     1      54.189 149.363  24.284  0.00  0.00    +0.038 C 
ATOM      4  C   UNL     1      54.118 150.812  23.750  0.00  0.00    +0.090 C 
ENDROOT
TORSDOF 0
