REMARK  Name = =
REMARK  6 active torsions:
REMARK  status: ('A' for Active; 'I' for Inactive)
REMARK    1  A    between atoms: C_1  and  S_16
REMARK    2  A    between atoms: C_1  and  S_28
REMARK    3  A    between atoms: C_17  and  N_23
REMARK    4  A    between atoms: S_28  and  P_29
REMARK    5  A    between atoms: P_29  and  O_31
REMARK    6  A    between atoms: P_29  and  O_32
REMARK                            x       y       z     vdW  Elec       q    Type
REMARK                         _______ _______ _______ _____ _____    ______ ____
ROOT
ATOM      1  C   UNL     1      52.770 154.865  28.030  0.00  0.00    +0.110 C 
ATOM      2  C   UNL     1      53.891 155.380  28.936  0.00  0.00    -0.005 C 
ATOM      3  C   UNL     1      54.236 156.675  29.192  0.00  0.00    -0.024 C 
ATOM      4  C   UNL     1      55.283 156.895  30.076  0.00  0.00    -0.005 C 
ATOM      5  C   UNL     1      55.960 155.854  30.679  0.00  0.00    -0.000 C 
ATOM      6  C   UNL     1      55.615 154.550  30.423  0.00  0.00    -0.000 C 
ATOM      7  C   UNL     1      54.561 154.343  29.534  0.00  0.00    -0.003 C 
ATOM      8  C   UNL     1      53.713 157.919  28.684  0.00  0.00    +0.031 C 
ATOM      9  C   UNL     1      52.278 158.139  28.528  0.00  0.00    +0.031 C 
ATOM     10  C   UNL     1      51.473 156.939  28.840  0.00  0.00    -0.024 C 
ATOM     11  C   UNL     1      51.617 155.590  28.679  0.00  0.00    -0.005 C 
ATOM     12  C   UNL     1      50.655 154.682  29.130  0.00  0.00    -0.003 C 
ATOM     13  C   UNL     1      49.544 155.167  29.742  0.00  0.00    -0.000 C 
ATOM     14  C   UNL     1      49.340 156.510  29.931  0.00  0.00    -0.000 C 
ATOM     15  C   UNL     1      50.290 157.359  29.486  0.00  0.00    -0.005 C 
ENDROOT
BRANCH   1  16
ATOM     16  S   UNL     1      53.080 155.373  26.397  0.00  0.00    -0.188 S 
ATOM     17  C   UNL     1      54.298 154.852  25.347  0.00  0.00    +0.119 C 
ATOM     18  N   UNL     1      53.648 154.849  24.035  0.00  0.00    -0.256 NA
ATOM     19  C   UNL     1      52.287 154.636  24.129  0.00  0.00    +0.084 C 
ATOM     20  C   UNL     1      51.641 154.802  25.197  0.00  0.00    +0.058 C 
ATOM     21  C   UNL     1      54.970 155.082  23.499  0.00  0.00    +0.078 C 
ATOM     22  C   UNL     1      55.052 156.036  24.653  0.00  0.00    +0.057 C 
ATOM     23  H   UNL     1      53.353 156.638  26.814  0.00  0.00    +0.087 HD
BRANCH  17  24
ATOM     24  N   UNL     1      55.241 153.907  25.620  0.00  0.00    -0.257 NA
ATOM     25  C   UNL     1      55.039 152.604  26.056  0.00  0.00    +0.074 C 
ATOM     26  C   UNL     1      56.363 151.875  25.839  0.00  0.00    +0.019 C 
ATOM     27  C   UNL     1      57.289 152.765  25.647  0.00  0.00    +0.019 C 
ATOM     28  C   UNL     1      56.629 154.135  25.724  0.00  0.00    +0.074 C 
ENDBRANCH  17  24
ENDBRANCH   1  16
BRANCH   1  29
ATOM     29  S   UNL     1      52.651 153.145  28.326  0.00  0.00    -0.016 S 
BRANCH  29  30
ATOM     30  P   UNL     1      52.020 151.837  26.900  0.00  0.00    +0.388 P 
ATOM     31  O   UNL     1      53.106 151.483  25.873  0.00  0.00    -0.246 OA
BRANCH  30  32
ATOM     32  O   UNL     1      50.667 152.293  25.999  0.00  0.00    -0.316 OA
ATOM     33  H   UNL     1      49.943 152.530  26.600  0.00  0.00    +0.221 HD
ENDBRANCH  30  32
BRANCH  30  34
ATOM     34  O   UNL     1      51.619 150.294  27.573  0.00  0.00    -0.316 OA
ATOM     35  H   UNL     1      52.361 149.972  28.108  0.00  0.00    +0.221 HD
ENDBRANCH  30  34
ENDBRANCH  29  30
ENDBRANCH   1  29
TORSDOF 6
