REMARK  Name = =
REMARK  7 active torsions:
REMARK  status: ('A' for Active; 'I' for Inactive)
REMARK    1  A    between atoms: C_1  and  S_16
REMARK    2  A    between atoms: C_1  and  S_28
REMARK    3  A    between atoms: C_17  and  N_23
REMARK    4  A    between atoms: S_28  and  S_29
REMARK    5  A    between atoms: S_28  and  P_30
REMARK    6  A    between atoms: P_30  and  O_32
REMARK    7  A    between atoms: P_30  and  O_33
REMARK                            x       y       z     vdW  Elec       q    Type
REMARK                         _______ _______ _______ _____ _____    ______ ____
ROOT
ATOM      1  C   UNL     1      53.167 155.232  27.992  0.00  0.00    +0.099 C 
ATOM      2  C   UNL     1      52.313 156.228  28.768  0.00  0.00    -0.006 C 
ATOM      3  C   UNL     1      51.017 156.279  29.128  0.00  0.00    -0.024 C 
ATOM      4  C   UNL     1      50.468 157.365  29.829  0.00  0.00    -0.005 C 
ATOM      5  C   UNL     1      51.232 158.426  30.177  0.00  0.00    -0.000 C 
ATOM      6  C   UNL     1      52.557 158.403  29.820  0.00  0.00    -0.000 C 
ATOM      7  C   UNL     1      53.091 157.304  29.116  0.00  0.00    -0.003 C 
ATOM      8  C   UNL     1      49.907 155.352  28.874  0.00  0.00    +0.031 C 
ATOM      9  C   UNL     1      50.358 154.046  29.470  0.00  0.00    +0.031 C 
ATOM     10  C   UNL     1      51.304 153.448  28.516  0.00  0.00    -0.024 C 
ATOM     11  C   UNL     1      52.441 153.946  27.945  0.00  0.00    -0.006 C 
ATOM     12  C   UNL     1      53.105 153.017  27.133  0.00  0.00    -0.003 C 
ATOM     13  C   UNL     1      52.671 151.725  26.912  0.00  0.00    -0.000 C 
ATOM     14  C   UNL     1      51.533 151.263  27.495  0.00  0.00    -0.000 C 
ATOM     15  C   UNL     1      50.870 152.163  28.299  0.00  0.00    -0.005 C 
ENDROOT
BRANCH   1  16
ATOM     16  S   UNL     1      53.381 156.027  26.494  0.00  0.00    -0.189 S 
ATOM     17  C   UNL     1      54.076 155.619  24.940  0.00  0.00    +0.119 C 
ATOM     18  N   UNL     1      53.290 156.530  24.088  0.00  0.00    -0.256 NA
ATOM     19  C   UNL     1      51.957 156.545  24.470  0.00  0.00    +0.084 C 
ATOM     20  C   UNL     1      51.616 156.324  25.667  0.00  0.00    +0.058 C 
ATOM     21  C   UNL     1      54.472 156.874  23.352  0.00  0.00    +0.078 C 
ATOM     22  C   UNL     1      55.255 156.499  24.550  0.00  0.00    +0.057 C 
ATOM     23  H   UNL     1      54.288 156.824  27.121  0.00  0.00    +0.087 HD
BRANCH  17  24
ATOM     24  N   UNL     1      54.163 154.288  24.552  0.00  0.00    -0.257 NA
ATOM     25  C   UNL     1      54.235 153.947  23.157  0.00  0.00    +0.074 C 
ATOM     26  C   UNL     1      55.674 153.762  22.921  0.00  0.00    +0.019 C 
ATOM     27  C   UNL     1      56.283 153.517  24.105  0.00  0.00    +0.019 C 
ATOM     28  C   UNL     1      55.250 153.535  25.163  0.00  0.00    +0.074 C 
ENDBRANCH  17  24
ENDBRANCH   1  16
BRANCH   1  29
ATOM     29  S   UNL     1      54.572 154.964  28.908  0.00  0.00    -0.086 S 
ATOM     30  H   UNL     1      55.334 155.828  28.186  0.00  0.00    +0.105 HD
BRANCH  29  31
ATOM     31  S   UNL     1      54.935 155.327  30.356  0.00  0.00    -0.121 S 
ATOM     32  H   UNL     1      54.238 154.531  31.211  0.00  0.00    +0.113 HD
ENDBRANCH  29  31
BRANCH  29  33
ATOM     33  P   UNL     1      54.689 153.107  29.090  0.00  0.00    +0.377 P 
ATOM     34  O   UNL     1      53.486 152.517  29.710  0.00  0.00    -0.247 OA
BRANCH  33  35
ATOM     35  O   UNL     1      54.949 152.470  27.545  0.00  0.00    -0.317 OA
ATOM     36  H   UNL     1      54.200 152.696  26.972  0.00  0.00    +0.221 HD
ENDBRANCH  33  35
BRANCH  33  37
ATOM     37  O   UNL     1      56.054 152.653  30.001  0.00  0.00    -0.317 OA
ATOM     38  H   UNL     1      55.966 152.991  30.906  0.00  0.00    +0.221 HD
ENDBRANCH  33  37
ENDBRANCH  29  33
ENDBRANCH   1  29
TORSDOF 7
