REMARK  Name = =
REMARK  11 active torsions:
REMARK  status: ('A' for Active; 'I' for Inactive)
REMARK    1  A    between atoms: C_1  and  S_16
REMARK    2  A    between atoms: C_1  and  S_38
REMARK    3  A    between atoms: C_17  and  N_23
REMARK    4  A    between atoms: C_25  and  C_28
REMARK    5  A    between atoms: C_29  and  O_37
REMARK    6  A    between atoms: C_32  and  C_34
REMARK    7  A    between atoms: C_34  and  O_36
REMARK    8  A    between atoms: S_38  and  S_39
REMARK    9  A    between atoms: S_38  and  P_40
REMARK   10  A    between atoms: P_40  and  O_42
REMARK   11  A    between atoms: P_40  and  O_43
REMARK                            x       y       z     vdW  Elec       q    Type
REMARK                         _______ _______ _______ _____ _____    ______ ____
ROOT
ATOM      1  C   UNL     1      54.041 153.441  26.737  0.00  0.00    +0.099 C 
ATOM      2  C   UNL     1      53.448 152.120  26.435  0.00  0.00    -0.006 C 
ATOM      3  C   UNL     1      53.530 151.227  25.383  0.00  0.00    -0.024 C 
ATOM      4  C   UNL     1      52.863 149.993  25.377  0.00  0.00    -0.005 C 
ATOM      5  C   UNL     1      52.081 149.606  26.436  0.00  0.00    -0.000 C 
ATOM      6  C   UNL     1      51.971 150.461  27.494  0.00  0.00    -0.000 C 
ATOM      7  C   UNL     1      52.627 151.661  27.486  0.00  0.00    -0.003 C 
ATOM      8  C   UNL     1      54.216 151.336  24.084  0.00  0.00    +0.031 C 
ATOM      9  C   UNL     1      53.602 152.584  23.435  0.00  0.00    +0.031 C 
ATOM     10  C   UNL     1      54.223 153.731  24.082  0.00  0.00    -0.024 C 
ATOM     11  C   UNL     1      54.377 154.051  25.343  0.00  0.00    -0.006 C 
ATOM     12  C   UNL     1      55.002 155.268  25.653  0.00  0.00    -0.003 C 
ATOM     13  C   UNL     1      55.458 156.129  24.658  0.00  0.00    -0.000 C 
ATOM     14  C   UNL     1      55.295 155.788  23.341  0.00  0.00    -0.000 C 
ATOM     15  C   UNL     1      54.676 154.588  23.065  0.00  0.00    -0.005 C 
ENDROOT
BRANCH   1  16
ATOM     16  S   UNL     1      52.925 154.607  27.463  0.00  0.00    -0.189 S 
ATOM     17  C   UNL     1      52.019 154.708  28.845  0.00  0.00    +0.119 C 
ATOM     18  N   UNL     1      50.658 154.392  28.421  0.00  0.00    -0.256 NA
ATOM     19  C   UNL     1      50.418 154.698  27.070  0.00  0.00    +0.084 C 
ATOM     20  C   UNL     1      51.411 154.872  26.296  0.00  0.00    +0.058 C 
ATOM     21  C   UNL     1      50.426 153.931  29.802  0.00  0.00    +0.078 C 
ATOM     22  C   UNL     1      51.946 153.734  29.940  0.00  0.00    +0.057 C 
ATOM     23  H   UNL     1      54.036 155.337  27.749  0.00  0.00    +0.087 HD
BRANCH  17  24
ATOM     24  N   UNL     1      51.842 156.051  29.453  0.00  0.00    -0.256 NA
ATOM     25  C   UNL     1      53.039 156.775  29.657  0.00  0.00    +0.078 C 
ATOM     26  C   UNL     1      52.587 158.185  29.567  0.00  0.00    +0.043 C 
ATOM     27  C   UNL     1      51.327 158.219  29.133  0.00  0.00    +0.023 C 
ATOM     28  C   UNL     1      50.826 156.824  28.895  0.00  0.00    +0.074 C 
BRANCH  26  29
ATOM     29  C   UNL     1      53.293 159.436  29.889  0.00  0.00    +0.013 C 
ATOM     30  C   UNL     1      54.621 159.653  29.632  0.00  0.00    +0.130 C 
ATOM     31  C   UNL     1      55.208 160.886  30.007  0.00  0.00    +0.036 C 
ATOM     32  C   UNL     1      54.510 161.881  30.618  0.00  0.00    +0.010 C 
ATOM     33  C   UNL     1      53.193 161.674  30.875  0.00  0.00    +0.075 C 
ATOM     34  C   UNL     1      52.602 160.478  30.517  0.00  0.00    +0.005 C 
BRANCH  33  35
ATOM     35  C   UNL     1      52.432 162.738  31.532  0.00  0.00    +0.338 C 
ATOM     36  O   UNL     1      51.228 162.515  31.799  0.00  0.00    -0.245 OA
BRANCH  35  37
ATOM     37  O   UNL     1      53.002 163.951  31.855  0.00  0.00    -0.477 OA
ATOM     38  H   UNL     1      53.903 164.114  31.654  0.00  0.00    +0.295 HD
ENDBRANCH  35  37
ENDBRANCH  33  35
BRANCH  30  39
ATOM     39  O   UNL     1      55.454 158.786  29.038  0.00  0.00    -0.506 OA
ATOM     40  H   UNL     1      55.139 157.948  28.761  0.00  0.00    +0.292 HD
ENDBRANCH  30  39
ENDBRANCH  26  29
ENDBRANCH  17  24
ENDBRANCH   1  16
BRANCH   1  41
ATOM     41  S   UNL     1      55.597 153.401  27.461  0.00  0.00    -0.086 S 
ATOM     42  H   UNL     1      56.027 154.681  27.621  0.00  0.00    +0.105 HD
BRANCH  41  43
ATOM     43  S   UNL     1      56.637 152.452  26.341  0.00  0.00    -0.121 S 
ATOM     44  H   UNL     1      56.149 151.188  26.231  0.00  0.00    +0.113 HD
ENDBRANCH  41  43
BRANCH  41  45
ATOM     45  P   UNL     1      55.677 152.792  29.138  0.00  0.00    +0.377 P 
ATOM     46  O   UNL     1      56.341 153.788  30.058  0.00  0.00    -0.247 OA
BRANCH  45  47
ATOM     47  O   UNL     1      56.830 151.488  29.124  0.00  0.00    -0.317 OA
ATOM     48  H   UNL     1      56.504 150.775  28.553  0.00  0.00    +0.221 HD
ENDBRANCH  45  47
BRANCH  45  49
ATOM     49  O   UNL     1      54.305 152.074  29.793  0.00  0.00    -0.317 OA
ATOM     50  H   UNL     1      53.591 152.728  29.845  0.00  0.00    +0.221 HD
ENDBRANCH  45  49
ENDBRANCH  41  45
ENDBRANCH   1  41
TORSDOF 11
