REMARK  Name = =
REMARK  0 active torsions:
REMARK  status: ('A' for Active; 'I' for Inactive)
REMARK                            x       y       z     vdW  Elec       q    Type
REMARK                         _______ _______ _______ _____ _____    ______ ____
ROOT
ATOM      1  C   UNL     1      51.027 155.196  28.897  0.00  0.00    +0.015 C 
ATOM      2  C   UNL     1      50.303 156.112  29.640  0.00  0.00    +0.041 C 
ATOM      3  C   UNL     1      50.737 157.409  29.786  0.00  0.00    +0.176 C 
ATOM      4  C   UNL     1      51.907 157.786  29.178  0.00  0.00    +0.177 C 
ATOM      5  C   UNL     1      52.629 156.851  28.428  0.00  0.00    +0.052 C 
ATOM      6  C   UNL     1      52.208 155.549  28.274  0.00  0.00    +0.061 C 
ATOM      7 CL   UNL     1      53.121 154.384  27.333  0.00  0.00    -0.082 Cl
ATOM      8  O   UNL     1      52.096 159.114  29.485  0.00  0.00    -0.435 OA
ATOM      9  C   UNL     1      51.282 159.484  30.585  0.00  0.00    +0.429 C 
ATOM     10  O   UNL     1      50.236 158.535  30.458  0.00  0.00    -0.435 OA
ENDROOT
TORSDOF 0
