REMARK  Name = =
REMARK  2 active torsions:
REMARK  status: ('A' for Active; 'I' for Inactive)
REMARK    1  A    between atoms: C_1  and  C_26
REMARK    2  A    between atoms: C_15  and  O_32
REMARK                            x       y       z     vdW  Elec       q    Type
REMARK                         _______ _______ _______ _____ _____    ______ ____
ROOT
ATOM      1  C   UNL     1      52.704 156.860  27.819  0.00  0.00    +0.152 C 
ATOM      2  C   UNL     1      53.430 157.702  26.958  0.00  0.00    +0.080 C 
ATOM      3  C   UNL     1      54.081 157.262  25.840  0.00  0.00    +0.202 C 
ATOM      4  O   UNL     1      54.731 157.987  25.062  0.00  0.00    -0.286 OA
ATOM      5  C   UNL     1      54.000 155.904  25.569  0.00  0.00    +0.074 C 
ATOM      6  C   UNL     1      53.282 155.087  26.424  0.00  0.00    +0.151 C 
ATOM      7  C   UNL     1      53.182 153.721  26.187  0.00  0.00    +0.077 C 
ATOM      8  C   UNL     1      53.822 153.225  25.062  0.00  0.00    +0.045 C 
ATOM      9  C   UNL     1      54.542 154.054  24.199  0.00  0.00    +0.004 C 
ATOM     10  C   UNL     1      54.626 155.382  24.457  0.00  0.00    +0.006 C 
ATOM     11  C   UNL     1      53.749 151.790  24.793  0.00  0.00    +0.196 C 
ATOM     12  O   UNL     1      54.321 151.309  23.776  0.00  0.00    -0.287 OA
ATOM     13  C   UNL     1      53.028 150.876  25.670  0.00  0.00    +0.045 C 
ATOM     14  C   UNL     1      52.385 151.344  26.796  0.00  0.00    +0.076 C 
ATOM     15  C   UNL     1      51.698 150.487  27.637  0.00  0.00    +0.137 C 
ATOM     16  C   UNL     1      51.624 149.133  27.390  0.00  0.00    +0.037 C 
ATOM     17  C   UNL     1      52.270 148.644  26.253  0.00  0.00    +0.003 C 
ATOM     18  C   UNL     1      52.947 149.510  25.430  0.00  0.00    +0.003 C 
ATOM     19  C   UNL     1      52.467 152.793  27.055  0.00  0.00    +0.202 C 
ATOM     20  O   UNL     1      51.893 153.211  28.069  0.00  0.00    -0.286 OA
ATOM     21  O   UNL     1      52.669 155.590  27.504  0.00  0.00    -0.453 OA
ENDROOT
BRANCH   1  26
ATOM     22  C   UNL     1      50.196 157.766  30.512  0.00  0.00    +0.015 C 
ATOM     23  C   UNL     1      50.787 158.834  31.104  0.00  0.00    +0.041 C 
ATOM     24  C   UNL     1      52.008 159.241  30.639  0.00  0.00    +0.177 C 
ATOM     25  C   UNL     1      52.637 158.595  29.598  0.00  0.00    +0.180 C 
ATOM     26  C   UNL     1      52.062 157.492  28.964  0.00  0.00    +0.082 C 
ATOM     27  C   UNL     1      50.836 157.117  29.459  0.00  0.00    +0.064 C 
ATOM     28 CL   UNL     1      49.928 155.810  28.744  0.00  0.00    -0.082 Cl
ATOM     29  O   UNL     1      53.822 159.276  29.422  0.00  0.00    -0.434 OA
ATOM     30  C   UNL     1      53.734 160.557  30.065  0.00  0.00    +0.429 C 
ATOM     31  O   UNL     1      52.806 160.294  31.071  0.00  0.00    -0.435 OA
ENDBRANCH   1  26
BRANCH  15  32
ATOM     32  O   UNL     1      51.065 150.988  28.757  0.00  0.00    -0.505 OA
ATOM     33  H   UNL     1      51.102 151.905  28.945  0.00  0.00    +0.292 HD
ENDBRANCH  15  32
TORSDOF 2
