REMARK  Name = =
REMARK  0 active torsions:
REMARK  status: ('A' for Active; 'I' for Inactive)
REMARK                            x       y       z     vdW  Elec       q    Type
REMARK                         _______ _______ _______ _____ _____    ______ ____
ROOT
ATOM      1  N   UNL     1      -3.422  -3.540  31.534  0.00  0.00    -0.280 N 
ATOM      2  C   UNL     1      -2.597  -3.825  30.510  0.00  0.00    +0.050 C 
ATOM      3  C   UNL     1      -2.300  -5.120  30.173  0.00  0.00    +0.014 C 
ATOM      4  C   UNL     1      -1.442  -5.400  29.109  0.00  0.00    +0.001 C 
ATOM      5  C   UNL     1      -0.880  -4.373  28.377  0.00  0.00    +0.000 C 
ATOM      6  C   UNL     1      -1.186  -3.080  28.727  0.00  0.00    +0.001 C 
ATOM      7  C   UNL     1      -2.036  -2.807  29.783  0.00  0.00    +0.015 C 
ATOM      8  C   UNL     1      -2.868  -6.127  30.910  0.00  0.00    +0.006 C 
ATOM      9  C   UNL     1      -3.712  -5.825  31.957  0.00  0.00    +0.058 C 
ATOM     10  C   UNL     1      -3.988  -4.511  32.268  0.00  0.00    +0.250 C 
ATOM     11  O   UNL     1      -4.771  -4.227  33.240  0.00  0.00    -0.270 OA
ATOM     12  H   UNL     1      -3.615  -2.599  31.750  0.00  0.00    +0.155 HD
ENDROOT
TORSDOF 0
