REMARK  Name = =
REMARK  1 active torsions:
REMARK  status: ('A' for Active; 'I' for Inactive)
REMARK    1  A    between atoms: N_1  and  N_12
REMARK                            x       y       z     vdW  Elec       q    Type
REMARK                         _______ _______ _______ _____ _____    ______ ____
ROOT
ATOM      1  N   UNL     1      -4.481  -3.477  31.661  0.00  0.00    -0.173 N 
ATOM      2  C   UNL     1      -3.625  -3.800  30.676  0.00  0.00    +0.074 C 
ATOM      3  C   UNL     1      -2.863  -4.965  30.698  0.00  0.00    +0.016 C 
ATOM      4  C   UNL     1      -1.982  -5.280  29.666  0.00  0.00    +0.001 C 
ATOM      5  C   UNL     1      -1.842  -4.437  28.585  0.00  0.00    +0.000 C 
ATOM      6  C   UNL     1      -2.604  -3.281  28.572  0.00  0.00    +0.001 C 
ATOM      7  C   UNL     1      -3.479  -2.961  29.592  0.00  0.00    +0.017 C 
ATOM      8  C   UNL     1      -2.990  -5.821  31.769  0.00  0.00    +0.006 C 
ATOM      9  C   UNL     1      -3.873  -5.497  32.794  0.00  0.00    +0.060 C 
ATOM     10  C   UNL     1      -4.601  -4.331  32.720  0.00  0.00    +0.269 C 
ATOM     11  O   UNL     1      -5.408  -4.017  33.639  0.00  0.00    -0.268 OA
ENDROOT
BRANCH   1  12
ATOM     12  N   UNL     1      -5.259  -2.307  31.657  0.00  0.00    -0.147 N 
ATOM     13  C   UNL     1      -4.837  -0.994  31.331  0.00  0.00    +0.248 C 
ATOM     14  O   UNL     1      -3.639  -0.613  31.142  0.00  0.00    -0.273 OA
ATOM     15  C   UNL     1      -6.028  -0.078  31.232  0.00  0.00    +0.097 C 
ATOM     16  C   UNL     1      -7.011  -0.766  32.186  0.00  0.00    +0.097 C 
ATOM     17  C   UNL     1      -6.646  -2.187  31.982  0.00  0.00    +0.248 C 
ATOM     18  O   UNL     1      -7.424  -3.149  32.077  0.00  0.00    -0.273 OA
ENDBRANCH   1  12
TORSDOF 1
