REMARK  Name = =
REMARK  2 active torsions:
REMARK  status: ('A' for Active; 'I' for Inactive)
REMARK    1  A    between atoms: N_1  and  N_24
REMARK    2  A    between atoms: C_6  and  C_12
REMARK                            x       y       z     vdW  Elec       q    Type
REMARK                         _______ _______ _______ _____ _____    ______ ____
ROOT
ATOM      1  N   UNL     1      -4.207  -3.096  31.025  0.00  0.00    -0.173 N 
ATOM      2  C   UNL     1      -3.169  -3.571  30.310  0.00  0.00    +0.074 C 
ATOM      3  C   UNL     1      -2.797  -4.911  30.394  0.00  0.00    +0.016 C 
ATOM      4  C   UNL     1      -1.737  -5.333  29.641  0.00  0.00    +0.001 C 
ATOM      5  C   UNL     1      -1.064  -4.420  28.816  0.00  0.00    +0.005 C 
ATOM      6  C   UNL     1      -1.397  -3.102  28.702  0.00  0.00    +0.055 C 
ATOM      7  C   UNL     1      -2.494  -2.704  29.495  0.00  0.00    +0.021 C 
ATOM      8  C   UNL     1      -3.496  -5.754  31.214  0.00  0.00    +0.006 C 
ATOM      9  C   UNL     1      -4.556  -5.288  31.950  0.00  0.00    +0.060 C 
ATOM     10  C   UNL     1      -4.884  -3.959  31.833  0.00  0.00    +0.269 C 
ATOM     11  O   UNL     1      -5.848  -3.460  32.481  0.00  0.00    -0.268 OA
ENDROOT
BRANCH   6  12
ATOM     12  C   UNL     1      -0.807  -2.117  27.823  0.00  0.00    +0.249 C 
ATOM     13  O   UNL     1       0.026  -1.277  28.348  0.00  0.00    -0.270 OA
ATOM     14  N   UNL     1      -1.046  -1.969  26.448  0.00  0.00    -0.272 N 
ATOM     15  C   UNL     1      -0.227  -0.921  25.779  0.00  0.00    +0.099 C 
ATOM     16  C   UNL     1      -0.134  -1.225  24.297  0.00  0.00    +0.048 C 
ATOM     17  C   UNL     1      -1.555  -1.107  23.799  0.00  0.00    -0.023 C 
ATOM     18  C   UNL     1      -2.468  -1.816  24.506  0.00  0.00    -0.006 C 
ATOM     19  C   UNL     1      -3.808  -1.762  24.148  0.00  0.00    -0.003 C 
ATOM     20  C   UNL     1      -4.180  -0.990  23.086  0.00  0.00    -0.000 C 
ATOM     21  C   UNL     1      -3.236  -0.271  22.375  0.00  0.00    -0.000 C 
ATOM     22  C   UNL     1      -1.904  -0.322  22.726  0.00  0.00    -0.004 C 
ATOM     23  C   UNL     1      -2.023  -2.661  25.660  0.00  0.00    +0.120 C 
ENDBRANCH   6  12
BRANCH   1  24
ATOM     24  N   UNL     1      -4.575  -1.752  30.929  0.00  0.00    -0.147 N 
ATOM     25  C   UNL     1      -3.767  -0.636  30.567  0.00  0.00    +0.248 C 
ATOM     26  O   UNL     1      -2.544  -0.652  30.242  0.00  0.00    -0.273 OA
ATOM     27  C   UNL     1      -4.613   0.582  30.637  0.00  0.00    +0.097 C 
ATOM     28  C   UNL     1      -5.718   0.167  31.599  0.00  0.00    +0.097 C 
ATOM     29  C   UNL     1      -5.898  -1.251  31.196  0.00  0.00    +0.248 C 
ATOM     30  O   UNL     1      -6.930  -1.936  31.088  0.00  0.00    -0.273 OA
ENDBRANCH   1  24
TORSDOF 2
