REMARK  Name = =
REMARK  3 active torsions:
REMARK  status: ('A' for Active; 'I' for Inactive)
REMARK    1  A    between atoms: N_1  and  N_32
REMARK    2  A    between atoms: C_4  and  C_24
REMARK    3  A    between atoms: C_6  and  C_12
REMARK                            x       y       z     vdW  Elec       q    Type
REMARK                         _______ _______ _______ _____ _____    ______ ____
ROOT
ATOM      1  N   UNL     1      -7.556   1.448  29.451  0.00  0.00    -0.173 N 
ATOM      2  C   UNL     1      -8.598   0.652  29.084  0.00  0.00    +0.074 C 
ATOM      3  C   UNL     1      -9.372   0.004  30.054  0.00  0.00    +0.016 C 
ATOM      4  C   UNL     1     -10.407  -0.785  29.644  0.00  0.00    +0.004 C 
ATOM      5  C   UNL     1     -10.674  -0.930  28.273  0.00  0.00    +0.005 C 
ATOM      6  C   UNL     1      -9.948  -0.318  27.292  0.00  0.00    +0.055 C 
ATOM      7  C   UNL     1      -8.881   0.491  27.761  0.00  0.00    +0.021 C 
ATOM      8  C   UNL     1      -9.064   0.184  31.384  0.00  0.00    +0.006 C 
ATOM      9  C   UNL     1      -8.000   1.001  31.688  0.00  0.00    +0.060 C 
ATOM     10  C   UNL     1      -7.236   1.639  30.734  0.00  0.00    +0.269 C 
ATOM     11  O   UNL     1      -6.262   2.386  31.039  0.00  0.00    -0.268 OA
ENDROOT
BRANCH   6  12
ATOM     12  C   UNL     1     -10.191  -0.386  25.872  0.00  0.00    +0.249 C 
ATOM     13  O   UNL     1      -9.477   0.426  25.113  0.00  0.00    -0.270 OA
ATOM     14  N   UNL     1     -11.078  -1.184  25.170  0.00  0.00    -0.272 N 
ATOM     15  C   UNL     1     -11.027  -1.034  23.688  0.00  0.00    +0.099 C 
ATOM     16  C   UNL     1     -12.389  -0.881  23.083  0.00  0.00    +0.048 C 
ATOM     17  C   UNL     1     -13.306  -1.952  23.581  0.00  0.00    -0.023 C 
ATOM     18  C   UNL     1     -13.118  -2.504  24.826  0.00  0.00    -0.006 C 
ATOM     19  C   UNL     1     -13.957  -3.499  25.281  0.00  0.00    -0.003 C 
ATOM     20  C   UNL     1     -15.006  -3.951  24.470  0.00  0.00    -0.000 C 
ATOM     21  C   UNL     1     -15.200  -3.406  23.229  0.00  0.00    -0.000 C 
ATOM     22  C   UNL     1     -14.321  -2.398  22.812  0.00  0.00    -0.004 C 
ATOM     23  C   UNL     1     -12.021  -2.069  25.766  0.00  0.00    +0.120 C 
ENDBRANCH   6  12
BRANCH   4  24
ATOM     24  C   UNL     1     -11.242  -1.483  30.598  0.00  0.00    +0.028 C 
ATOM     25  C   UNL     1     -12.604  -1.307  30.673  0.00  0.00    +0.141 C 
ATOM     26  C   UNL     1     -13.366  -1.987  31.593  0.00  0.00    +0.036 C 
ATOM     27  C   UNL     1     -12.765  -2.869  32.465  0.00  0.00    +0.037 C 
ATOM     28  C   UNL     1     -11.407  -3.072  32.421  0.00  0.00    +0.007 C 
ATOM     29  C   UNL     1     -10.663  -2.386  31.499  0.00  0.00    +0.003 C 
ATOM     30 BR   UNL     1     -13.794  -3.839  33.764  0.00  0.00    -0.049 Br
ATOM     31  F   UNL     1     -13.217  -0.432  29.812  0.00  0.00    -0.204 F 
ENDBRANCH   4  24
BRANCH   1  32
ATOM     32  N   UNL     1      -6.795   2.088  28.449  0.00  0.00    -0.147 N 
ATOM     33  C   UNL     1      -6.603   1.577  27.138  0.00  0.00    +0.248 C 
ATOM     34  O   UNL     1      -6.906   0.432  26.738  0.00  0.00    -0.273 OA
ATOM     35  C   UNL     1      -5.982   2.659  26.356  0.00  0.00    +0.097 C 
ATOM     36  C   UNL     1      -5.187   3.409  27.421  0.00  0.00    +0.097 C 
ATOM     37  C   UNL     1      -6.106   3.330  28.585  0.00  0.00    +0.248 C 
ATOM     38  O   UNL     1      -6.230   4.193  29.487  0.00  0.00    -0.273 OA
ENDBRANCH   1  32
TORSDOF 3
