REMARK  Name = =
REMARK  0 active torsions:
REMARK  status: ('A' for Active; 'I' for Inactive)
REMARK                            x       y       z     vdW  Elec       q    Type
REMARK                         _______ _______ _______ _____ _____    ______ ____
ROOT
ATOM      1  C   UNL     1      -3.176  -5.479  31.254  0.00  0.00    +0.000 C 
ATOM      2  C   UNL     1      -3.995  -4.451  31.700  0.00  0.00    +0.000 C 
ATOM      3  C   UNL     1      -4.089  -3.292  30.959  0.00  0.00    +0.000 C 
ATOM      4  C   UNL     1      -3.368  -3.182  29.797  0.00  0.00    +0.000 C 
ATOM      5  C   UNL     1      -2.542  -4.185  29.325  0.00  0.00    +0.000 C 
ATOM      6  C   UNL     1      -2.453  -5.340  30.068  0.00  0.00    +0.000 C 
ATOM      7  C   UNL     1      -1.643  -6.378  29.644  0.00  0.00    +0.000 C 
ATOM      8  C   UNL     1      -1.559  -7.537  30.399  0.00  0.00    +0.000 C 
ATOM      9  C   UNL     1      -0.750  -8.614  30.008  0.00  0.00    +0.000 C 
ATOM     10  C   UNL     1      -0.014  -8.545  28.854  0.00  0.00    +0.000 C 
ATOM     11  C   UNL     1      -0.119  -7.385  28.131  0.00  0.00    +0.000 C 
ATOM     12  C   UNL     1      -0.907  -6.302  28.487  0.00  0.00    +0.000 C 
ATOM     13  C   UNL     1      -2.266  -7.689  31.571  0.00  0.00    +0.000 C 
ATOM     14  C   UNL     1      -3.067  -6.646  31.978  0.00  0.00    +0.000 C 
ATOM     15  C   UNL     1      -3.808  -6.739  33.157  0.00  0.00    +0.000 C 
ATOM     16  C   UNL     1      -4.617  -5.718  33.590  0.00  0.00    +0.000 C 
ATOM     17  C   UNL     1      -4.738  -4.540  32.879  0.00  0.00    +0.000 C 
ATOM     18  C   UNL     1      -5.548  -3.507  33.306  0.00  0.00    +0.000 C 
ATOM     19  C   UNL     1      -5.646  -2.345  32.568  0.00  0.00    +0.000 C 
ATOM     20  C   UNL     1      -4.911  -2.259  31.404  0.00  0.00    +0.000 C 
ENDROOT
TORSDOF 0
