REMARK  Name = =
REMARK  0 active torsions:
REMARK  status: ('A' for Active; 'I' for Inactive)
REMARK                            x       y       z     vdW  Elec       q    Type
REMARK                         _______ _______ _______ _____ _____    ______ ____
ROOT
ATOM      1  C   UNL     1      -4.627  -4.239  32.999  0.00  0.00    +0.206 C 
ATOM      2  O   UNL     1      -4.155  -3.227  32.126  0.00  0.00    -0.473 OA
ATOM      3  C   UNL     1      -3.670  -3.668  30.906  0.00  0.00    +0.168 C 
ATOM      4  C   UNL     1      -3.183  -4.878  30.714  0.00  0.00    +0.014 C 
ATOM      5  C   UNL     1      -3.129  -5.849  31.830  0.00  0.00    +0.029 C 
ATOM      6  C   UNL     1      -3.458  -5.214  33.135  0.00  0.00    +0.048 C 
ATOM      7  C   UNL     1      -3.846  -6.392  34.000  0.00  0.00    +0.004 C 
ATOM      8  C   UNL     1      -4.373  -7.459  33.054  0.00  0.00    +0.000 C 
ATOM      9  C   UNL     1      -4.010  -7.036  31.653  0.00  0.00    +0.005 C 
ENDROOT
TORSDOF 0
