REMARK  Name = =
REMARK  7 active torsions:
REMARK  status: ('A' for Active; 'I' for Inactive)
REMARK    1  A    between atoms: C_12  and  O_21
REMARK    2  A    between atoms: O_21  and  P_22
REMARK    3  A    between atoms: P_22  and  O_24
REMARK    4  A    between atoms: P_22  and  O_25
REMARK    5  A    between atoms: O_25  and  P_26
REMARK    6  A    between atoms: P_26  and  O_28
REMARK    7  A    between atoms: P_26  and  O_29
REMARK                            x       y       z     vdW  Elec       q    Type
REMARK                         _______ _______ _______ _____ _____    ______ ____
ROOT
ATOM      1  C   UNL     1      -3.175  -5.520  31.305  0.00  0.00    +0.000 C 
ATOM      2  C   UNL     1      -3.860  -4.398  31.717  0.00  0.00    +0.000 C 
ATOM      3  C   UNL     1      -3.713  -3.218  31.029  0.00  0.00    +0.000 C 
ATOM      4  C   UNL     1      -2.890  -3.135  29.931  0.00  0.00    +0.000 C 
ATOM      5  C   UNL     1      -2.186  -4.278  29.503  0.00  0.00    +0.000 C 
ATOM      6  C   UNL     1      -2.326  -5.452  30.178  0.00  0.00    +0.003 C 
ATOM      7  C   UNL     1      -1.640  -6.595  29.773  0.00  0.00    +0.034 C 
ATOM      8  C   UNL     1      -1.825  -7.779  30.510  0.00  0.00    +0.003 C 
ATOM      9  C   UNL     1      -1.139  -8.898  30.095  0.00  0.00    +0.000 C 
ATOM     10  C   UNL     1      -0.297  -8.912  29.014  0.00  0.00    +0.003 C 
ATOM     11  C   UNL     1      -0.137  -7.747  28.315  0.00  0.00    +0.037 C 
ATOM     12  C   UNL     1      -0.810  -6.572  28.690  0.00  0.00    +0.149 C 
ATOM     13  C   UNL     1      -2.659  -7.849  31.619  0.00  0.00    +0.000 C 
ATOM     14  C   UNL     1      -3.316  -6.707  31.987  0.00  0.00    +0.000 C 
ATOM     15  C   UNL     1      -4.144  -6.752  33.078  0.00  0.00    +0.000 C 
ATOM     16  C   UNL     1      -4.836  -5.626  33.498  0.00  0.00    +0.000 C 
ATOM     17  C   UNL     1      -4.698  -4.427  32.812  0.00  0.00    +0.000 C 
ATOM     18  C   UNL     1      -5.404  -3.303  33.253  0.00  0.00    +0.000 C 
ATOM     19  C   UNL     1      -5.244  -2.130  32.551  0.00  0.00    +0.000 C 
ATOM     20  C   UNL     1      -4.411  -2.093  31.459  0.00  0.00    +0.000 C 
ENDROOT
BRANCH  12  21
ATOM     21  O   UNL     1      -0.582  -5.450  27.923  0.00  0.00    -0.402 OA
BRANCH  21  22
ATOM     22  P   UNL     1       0.832  -5.174  27.033  0.00  0.00    +0.539 P 
ATOM     23  O   UNL     1       0.725  -3.769  26.439  0.00  0.00    -0.215 OA
BRANCH  22  24
ATOM     24  O   UNL     1       0.873  -6.294  25.758  0.00  0.00    -0.293 OA
ATOM     25  H   UNL     1       0.086  -6.181  25.203  0.00  0.00    +0.223 HD
ENDBRANCH  22  24
BRANCH  22  26
ATOM     26  O   UNL     1       2.166  -5.317  28.032  0.00  0.00    -0.176 OA
BRANCH  26  27
ATOM     27  P   UNL     1       3.079  -3.890  28.076  0.00  0.00    +0.482 P 
ATOM     28  O   UNL     1       3.277  -3.441  26.636  0.00  0.00    -0.227 OA
BRANCH  27  29
ATOM     29  O   UNL     1       4.551  -4.177  28.844  0.00  0.00    -0.302 OA
ATOM     30  H   UNL     1       4.389  -4.461  29.757  0.00  0.00    +0.222 HD
ENDBRANCH  27  29
BRANCH  27  31
ATOM     31  O   UNL     1       2.203  -2.709  28.915  0.00  0.00    -0.302 OA
ATOM     32  H   UNL     1       2.075  -2.993  29.834  0.00  0.00    +0.222 HD
ENDBRANCH  27  31
ENDBRANCH  26  27
ENDBRANCH  22  26
ENDBRANCH  21  22
ENDBRANCH  12  21
TORSDOF 7
