REMARK  Name = =
REMARK  1 active torsions:
REMARK  status: ('A' for Active; 'I' for Inactive)
REMARK    1  A    between atoms: C_1  and  C_17
REMARK                            x       y       z     vdW  Elec       q    Type
REMARK                         _______ _______ _______ _____ _____    ______ ____
ROOT
ATOM      1  C   UNL     1      -3.404  -4.366  31.609  0.00  0.00    +0.060 C 
ATOM      2  N   UNL     1      -4.379  -3.639  32.160  0.00  0.00    -0.246 NA
ATOM      3  C   UNL     1      -4.577  -2.380  31.733  0.00  0.00    +0.119 C 
ATOM      4  C   UNL     1      -3.804  -1.808  30.739  0.00  0.00    +0.118 C 
ATOM      5  N   UNL     1      -4.011  -0.533  30.313  0.00  0.00    -0.239 NA
ATOM      6  C   UNL     1      -3.244   0.002  29.342  0.00  0.00    +0.120 C 
ATOM      7  C   UNL     1      -2.245  -0.754  28.783  0.00  0.00    +0.119 C 
ATOM      8  N   UNL     1      -2.058  -2.001  29.214  0.00  0.00    -0.241 NA
ATOM      9  C   UNL     1      -2.795  -2.577  30.177  0.00  0.00    +0.102 C 
ATOM     10  C   UNL     1      -2.597  -3.869  30.621  0.00  0.00    +0.035 C 
ENDROOT
BRANCH   1  17
ATOM     11  C   UNL     1      -2.008  -6.784  30.121  0.00  0.00    +0.206 C 
ATOM     12  O   UNL     1      -1.052  -7.737  30.453  0.00  0.00    -0.473 OA
ATOM     13  C   UNL     1      -1.116  -8.556  31.571  0.00  0.00    +0.168 C 
ATOM     14  C   UNL     1      -2.256  -8.720  32.192  0.00  0.00    +0.014 C 
ATOM     15  C   UNL     1      -3.484  -8.043  31.718  0.00  0.00    +0.029 C 
ATOM     16  C   UNL     1      -3.217  -6.763  30.988  0.00  0.00    +0.053 C 
ATOM     17  C   UNL     1      -3.189  -5.741  32.077  0.00  0.00    +0.044 C 
ATOM     18  C   UNL     1      -4.421  -6.142  32.899  0.00  0.00    +0.006 C 
ATOM     19  C   UNL     1      -4.349  -7.647  32.904  0.00  0.00    +0.005 C 
ENDBRANCH   1  17
TORSDOF 1
