REMARK  Name = =
REMARK  2 active torsions:
REMARK  status: ('A' for Active; 'I' for Inactive)
REMARK    1  A    between atoms: C_7  and  C_10
REMARK    2  A    between atoms: C_9  and  N_20
REMARK                            x       y       z     vdW  Elec       q    Type
REMARK                         _______ _______ _______ _____ _____    ______ ____
ROOT
ATOM      1  C   UNL     1      -2.558  -2.528  29.564  0.00  0.00    +0.206 C 
ATOM      2  O   UNL     1      -2.717  -1.174  29.163  0.00  0.00    -0.473 OA
ATOM      3  C   UNL     1      -1.900  -0.591  28.210  0.00  0.00    +0.168 C 
ATOM      4  C   UNL     1      -1.306  -1.379  27.333  0.00  0.00    +0.015 C 
ATOM      5  C   UNL     1      -1.476  -2.821  27.333  0.00  0.00    +0.048 C 
ATOM      6  C   UNL     1      -2.449  -3.368  28.335  0.00  0.00    +0.055 C 
ATOM      7  C   UNL     1      -1.958  -4.758  28.534  0.00  0.00    +0.046 C 
ATOM      8  C   UNL     1      -0.442  -4.529  28.617  0.00  0.00    +0.027 C 
ATOM      9  C   UNL     1      -0.240  -3.648  27.397  0.00  0.00    +0.087 C 
ENDROOT
BRANCH   7  10
ATOM     10  C   UNL     1      -2.393  -5.433  29.756  0.00  0.00    +0.060 C 
ATOM     11  N   UNL     1      -3.428  -4.936  30.446  0.00  0.00    -0.246 NA
ATOM     12  C   UNL     1      -3.909  -5.460  31.564  0.00  0.00    +0.119 C 
ATOM     13  C   UNL     1      -3.309  -6.597  32.057  0.00  0.00    +0.118 C 
ATOM     14  N   UNL     1      -3.808  -7.130  33.204  0.00  0.00    -0.239 NA
ATOM     15  C   UNL     1      -3.232  -8.238  33.698  0.00  0.00    +0.120 C 
ATOM     16  C   UNL     1      -2.163  -8.788  33.021  0.00  0.00    +0.119 C 
ATOM     17  N   UNL     1      -1.667  -8.272  31.895  0.00  0.00    -0.241 NA
ATOM     18  C   UNL     1      -2.242  -7.157  31.395  0.00  0.00    +0.102 C 
ATOM     19  C   UNL     1      -1.783  -6.570  30.238  0.00  0.00    +0.035 C 
ENDBRANCH   7  10
BRANCH   9  20
ATOM     20  N   UNL     1       0.996  -2.961  27.369  0.00  0.00    -0.229 N 
ATOM     21  C   UNL     1       1.521  -2.220  28.462  0.00  0.00    +0.249 C 
ATOM     22  O   UNL     1       1.034  -2.346  29.596  0.00  0.00    -0.273 OA
ATOM     23  C   UNL     1       2.665  -1.273  28.296  0.00  0.00    +0.175 C 
ATOM     24  N   UNL     1       2.711  -0.846  26.924  0.00  0.00    -0.199 NA
ATOM     25  C   UNL     1       2.890  -1.961  26.012  0.00  0.00    +0.175 C 
ATOM     26  C   UNL     1       1.811  -2.973  26.202  0.00  0.00    +0.249 C 
ATOM     27  O   UNL     1       1.655  -3.826  25.297  0.00  0.00    -0.273 OA
ENDBRANCH   9  20
TORSDOF 2
