REMARK  Name = =
REMARK  6 active torsions:
REMARK  status: ('A' for Active; 'I' for Inactive)
REMARK    1  A    between atoms: C_7  and  C_10
REMARK    2  A    between atoms: C_9  and  N_20
REMARK    3  A    between atoms: C_25  and  O_28
REMARK    4  A    between atoms: O_28  and  P_29
REMARK    5  A    between atoms: P_29  and  O_31
REMARK    6  A    between atoms: P_29  and  O_32
REMARK                            x       y       z     vdW  Elec       q    Type
REMARK                         _______ _______ _______ _____ _____    ______ ____
ROOT
ATOM      1  C   UNL     1      -2.339  -1.710  29.523  0.00  0.00    +0.206 C 
ATOM      2  O   UNL     1      -2.678  -0.710  28.614  0.00  0.00    -0.473 OA
ATOM      3  C   UNL     1      -2.128  -0.600  27.369  0.00  0.00    +0.168 C 
ATOM      4  C   UNL     1      -1.357  -1.570  26.909  0.00  0.00    +0.015 C 
ATOM      5  C   UNL     1      -1.041  -2.784  27.657  0.00  0.00    +0.048 C 
ATOM      6  C   UNL     1      -1.830  -2.966  28.908  0.00  0.00    +0.055 C 
ATOM      7  C   UNL     1      -0.893  -3.623  29.931  0.00  0.00    +0.046 C 
ATOM      8  C   UNL     1       0.295  -4.071  29.068  0.00  0.00    +0.027 C 
ATOM      9  C   UNL     1       0.389  -2.845  28.144  0.00  0.00    +0.087 C 
ENDROOT
BRANCH   7  10
ATOM     10  C   UNL     1      -1.492  -4.823  30.531  0.00  0.00    +0.060 C 
ATOM     11  N   UNL     1      -1.434  -5.982  29.850  0.00  0.00    -0.246 NA
ATOM     12  C   UNL     1      -1.973  -7.112  30.365  0.00  0.00    +0.119 C 
ATOM     13  C   UNL     1      -2.590  -7.106  31.588  0.00  0.00    +0.118 C 
ATOM     14  N   UNL     1      -3.133  -8.230  32.114  0.00  0.00    -0.239 NA
ATOM     15  C   UNL     1      -3.728  -8.198  33.307  0.00  0.00    +0.120 C 
ATOM     16  C   UNL     1      -3.821  -7.051  34.051  0.00  0.00    +0.119 C 
ATOM     17  N   UNL     1      -3.275  -5.931  33.519  0.00  0.00    -0.241 NA
ATOM     18  C   UNL     1      -2.672  -5.945  32.318  0.00  0.00    +0.102 C 
ATOM     19  C   UNL     1      -2.104  -4.813  31.747  0.00  0.00    +0.035 C 
ENDBRANCH   7  10
BRANCH   9  20
ATOM     20  N   UNL     1       1.342  -3.036  27.093  0.00  0.00    -0.227 N 
ATOM     21  C   UNL     1       1.566  -4.314  26.554  0.00  0.00    +0.249 C 
ATOM     22  O   UNL     1       0.802  -5.261  26.822  0.00  0.00    -0.273 OA
ATOM     23  C   UNL     1       2.749  -4.535  25.641  0.00  0.00    +0.177 C 
ATOM     24  N   UNL     1       2.964  -3.337  24.848  0.00  0.00    -0.174 NA
ATOM     25  C   UNL     1       3.256  -2.176  25.655  0.00  0.00    +0.275 C 
ATOM     26  C   UNL     1       2.077  -1.950  26.572  0.00  0.00    +0.276 C 
ATOM     27  O   UNL     1       1.744  -0.776  26.878  0.00  0.00    -0.270 OA
BRANCH  25  28
ATOM     28  O   UNL     1       3.486  -1.103  24.833  0.00  0.00    -0.273 OA
BRANCH  28  29
ATOM     29  P   UNL     1       4.987  -1.257  24.053  0.00  0.00    +0.305 P 
ATOM     30  S   UNL     1       5.932  -2.438  24.901  0.00  0.00    +0.022 S 
BRANCH  29  31
ATOM     31  O   UNL     1       5.837   0.180  24.016  0.00  0.00    -0.327 OA
ATOM     32  H   UNL     1       6.018   0.472  24.923  0.00  0.00    +0.219 HD
ENDBRANCH  29  31
BRANCH  29  33
ATOM     33  O   UNL     1       4.680  -1.751  22.470  0.00  0.00    -0.327 OA
ATOM     34  H   UNL     1       4.186  -2.586  22.482  0.00  0.00    +0.219 HD
ENDBRANCH  29  33
ENDBRANCH  28  29
ENDBRANCH  25  28
ENDBRANCH   9  20
TORSDOF 6
