REMARK  Name = =
REMARK  7 active torsions:
REMARK  status: ('A' for Active; 'I' for Inactive)
REMARK    1  A    between atoms: C_4  and  C_20
REMARK    2  A    between atoms: C_7  and  C_10
REMARK    3  A    between atoms: C_9  and  N_27
REMARK    4  A    between atoms: C_32  and  O_35
REMARK    5  A    between atoms: O_35  and  P_36
REMARK    6  A    between atoms: P_36  and  O_38
REMARK    7  A    between atoms: P_36  and  O_39
REMARK                            x       y       z     vdW  Elec       q    Type
REMARK                         _______ _______ _______ _____ _____    ______ ____
ROOT
ATOM      1  C   UNL     1      -1.040  -5.968  27.817  0.00  0.00    +0.206 C 
ATOM      2  O   UNL     1      -0.672  -4.900  28.755  0.00  0.00    -0.473 OA
ATOM      3  C   UNL     1       0.530  -4.218  28.375  0.00  0.00    +0.168 C 
ATOM      4  C   UNL     1       1.464  -4.835  27.722  0.00  0.00    +0.019 C 
ATOM      5  C   UNL     1       1.365  -6.243  27.411  0.00  0.00    +0.048 C 
ATOM      6  C   UNL     1       0.108  -6.849  27.808  0.00  0.00    +0.055 C 
ATOM      7  C   UNL     1       0.346  -7.777  28.908  0.00  0.00    +0.046 C 
ATOM      8  C   UNL     1       1.815  -7.643  29.187  0.00  0.00    +0.027 C 
ATOM      9  C   UNL     1       2.472  -7.104  27.944  0.00  0.00    +0.087 C 
ENDROOT
BRANCH   7  10
ATOM     10  C   UNL     1      -0.407  -7.477  30.159  0.00  0.00    +0.060 C 
ATOM     11  N   UNL     1       0.238  -6.962  31.201  0.00  0.00    -0.246 NA
ATOM     12  C   UNL     1      -0.398  -6.666  32.373  0.00  0.00    +0.119 C 
ATOM     13  C   UNL     1      -1.756  -6.931  32.420  0.00  0.00    +0.118 C 
ATOM     14  N   UNL     1      -2.388  -6.640  33.579  0.00  0.00    -0.239 NA
ATOM     15  C   UNL     1      -3.695  -6.885  33.649  0.00  0.00    +0.120 C 
ATOM     16  C   UNL     1      -4.403  -7.416  32.597  0.00  0.00    +0.119 C 
ATOM     17  N   UNL     1      -3.787  -7.717  31.425  0.00  0.00    -0.241 NA
ATOM     18  C   UNL     1      -2.468  -7.463  31.371  0.00  0.00    +0.102 C 
ATOM     19  C   UNL     1      -1.750  -7.740  30.204  0.00  0.00    +0.035 C 
ENDBRANCH   7  10
BRANCH   4  20
ATOM     20  C   UNL     1       2.686  -4.072  27.350  0.00  0.00    +0.030 C 
ATOM     21  C   UNL     1       3.092  -2.941  28.019  0.00  0.00    +0.066 C 
ATOM     22  N   UNL     1       4.181  -2.219  27.650  0.00  0.00    -0.266 N 
ATOM     23  C   UNL     1       4.886  -2.620  26.598  0.00  0.00    +0.328 C 
ATOM     24  O   UNL     1       5.905  -1.929  26.268  0.00  0.00    -0.250 OA
ATOM     25  N   UNL     1       4.525  -3.715  25.920  0.00  0.00    -0.161 NA
ATOM     26  C   UNL     1       3.443  -4.452  26.268  0.00  0.00    +0.091 C 
ATOM     27  H   UNL     1       4.443  -1.414  28.152  0.00  0.00    +0.157 HD
ENDBRANCH   4  20
BRANCH   9  28
ATOM     28  N   UNL     1       2.907  -8.072  27.022  0.00  0.00    -0.227 N 
ATOM     29  C   UNL     1       2.092  -8.903  26.222  0.00  0.00    +0.249 C 
ATOM     30  O   UNL     1       1.028  -8.425  25.785  0.00  0.00    -0.273 OA
ATOM     31  C   UNL     1       2.468 -10.277  25.905  0.00  0.00    +0.177 C 
ATOM     32  N   UNL     1       3.766 -10.588  26.447  0.00  0.00    -0.174 NA
ATOM     33  C   UNL     1       4.722  -9.522  26.116  0.00  0.00    +0.275 C 
ATOM     34  C   UNL     1       4.343  -8.285  26.891  0.00  0.00    +0.276 C 
ATOM     35  O   UNL     1       5.222  -7.574  27.338  0.00  0.00    -0.270 OA
BRANCH  33  36
ATOM     36  O   UNL     1       4.526  -9.242  24.766  0.00  0.00    -0.273 OA
BRANCH  36  37
ATOM     37  P   UNL     1       5.613 -10.138  23.832  0.00  0.00    +0.305 P 
ATOM     38  S   UNL     1       7.183  -9.955  24.535  0.00  0.00    +0.022 S 
BRANCH  37  39
ATOM     39  O   UNL     1       5.621  -9.587  22.234  0.00  0.00    -0.327 OA
ATOM     40  H   UNL     1       6.249 -10.112  21.714  0.00  0.00    +0.219 HD
ENDBRANCH  37  39
BRANCH  37  41
ATOM     41  O   UNL     1       5.208 -11.786  23.861  0.00  0.00    -0.327 OA
ATOM     42  H   UNL     1       5.204 -12.102  24.778  0.00  0.00    +0.219 HD
ENDBRANCH  37  41
ENDBRANCH  36  37
ENDBRANCH  33  36
ENDBRANCH   9  28
TORSDOF 7
