REMARK  Name = =
REMARK  4 active torsions:
REMARK  status: ('A' for Active; 'I' for Inactive)
REMARK    1  A    between atoms: C_1  and  C_30
REMARK    2  A    between atoms: C_1  and  N_39
REMARK    3  A    between atoms: C_13  and  N_18
REMARK    4  A    between atoms: C_37  and  O_38
REMARK                            x       y       z     vdW  Elec       q    Type
REMARK                         _______ _______ _______ _____ _____    ______ ____
ROOT
ATOM      1  C   UNL     1      51.955 154.838  27.777  0.00  0.00    +0.070 C 
ATOM      2  C   UNL     1      52.399 155.859  28.803  0.00  0.00    +0.016 C 
ATOM      3  C   UNL     1      51.123 155.940  29.636  0.00  0.00    +0.001 C 
ATOM      4  C   UNL     1      51.226 157.002  30.626  0.00  0.00    +0.000 C 
ATOM      5  C   UNL     1      51.572 158.375  30.146  0.00  0.00    +0.001 C 
ATOM      6  C   UNL     1      50.468 159.365  30.398  0.00  0.00    +0.015 C 
ATOM      7  C   UNL     1      49.154 158.720  30.692  0.00  0.00    +0.001 C 
ATOM      8  C   UNL     1      49.256 157.891  31.941  0.00  0.00    +0.000 C 
ATOM      9  C   UNL     1      50.396 156.945  31.839  0.00  0.00    +0.000 C 
ATOM     10  C   UNL     1      48.138 159.835  30.949  0.00  0.00    +0.000 C 
ATOM     11  C   UNL     1      48.614 161.134  30.358  0.00  0.00    +0.001 C 
ATOM     12  C   UNL     1      49.886 161.644  30.996  0.00  0.00    +0.016 C 
ATOM     13  C   UNL     1      50.755 160.434  31.383  0.00  0.00    +0.057 C 
ATOM     14  C   UNL     1      51.990 158.363  28.718  0.00  0.00    +0.000 C 
ATOM     15  C   UNL     1      52.765 157.181  28.252  0.00  0.00    +0.001 C 
ATOM     16  C   UNL     1      50.019 155.967  28.648  0.00  0.00    +0.001 C 
ATOM     17  C   UNL     1      50.660 155.514  27.318  0.00  0.00    +0.017 C 
ENDROOT
BRANCH  13  18
ATOM     18  N   UNL     1      52.095 160.783  31.616  0.00  0.00    -0.273 NA
ATOM     19  C   UNL     1      53.087 160.502  30.677  0.00  0.00    +0.077 C 
ATOM     20  C   UNL     1      53.856 161.644  30.123  0.00  0.00    +0.043 C 
ATOM     21  C   UNL     1      53.245 162.965  30.273  0.00  0.00    -0.025 C 
ATOM     22  C   UNL     1      52.502 163.568  31.255  0.00  0.00    -0.025 C 
ATOM     23  C   UNL     1      52.043 164.863  31.121  0.00  0.00    -0.005 C 
ATOM     24  C   UNL     1      52.329 165.602  29.966  0.00  0.00    -0.000 C 
ATOM     25  C   UNL     1      53.075 165.015  28.966  0.00  0.00    -0.000 C 
ATOM     26  C   UNL     1      53.505 163.725  29.150  0.00  0.00    -0.005 C 
ATOM     27  C   UNL     1      52.082 163.004  32.534  0.00  0.00    +0.043 C 
ATOM     28  C   UNL     1      52.405 161.569  32.737  0.00  0.00    +0.077 C 
ENDBRANCH  13  18
BRANCH   1  30
ATOM     29  N   UNL     1      53.590 155.671  26.119  0.00  0.00    -0.267 NA
ATOM     30  C   UNL     1      52.870 154.731  26.604  0.00  0.00    +0.139 C 
ATOM     31  C   UNL     1      53.098 153.525  25.794  0.00  0.00    +0.003 C 
ATOM     32  C   UNL     1      54.068 153.925  24.749  0.00  0.00    +0.049 C 
ATOM     33  C   UNL     1      54.331 155.241  25.004  0.00  0.00    +0.079 C 
ATOM     34  C   UNL     1      55.238 155.879  24.150  0.00  0.00    +0.019 C 
ATOM     35  C   UNL     1      55.818 155.187  23.116  0.00  0.00    +0.005 C 
ATOM     36  C   UNL     1      55.524 153.854  22.893  0.00  0.00    +0.037 C 
ATOM     37  C   UNL     1      54.635 153.211  23.721  0.00  0.00    +0.135 C 
BRANCH  37  38
ATOM     38  O   UNL     1      54.347 151.868  23.486  0.00  0.00    -0.505 OA
ATOM     39  H   UNL     1      54.757 151.419  22.773  0.00  0.00    +0.292 HD
ENDBRANCH  37  38
ENDBRANCH   1  30
BRANCH   1  40
ATOM     40  N   UNL     1      51.748 153.631  28.433  0.00  0.00    -0.273 NA
ATOM     41  C   UNL     1      52.049 152.395  27.867  0.00  0.00    +0.072 C 
ATOM     42  C   UNL     1      50.940 151.356  28.032  0.00  0.00    +0.017 C 
ATOM     43  C   UNL     1      51.108 150.672  29.345  0.00  0.00    +0.001 C 
ATOM     44  C   UNL     1      50.510 151.408  30.505  0.00  0.00    +0.001 C 
ATOM     45  C   UNL     1      50.186 152.847  30.181  0.00  0.00    +0.017 C 
ATOM     46  C   UNL     1      51.379 153.654  29.804  0.00  0.00    +0.072 C 
ENDBRANCH   1  40
TORSDOF 4
