MODEL 1
REMARK VINA RESULT:    -8.366      0.000      0.000
REMARK INTER + INTRA:          -9.760
REMARK INTER:                 -10.077
REMARK INTRA:                   0.318
REMARK UNBOUND:                 0.318
REMARK  Name = =
REMARK  5 active torsions:
REMARK  status: ('A' for Active; 'I' for Inactive)
REMARK    1  A    between atoms: C_7  and  O_23
REMARK    2  A    between atoms: C_10  and  O_21
REMARK    3  A    between atoms: C_17  and  O_22
REMARK    4  A    between atoms: O_23  and  S_24
REMARK    5  A    between atoms: S_24  and  S_25
REMARK                            x       y       z     vdW  Elec       q    Type
REMARK                         _______ _______ _______ _____ _____    ______ ____
ROOT
ATOM      1  C   UNL     1      48.698 163.850  41.714  0.00  0.00    +0.011 A 
ATOM      2  C   UNL     1      50.051 164.107  41.644  0.00  0.00    +0.012 A 
ATOM      3  C   UNL     1      50.620 165.454  41.381  0.00  0.00    +0.029 C 
ATOM      4  C   UNL     1      49.599 166.439  40.940  0.00  0.00    +0.005 C 
ATOM      5  C   UNL     1      48.348 165.824  40.399  0.00  0.00    +0.005 C 
ATOM      6  C   UNL     1      47.718 164.977  41.512  0.00  0.00    +0.029 C 
ATOM      7  C   UNL     1      50.994 163.097  41.822  0.00  0.00    +0.155 A 
ATOM      8  C   UNL     1      50.534 161.816  42.072  0.00  0.00    +0.080 A 
ATOM      9  C   UNL     1      49.184 161.557  42.142  0.00  0.00    +0.078 A 
ATOM     10  C   UNL     1      48.257 162.568  41.964  0.00  0.00    +0.133 A 
ATOM     11  C   UNL     1      48.791 160.180  42.409  0.00  0.00    +0.199 C 
ATOM     12  O   UNL     1      47.555 159.943  42.475  0.00  0.00    -0.286 OA
ATOM     13  C   UNL     1      49.759 159.112  42.599  0.00  0.00    +0.045 C 
ATOM     14  C   UNL     1      51.128 159.407  42.522  0.00  0.00    +0.076 C 
ATOM     15  C   UNL     1      51.544 160.770  42.256  0.00  0.00    +0.202 C 
ATOM     16  O   UNL     1      52.754 161.059  42.183  0.00  0.00    -0.286 OA
ATOM     17  C   UNL     1      52.035 158.374  42.704  0.00  0.00    +0.137 C 
ATOM     18  C   UNL     1      51.574 157.072  42.959  0.00  0.00    +0.037 C 
ATOM     19  C   UNL     1      50.234 156.785  43.034  0.00  0.00    +0.003 C 
ATOM     20  C   UNL     1      49.360 157.827  42.849  0.00  0.00    +0.003 C 
ENDROOT
BRANCH  10  21
ATOM     21  O   UNL     1      46.933 162.246  42.046  0.00  0.00    -0.506 OA
ATOM     22  H   UNL     1      46.485 162.309  42.866  0.00  0.00    +0.292 HD
ENDBRANCH  10  21
BRANCH  17  23
ATOM     23  O   UNL     1      53.378 158.526  42.655  0.00  0.00    -0.505 OA
ATOM     24  H   UNL     1      53.779 158.910  41.900  0.00  0.00    +0.292 HD
ENDBRANCH  17  23
BRANCH   7  25
ATOM     25  O   UNL     1      52.338 163.354  41.752  0.00  0.00    -0.412 OA
BRANCH  25  26
ATOM     26  S   UNL     1      53.175 163.939  40.370  0.00  0.00    +0.124 S 
BRANCH  26  27
ATOM     27  S   UNL     1      54.473 165.511  40.991  0.00  0.00    -0.068 S 
ATOM     28  H   UNL     1      54.282 165.760  42.315  0.00  0.00    +0.117 HD
ENDBRANCH  26  27
ENDBRANCH  25  26
ENDBRANCH   7  25
TORSDOF 5
ENDMDL
