REMARK  Name = =
REMARK  5 active torsions:
REMARK  status: ('A' for Active; 'I' for Inactive)
REMARK    1  A    between atoms: C_7  and  O_23
REMARK    2  A    between atoms: C_10  and  O_21
REMARK    3  A    between atoms: C_17  and  O_22
REMARK    4  A    between atoms: O_23  and  S_24
REMARK    5  A    between atoms: S_24  and  S_25
REMARK                            x       y       z     vdW  Elec       q    Type
REMARK                         _______ _______ _______ _____ _____    ______ ____
ROOT
ATOM      1  C   UNL     1      49.782 157.791  29.836  0.00  0.00    +0.011 A 
ATOM      2  C   UNL     1      50.078 158.460  28.667  0.00  0.00    +0.012 A 
ATOM      3  C   UNL     1      49.526 159.794  28.320  0.00  0.00    +0.029 C 
ATOM      4  C   UNL     1      48.424 160.219  29.221  0.00  0.00    +0.005 C 
ATOM      5  C   UNL     1      47.774 159.096  29.965  0.00  0.00    +0.005 C 
ATOM      6  C   UNL     1      48.844 158.422  30.833  0.00  0.00    +0.029 C 
ATOM      7  C   UNL     1      50.937 157.915  27.715  0.00  0.00    +0.155 A 
ATOM      8  C   UNL     1      51.490 156.673  27.974  0.00  0.00    +0.080 A 
ATOM      9  C   UNL     1      51.195 156.004  29.140  0.00  0.00    +0.078 A 
ATOM     10  C   UNL     1      50.341 156.555  30.078  0.00  0.00    +0.133 A 
ATOM     11  C   UNL     1      51.822 154.703  29.328  0.00  0.00    +0.199 C 
ATOM     12  O   UNL     1      51.553 154.090  30.396  0.00  0.00    -0.286 OA
ATOM     13  C   UNL     1      52.722 154.117  28.348  0.00  0.00    +0.045 C 
ATOM     14  C   UNL     1      53.003 154.823  27.169  0.00  0.00    +0.076 C 
ATOM     15  C   UNL     1      52.391 156.120  26.958  0.00  0.00    +0.202 C 
ATOM     16  O   UNL     1      52.624 156.769  25.920  0.00  0.00    -0.286 OA
ATOM     17  C   UNL     1      53.862 154.247  26.246  0.00  0.00    +0.137 C 
ATOM     18  C   UNL     1      54.427 152.987  26.504  0.00  0.00    +0.037 C 
ATOM     19  C   UNL     1      54.151 152.297  27.658  0.00  0.00    +0.003 C 
ATOM     20  C   UNL     1      53.297 152.892  28.552  0.00  0.00    +0.003 C 
ENDROOT
BRANCH  10  21
ATOM     21  O   UNL     1      50.089 155.840  31.214  0.00  0.00    -0.506 OA
ATOM     22  H   UNL     1      49.515 156.187  31.868  0.00  0.00    +0.292 HD
ENDBRANCH  10  21
BRANCH  17  23
ATOM     23  O   UNL     1      54.214 154.823  25.074  0.00  0.00    -0.505 OA
ATOM     24  H   UNL     1      54.800 154.381  24.492  0.00  0.00    +0.292 HD
ENDBRANCH  17  23
BRANCH   7  25
ATOM     25  O   UNL     1      51.231 158.581  26.554  0.00  0.00    -0.412 OA
BRANCH  25  26
ATOM     26  S   UNL     1      50.136 158.871  25.261  0.00  0.00    +0.124 S 
BRANCH  26  27
ATOM     27  S   UNL     1      51.254 158.964  23.449  0.00  0.00    -0.068 S 
ATOM     28  H   UNL     1      50.410 159.193  22.407  0.00  0.00    +0.117 HD
ENDBRANCH  26  27
ENDBRANCH  25  26
ENDBRANCH   7  25
TORSDOF 5
