REMARK  Name = =
REMARK  0 active torsions:
REMARK  status: ('A' for Active; 'I' for Inactive)
REMARK                            x       y       z     vdW  Elec       q    Type
REMARK                         _______ _______ _______ _____ _____    ______ ____
ROOT
ATOM      1  C   UNL     1      48.491 158.703  29.842  0.00  0.00    +0.001 C 
ATOM      2  C   UNL     1      48.128 159.996  29.495  0.00  0.00    +0.001 C 
ATOM      3  C   UNL     1      48.252 161.009  30.419  0.00  0.00    +0.021 C 
ATOM      4  C   UNL     1      48.724 160.783  31.676  0.00  0.00    +0.135 C 
ATOM      5  C   UNL     1      49.091 159.525  32.051  0.00  0.00    +0.064 C 
ATOM      6  C   UNL     1      48.968 158.505  31.126  0.00  0.00    +0.016 C 
ATOM      7  N   UNL     1      49.583 159.298  33.366  0.00  0.00    -0.317 N 
ATOM      8  C   UNL     1      49.404 160.164  34.478  0.00  0.00    +0.182 C 
ATOM      9  N   UNL     1      49.609 161.559  34.214  0.00  0.00    -0.160 NA
ATOM     10  S   UNL     1      48.852 162.107  32.786  0.00  0.00    +0.063 S 
ATOM     11  O   UNL     1      47.477 162.655  33.034  0.00  0.00    -0.153 OA
ATOM     12  O   UNL     1      49.746 163.151  32.145  0.00  0.00    -0.153 OA
ATOM     13  H   UNL     1      50.092 158.469  33.519  0.00  0.00    +0.148 HD
ATOM     14  H   UNL     1      50.612 161.727  34.131  0.00  0.00    +0.151 HD
ENDROOT
TORSDOF 0
