REMARK  Name = =
REMARK  1 active torsions:
REMARK  status: ('A' for Active; 'I' for Inactive)
REMARK    1  A    between atoms: C_2  and  C_13
REMARK                            x       y       z     vdW  Elec       q    Type
REMARK                         _______ _______ _______ _____ _____    ______ ____
ROOT
ATOM      1  C   UNL     1      49.503 158.009  29.896  0.00  0.00    +0.001 C 
ATOM      2  C   UNL     1      50.572 158.791  30.275  0.00  0.00    +0.001 C 
ATOM      3  C   UNL     1      50.359 159.784  31.201  0.00  0.00    +0.021 C 
ATOM      4  C   UNL     1      49.095 160.006  31.754  0.00  0.00    +0.135 C 
ATOM      5  C   UNL     1      48.042 159.227  31.374  0.00  0.00    +0.064 C 
ATOM      6  C   UNL     1      48.228 158.211  30.436  0.00  0.00    +0.016 C 
ATOM      7  N   UNL     1      46.733 159.433  31.926  0.00  0.00    -0.317 N 
ATOM      8  C   UNL     1      46.358 160.661  32.552  0.00  0.00    +0.182 C 
ATOM      9  N   UNL     1      47.276 161.067  33.598  0.00  0.00    -0.160 NA
ATOM     10  S   UNL     1      48.856 161.276  32.931  0.00  0.00    +0.063 S 
ATOM     11  O   UNL     1      49.856 161.130  34.051  0.00  0.00    -0.153 OA
ATOM     12  O   UNL     1      48.926 162.639  32.319  0.00  0.00    -0.153 OA
ATOM     13  H   UNL     1      46.073 158.705  31.871  0.00  0.00    +0.148 HD
ATOM     14  H   UNL     1      47.305 160.349  34.322  0.00  0.00    +0.151 HD
ENDROOT
BRANCH   2  15
ATOM     15  C   UNL     1      51.878 158.567  29.666  0.00  0.00    +0.000 C 
ATOM     16  C   UNL     1      52.873 159.554  29.760  0.00  0.00    +0.000 C 
ATOM     17  C   UNL     1      54.127 159.407  29.246  0.00  0.00    +0.000 C 
ATOM     18  C   UNL     1      54.411 158.232  28.612  0.00  0.00    +0.000 C 
ATOM     19  C   UNL     1      53.447 157.240  28.504  0.00  0.00    +0.000 C 
ATOM     20  C   UNL     1      52.162 157.388  29.028  0.00  0.00    +0.000 C 
ATOM     21  C   UNL     1      51.225 156.371  28.886  0.00  0.00    +0.000 C 
ATOM     22  C   UNL     1      51.593 155.213  28.219  0.00  0.00    +0.000 C 
ATOM     23  C   UNL     1      52.874 155.076  27.703  0.00  0.00    +0.000 C 
ATOM     24  C   UNL     1      53.808 156.084  27.840  0.00  0.00    +0.000 C 
ATOM     25  C   UNL     1      53.274 153.940  27.035  0.00  0.00    +0.000 C 
ATOM     26  C   UNL     1      52.400 152.903  26.863  0.00  0.00    +0.000 C 
ATOM     27  C   UNL     1      51.130 153.040  27.375  0.00  0.00    +0.000 C 
ATOM     28  C   UNL     1      50.714 154.182  28.052  0.00  0.00    +0.000 C 
ENDBRANCH   2  15
TORSDOF 1
