REMARK  Name = =
REMARK  2 active torsions:
REMARK  status: ('A' for Active; 'I' for Inactive)
REMARK    1  A    between atoms: C_1  and  C_16
REMARK    2  A    between atoms: C_4  and  N_27
REMARK                            x       y       z     vdW  Elec       q    Type
REMARK                         _______ _______ _______ _____ _____    ______ ____
ROOT
ATOM      1  C   UNL     1      50.909 157.745  28.511  0.00  0.00    +0.000 C 
ATOM      2  C   UNL     1      51.473 158.535  27.520  0.00  0.00    +0.001 C 
ATOM      3  C   UNL     1      52.320 157.934  26.615  0.00  0.00    +0.015 C 
ATOM      4  C   UNL     1      52.617 156.569  26.670  0.00  0.00    +0.061 C 
ATOM      5  C   UNL     1      52.043 155.799  27.666  0.00  0.00    +0.014 C 
ATOM      6  C   UNL     1      51.178 156.402  28.594  0.00  0.00    +0.001 C 
ATOM      7  C   UNL     1      50.613 155.599  29.571  0.00  0.00    +0.000 C 
ATOM      8  C   UNL     1      50.857 154.242  29.683  0.00  0.00    +0.000 C 
ATOM      9  C   UNL     1      51.710 153.669  28.763  0.00  0.00    +0.000 C 
ATOM     10  C   UNL     1      52.284 154.446  27.778  0.00  0.00    +0.001 C 
ATOM     11  C   UNL     1      51.951 152.309  28.879  0.00  0.00    +0.000 C 
ATOM     12  C   UNL     1      51.360 151.551  29.880  0.00  0.00    +0.000 C 
ATOM     13  C   UNL     1      50.521 152.127  30.781  0.00  0.00    +0.000 C 
ATOM     14  C   UNL     1      50.269 153.477  30.680  0.00  0.00    +0.000 C 
ENDROOT
BRANCH   1  16
ATOM     15  C   UNL     1      48.676 158.477  29.315  0.00  0.00    +0.001 C 
ATOM     16  C   UNL     1      50.060 158.419  29.468  0.00  0.00    +0.001 C 
ATOM     17  C   UNL     1      50.594 159.070  30.580  0.00  0.00    +0.021 C 
ATOM     18  C   UNL     1      49.829 159.737  31.487  0.00  0.00    +0.135 C 
ATOM     19  C   UNL     1      48.463 159.793  31.333  0.00  0.00    +0.064 C 
ATOM     20  C   UNL     1      47.921 159.153  30.237  0.00  0.00    +0.016 C 
ATOM     21  N   UNL     1      47.632 160.486  32.259  0.00  0.00    -0.317 N 
ATOM     22  C   UNL     1      48.051 161.430  33.234  0.00  0.00    +0.182 C 
ATOM     23  N   UNL     1      49.392 161.919  33.132  0.00  0.00    -0.160 NA
ATOM     24  S   UNL     1      50.467 160.560  32.888  0.00  0.00    +0.063 S 
ATOM     25  O   UNL     1      51.870 161.021  32.704  0.00  0.00    -0.153 OA
ATOM     26  O   UNL     1      50.294 159.668  34.082  0.00  0.00    -0.153 OA
ATOM     27  H   UNL     1      46.668 160.291  32.219  0.00  0.00    +0.148 HD
ATOM     28  H   UNL     1      49.646 162.407  33.991  0.00  0.00    +0.151 HD
ENDBRANCH   1  16
BRANCH   4  29
ATOM     29  N   UNL     1      53.482 155.956  25.739  0.00  0.00    -0.208 N 
ATOM     30  C   UNL     1      53.290 154.675  25.110  0.00  0.00    +0.236 C 
ATOM     31  O   UNL     1      52.198 154.058  24.961  0.00  0.00    -0.274 OA
ATOM     32  C   UNL     1      54.647 154.216  24.666  0.00  0.00    +0.096 C 
ATOM     33  C   UNL     1      55.467 155.474  24.536  0.00  0.00    +0.096 C 
ATOM     34  C   UNL     1      54.698 156.521  25.268  0.00  0.00    +0.236 C 
ATOM     35  O   UNL     1      55.135 157.700  25.399  0.00  0.00    -0.274 OA
ENDBRANCH   4  29
TORSDOF 2
