REMARK  Name = =
REMARK  4 active torsions:
REMARK  status: ('A' for Active; 'I' for Inactive)
REMARK    1  A    between atoms: C_1  and  N_35
REMARK    2  A    between atoms: C_2  and  C_13
REMARK    3  A    between atoms: C_16  and  N_27
REMARK    4  A    between atoms: C_34  and  N_39
REMARK                            x       y       z     vdW  Elec       q    Type
REMARK                         _______ _______ _______ _____ _____    ______ ____
ROOT
ATOM      1  C   UNL     1      52.343 155.038  28.196  0.00  0.00    +0.060 C 
ATOM      2  C   UNL     1      52.291 156.397  27.994  0.00  0.00    +0.015 C 
ATOM      3  C   UNL     1      52.933 156.972  26.919  0.00  0.00    +0.022 C 
ATOM      4  C   UNL     1      53.626 156.172  26.050  0.00  0.00    +0.135 C 
ATOM      5  C   UNL     1      53.697 154.810  26.222  0.00  0.00    +0.066 C 
ATOM      6  C   UNL     1      53.056 154.252  27.292  0.00  0.00    +0.031 C 
ATOM      7  N   UNL     1      54.434 154.016  25.283  0.00  0.00    -0.317 N 
ATOM      8  C   UNL     1      55.619 154.559  24.671  0.00  0.00    +0.182 C 
ATOM      9  N   UNL     1      55.429 155.763  23.931  0.00  0.00    -0.160 NA
ATOM     10  S   UNL     1      54.434 156.925  24.674  0.00  0.00    +0.063 S 
ATOM     11  O   UNL     1      55.231 158.087  25.146  0.00  0.00    -0.153 OA
ATOM     12  O   UNL     1      53.328 157.346  23.736  0.00  0.00    -0.153 OA
ATOM     13  H   UNL     1      54.132 153.106  25.058  0.00  0.00    +0.148 HD
ATOM     14  H   UNL     1      55.011 155.518  23.033  0.00  0.00    +0.151 HD
ENDROOT
BRANCH   2  15
ATOM     15  C   UNL     1      51.514 157.283  28.885  0.00  0.00    +0.001 C 
ATOM     16  C   UNL     1      50.191 156.990  29.087  0.00  0.00    +0.001 C 
ATOM     17  C   UNL     1      49.423 157.823  29.835  0.00  0.00    +0.015 C 
ATOM     18  C   UNL     1      49.905 158.988  30.425  0.00  0.00    +0.061 C 
ATOM     19  C   UNL     1      51.238 159.255  30.206  0.00  0.00    +0.014 C 
ATOM     20  C   UNL     1      52.067 158.428  29.445  0.00  0.00    +0.001 C 
ATOM     21  C   UNL     1      53.383 158.693  29.247  0.00  0.00    +0.000 C 
ATOM     22  C   UNL     1      53.919 159.842  29.830  0.00  0.00    +0.000 C 
ATOM     23  C   UNL     1      53.135 160.686  30.587  0.00  0.00    +0.000 C 
ATOM     24  C   UNL     1      51.780 160.390  30.777  0.00  0.00    +0.001 C 
ATOM     25  C   UNL     1      53.704 161.811  31.145  0.00  0.00    +0.000 C 
ATOM     26  C   UNL     1      55.025 162.102  30.962  0.00  0.00    +0.000 C 
ATOM     27  C   UNL     1      55.814 161.248  30.197  0.00  0.00    +0.000 C 
ATOM     28  C   UNL     1      55.273 160.117  29.628  0.00  0.00    +0.000 C 
BRANCH  18  29
ATOM     29  N   UNL     1      49.071 159.845  31.183  0.00  0.00    -0.208 N 
ATOM     30  C   UNL     1      48.749 159.863  32.559  0.00  0.00    +0.236 C 
ATOM     31  O   UNL     1      49.426 159.274  33.440  0.00  0.00    -0.274 OA
ATOM     32  C   UNL     1      47.530 160.653  32.814  0.00  0.00    +0.096 C 
ATOM     33  C   UNL     1      47.330 161.429  31.559  0.00  0.00    +0.096 C 
ATOM     34  C   UNL     1      48.351 160.939  30.600  0.00  0.00    +0.236 C 
ATOM     35  O   UNL     1      48.517 161.451  29.456  0.00  0.00    -0.274 OA
ENDBRANCH  18  29
ENDBRANCH   2  15
BRANCH   1  37
ATOM     36  C   UNL     1      51.270 153.162  29.387  0.00  0.00    +0.222 C 
ATOM     37  N   UNL     1      51.699 154.422  29.300  0.00  0.00    -0.229 N 
ATOM     38  C   UNL     1      51.426 155.031  30.458  0.00  0.00    +0.173 C 
ATOM     39  N   UNL     1      50.821 154.149  31.277  0.00  0.00    -0.223 NA
ATOM     40  C   UNL     1      50.719 152.983  30.621  0.00  0.00    +0.140 C 
BRANCH  36  41
ATOM     41  N   UNL     1      51.375 152.194  28.368  0.00  0.00    +0.074 N 
ATOM     42  O   UNL     1      51.321 150.856  28.684  0.00  0.00    -0.125 OA
ATOM     43  O   UNL     1      51.517 152.527  27.161  0.00  0.00    -0.125 OA
ENDBRANCH  36  41
ENDBRANCH   1  37
TORSDOF 4
