REMARK  Name = =
REMARK  6 active torsions:
REMARK  status: ('A' for Active; 'I' for Inactive)
REMARK    1  A    between atoms: C_1  and  C_8
REMARK    2  A    between atoms: C_1  and  N_19
REMARK    3  A    between atoms: C_8  and  C_15
REMARK    4  A    between atoms: C_15  and  C_18
REMARK    5  A    between atoms: N_19  and  O_30
REMARK    6  A    between atoms: N_22  and  N_23
REMARK                            x       y       z     vdW  Elec       q    Type
REMARK                         _______ _______ _______ _____ _____    ______ ____
ROOT
ATOM      1  C   UNL     1      49.213 160.325  30.832  0.00  0.00    +0.226 C 
ATOM      2  O   UNL     1      47.784 160.587  30.676  0.00  0.00    -0.436 OA
ATOM      3  C   UNL     1      47.437 161.119  29.453  0.00  0.00    +0.318 C 
ATOM      4  O   UNL     1      46.727 162.160  29.337  0.00  0.00    -0.250 OA
ATOM      5  C   UNL     1      47.913 160.446  28.228  0.00  0.00    +0.110 C 
ATOM      6  C   UNL     1      49.408 160.248  28.358  0.00  0.00    +0.017 C 
ATOM      7  C   UNL     1      49.813 161.045  29.630  0.00  0.00    +0.063 C 
ENDROOT
BRANCH   1   8
ATOM      8  C   UNL     1      49.563 161.004  32.112  0.00  0.00    +0.080 C 
ATOM      9  C   UNL     1      48.463 161.991  32.500  0.00  0.00    +0.010 C 
ATOM     10  C   UNL     1      48.389 161.843  34.031  0.00  0.00    +0.001 C 
ATOM     11  C   UNL     1      48.368 160.300  34.039  0.00  0.00    +0.001 C 
ATOM     12  C   UNL     1      49.707 160.096  33.309  0.00  0.00    +0.009 C 
ATOM     13  C   UNL     1      50.549 160.799  34.394  0.00  0.00    +0.001 C 
ATOM     14  C   UNL     1      49.773 162.078  34.574  0.00  0.00    +0.000 C 
BRANCH   8  15
ATOM     15  C   UNL     1      50.791 161.787  31.846  0.00  0.00    +0.051 C 
ATOM     16  C   UNL     1      50.876 163.103  31.998  0.00  0.00    +0.006 C 
BRANCH  15  18
ATOM     17  N   UNL     1      53.022 160.753  30.867  0.00  0.00    -0.191 NA
ATOM     18  C   UNL     1      52.021 161.217  31.308  0.00  0.00    +0.096 C 
ENDBRANCH  15  18
ENDBRANCH   8  15
ENDBRANCH   1   8
BRANCH   1  19
ATOM     19  N   UNL     1      49.446 158.933  30.659  0.00  0.00    -0.122 N 
ATOM     20  C   UNL     1      50.399 158.265  29.894  0.00  0.00    +0.345 C 
ATOM     21  O   UNL     1      51.263 158.926  29.220  0.00  0.00    -0.249 OA
ATOM     22  N   UNL     1      50.515 156.852  29.778  0.00  0.00    -0.213 N 
ATOM     23  H   UNL     1      49.867 156.308  30.282  0.00  0.00    +0.175 HD
BRANCH  22  24
ATOM     24  N   UNL     1      51.433 156.186  29.040  0.00  0.00    -0.207 N 
ATOM     25  C   UNL     1      51.310 154.794  28.709  0.00  0.00    +0.115 C 
ATOM     26  C   UNL     1      52.746 154.357  28.366  0.00  0.00    +0.024 C 
ATOM     27  C   UNL     1      53.004 154.950  26.979  0.00  0.00    +0.011 C 
ATOM     28  C   UNL     1      53.084 156.458  27.150  0.00  0.00    +0.087 C 
ATOM     29  C   UNL     1      52.614 156.849  28.530  0.00  0.00    +0.241 C 
ATOM     30  O   UNL     1      53.253 157.706  29.145  0.00  0.00    -0.273 OA
ENDBRANCH  22  24
BRANCH  19  31
ATOM     31  O   UNL     1      48.570 158.098  31.355  0.00  0.00    -0.288 OA
ATOM     32  H   UNL     1      47.942 158.638  31.860  0.00  0.00    +0.242 HD
ENDBRANCH  19  31
ENDBRANCH   1  19
TORSDOF 6
