REMARK  Name = =
REMARK  7 active torsions:
REMARK  status: ('A' for Active; 'I' for Inactive)
REMARK    1  A    between atoms: C_1  and  C_18
REMARK    2  A    between atoms: C_1  and  O_23
REMARK    3  A    between atoms: C_19  and  C_20
REMARK    4  A    between atoms: C_20  and  O_22
REMARK    5  A    between atoms: O_23  and  O_24
REMARK    6  A    between atoms: O_24  and  S_25
REMARK    7  A    between atoms: S_25  and  C_26
REMARK                            x       y       z     vdW  Elec       q    Type
REMARK                         _______ _______ _______ _____ _____    ______ ____
ROOT
ATOM      1  C   UNL     1     -13.352 -44.050  30.010  0.00  0.00    +0.161 C 
ATOM      2  C   UNL     1     -12.166 -44.915  29.723  0.00  0.00    +0.039 C 
ATOM      3  C   UNL     1     -11.371 -44.563  28.493  0.00  0.00    +0.003 C 
ATOM      4  C   UNL     1     -12.212 -44.523  27.234  0.00  0.00    +0.004 C 
ATOM      5  C   UNL     1     -13.401 -43.666  27.387  0.00  0.00    +0.021 C 
ATOM      6  C   UNL     1     -13.273 -42.404  26.576  0.00  0.00    +0.009 C 
ATOM      7  C   UNL     1     -14.596 -41.662  26.499  0.00  0.00    +0.026 C 
ATOM      8  C   UNL     1     -15.523 -42.250  27.516  0.00  0.00    -0.031 C 
ATOM      9  C   UNL     1     -16.829 -42.321  27.302  0.00  0.00    -0.031 C 
ATOM     10  C   UNL     1     -17.664 -42.922  28.363  0.00  0.00    +0.026 C 
ATOM     11  C   UNL     1     -17.296 -42.420  29.738  0.00  0.00    +0.009 C 
ATOM     12  C   UNL     1     -15.801 -42.448  29.993  0.00  0.00    +0.026 C 
ATOM     13  C   UNL     1     -15.029 -42.770  28.808  0.00  0.00    -0.032 C 
ATOM     14  C   UNL     1     -13.921 -43.487  28.729  0.00  0.00    -0.018 C 
ATOM     15  C   UNL     1     -12.553 -45.990  27.043  0.00  0.00    +0.000 C 
ATOM     16  C   UNL     1     -11.212 -46.649  27.265  0.00  0.00    +0.000 C 
ATOM     17  C   UNL     1     -10.449 -45.742  28.198  0.00  0.00    +0.000 C 
ENDROOT
BRANCH   1  18
ATOM     18  C   UNL     1     -12.960 -42.960  30.912  0.00  0.00    +0.014 C 
ATOM     19  C   UNL     1     -11.960 -42.685  31.657  0.00  0.00    +0.080 C 
BRANCH  19  20
ATOM     20  C   UNL     1     -10.721 -43.228  32.028  0.00  0.00    +0.338 C 
ATOM     21  O   UNL     1      -9.835 -42.360  32.453  0.00  0.00    -0.245 OA
BRANCH  20  22
ATOM     22  O   UNL     1     -10.259 -44.496  32.032  0.00  0.00    -0.477 OA
ATOM     23  H   UNL     1     -10.812 -45.197  31.747  0.00  0.00    +0.295 HD
ENDBRANCH  20  22
ENDBRANCH  19  20
ENDBRANCH   1  18
BRANCH   1  24
ATOM     24  O   UNL     1     -14.329 -44.863  30.561  0.00  0.00    -0.205 OA
BRANCH  24  25
ATOM     25  O   UNL     1     -13.889 -45.757  31.312  0.00  0.00    -0.145 OA
BRANCH  25  26
ATOM     26  S   UNL     1     -14.558 -45.912  32.858  0.00  0.00    +0.149 S 
BRANCH  26  27
ATOM     27  C   UNL     1     -14.571 -44.232  33.565  0.00  0.00    +0.165 C 
ATOM     28  N   UNL     1     -14.593 -43.205  33.993  0.00  0.00    -0.181 NA
ENDBRANCH  26  27
ENDBRANCH  25  26
ENDBRANCH  24  25
ENDBRANCH   1  24
TORSDOF 7
