REMARK  Name = =
REMARK  2 active torsions:
REMARK  status: ('A' for Active; 'I' for Inactive)
REMARK    1  A    between atoms: C_1  and  C_8
REMARK    2  A    between atoms: C_8  and  C_11
REMARK                            x       y       z     vdW  Elec       q    Type
REMARK                         _______ _______ _______ _____ _____    ______ ____
ROOT
ATOM      1  C   UNL     1      50.924 158.743  30.546  0.00  0.00    +0.032 C 
ATOM      2  C   UNL     1      50.878 160.074  29.880  0.00  0.00    +0.005 C 
ATOM      3  C   UNL     1      49.784 160.880  30.601  0.00  0.00    +0.000 C 
ATOM      4  C   UNL     1      49.490 159.969  31.807  0.00  0.00    +0.000 C 
ATOM      5  C   UNL     1      49.462 158.640  31.018  0.00  0.00    +0.005 C 
ATOM      6  C   UNL     1      48.516 159.013  29.893  0.00  0.00    +0.000 C 
ATOM      7  C   UNL     1      48.504 160.546  29.817  0.00  0.00    +0.000 C 
ENDROOT
BRANCH   1   8
ATOM      8  C   UNL     1      51.383 157.612  29.783  0.00  0.00    +0.046 C 
ATOM      9  C   UNL     1      50.689 156.497  29.771  0.00  0.00    +0.006 C 
BRANCH   8  11
ATOM     10  N   UNL     1      53.555 157.723  28.384  0.00  0.00    -0.191 NA
ATOM     11  C   UNL     1      52.586 157.665  29.016  0.00  0.00    +0.096 C 
ENDBRANCH   8  11
ENDBRANCH   1   8
TORSDOF 2
