REMARK  Name = =
REMARK  3 active torsions:
REMARK  status: ('A' for Active; 'I' for Inactive)
REMARK    1  A    between atoms: C_1  and  C_8
REMARK    2  A    between atoms: C_1  and  C_15
REMARK    3  A    between atoms: C_15  and  C_18
REMARK                            x       y       z     vdW  Elec       q    Type
REMARK                         _______ _______ _______ _____ _____    ______ ____
ROOT
ATOM      1  C   UNL     1      51.145 160.917  31.057  0.00  0.00    +0.065 C 
ATOM      2  C   UNL     1      51.379 159.538  31.609  0.00  0.00    +0.008 C 
ATOM      3  C   UNL     1      50.584 158.559  30.736  0.00  0.00    +0.000 C 
ATOM      4  C   UNL     1      49.694 159.481  29.896  0.00  0.00    +0.000 C 
ATOM      5  C   UNL     1      50.719 160.552  29.626  0.00  0.00    +0.008 C 
ATOM      6  C   UNL     1      51.883 159.661  29.133  0.00  0.00    +0.000 C 
ATOM      7  C   UNL     1      51.573 158.247  29.589  0.00  0.00    +0.000 C 
ENDROOT
BRANCH   1   8
ATOM      8  C   UNL     1      50.156 161.722  31.807  0.00  0.00    +0.173 C 
ATOM      9  O   UNL     1      48.849 161.406  31.445  0.00  0.00    -0.452 OA
ATOM     10  C   UNL     1      47.901 160.941  32.331  0.00  0.00    +0.317 C 
ATOM     11  O   UNL     1      47.083 160.049  32.015  0.00  0.00    -0.250 OA
ATOM     12  C   UNL     1      47.856 161.515  33.684  0.00  0.00    +0.110 C 
ATOM     13  C   UNL     1      49.171 162.063  34.075  0.00  0.00    +0.015 C 
ATOM     14  C   UNL     1      50.366 161.613  33.299  0.00  0.00    +0.045 C 
ENDBRANCH   1   8
BRANCH   1  15
ATOM     15  C   UNL     1      52.416 161.694  30.848  0.00  0.00    +0.049 C 
ATOM     16  C   UNL     1      52.510 162.550  29.850  0.00  0.00    +0.006 C 
BRANCH  15  18
ATOM     17  N   UNL     1      54.377 161.378  32.543  0.00  0.00    -0.191 NA
ATOM     18  C   UNL     1      53.496 161.510  31.774  0.00  0.00    +0.096 C 
ENDBRANCH  15  18
ENDBRANCH   1  15
TORSDOF 3
