REMARK  Name = =
REMARK  0 active torsions:
REMARK  status: ('A' for Active; 'I' for Inactive)
REMARK                            x       y       z     vdW  Elec       q    Type
REMARK                         _______ _______ _______ _____ _____    ______ ____
ROOT
ATOM      1 CL   UNL     1      58.872 161.615  39.575  0.00  0.00    -0.082 Cl
ATOM      2  C   UNL     1      60.013 162.666  38.770  0.00  0.00    +0.059 C 
ATOM      3  C   UNL     1      59.600 163.733  38.010  0.00  0.00    +0.027 C 
ATOM      4  C   UNL     1      60.493 164.593  37.353  0.00  0.00    +0.055 C 
ATOM      5  C   UNL     1      61.831 164.321  37.503  0.00  0.00    +0.043 C 
ATOM      6  C   UNL     1      62.247 163.273  38.250  0.00  0.00    +0.009 C 
ATOM      7  C   UNL     1      61.364 162.410  38.909  0.00  0.00    +0.012 C 
ATOM      8  S   UNL     1      63.039 165.353  36.710  0.00  0.00    -0.084 S 
ATOM      9  C   UNL     1      62.135 166.620  35.821  0.00  0.00    +0.043 C 
ATOM     10  C   UNL     1      60.766 166.614  35.874  0.00  0.00    +0.054 C 
ATOM     11  C   UNL     1      60.108 167.631  35.157  0.00  0.00    +0.015 C 
ATOM     12  C   UNL     1      60.814 168.567  34.451  0.00  0.00    +0.001 C 
ATOM     13  C   UNL     1      62.195 168.548  34.416  0.00  0.00    +0.001 C 
ATOM     14  C   UNL     1      62.847 167.555  35.116  0.00  0.00    +0.008 C 
ATOM     15  N   UNL     1      59.995 165.671  36.586  0.00  0.00    -0.312 N 
ATOM     16  H   UNL     1      59.017 165.774  36.545  0.00  0.00    +0.152 HD
ENDROOT
TORSDOF 0
