REMARK  Name = =
REMARK  0 active torsions:
REMARK  status: ('A' for Active; 'I' for Inactive)
REMARK                            x       y       z     vdW  Elec       q    Type
REMARK                         _______ _______ _______ _____ _____    ______ ____
ROOT
ATOM      1  C   UNL     1      52.139 155.960  28.536  0.00  0.00    +0.108 C 
ATOM      2  N   UNL     1      51.077 155.611  29.186  0.00  0.00    -0.189 NA
ATOM      3  C   UNL     1      50.618 156.803  29.907  0.00  0.00    +0.186 C 
ATOM      4  N   UNL     1      51.563 157.855  29.569  0.00  0.00    -0.223 NA
ATOM      5  C   UNL     1      52.446 157.361  28.770  0.00  0.00    +0.118 C 
ENDROOT
TORSDOF 0
