REMARK  Name = =
REMARK  1 active torsions:
REMARK  status: ('A' for Active; 'I' for Inactive)
REMARK    1  A    between atoms: C_3  and  C_16
REMARK                            x       y       z     vdW  Elec       q    Type
REMARK                         _______ _______ _______ _____ _____    ______ ____
ROOT
ATOM      1 CL   UNL     1      58.952 161.514  39.791  0.00  0.00    -0.082 Cl
ATOM      2  C   UNL     1      60.149 162.532  39.063  0.00  0.00    +0.058 C 
ATOM      3  C   UNL     1      59.946 163.944  39.008  0.00  0.00    +0.042 C 
ATOM      4  C   UNL     1      60.854 164.775  38.420  0.00  0.00    +0.054 C 
ATOM      5  C   UNL     1      61.997 164.194  37.894  0.00  0.00    +0.043 C 
ATOM      6  C   UNL     1      62.248 162.839  37.928  0.00  0.00    +0.009 C 
ATOM      7  C   UNL     1      61.293 162.029  38.519  0.00  0.00    +0.012 C 
ATOM      8  S   UNL     1      63.235 165.243  37.102  0.00  0.00    -0.084 S 
ATOM      9  C   UNL     1      62.519 166.837  36.927  0.00  0.00    +0.043 C 
ATOM     10  C   UNL     1      61.328 167.101  37.538  0.00  0.00    +0.054 C 
ATOM     11  C   UNL     1      60.804 168.382  37.393  0.00  0.00    +0.015 C 
ATOM     12  C   UNL     1      61.434 169.384  36.664  0.00  0.00    +0.001 C 
ATOM     13  C   UNL     1      62.628 169.077  36.061  0.00  0.00    +0.001 C 
ATOM     14  C   UNL     1      63.145 167.804  36.208  0.00  0.00    +0.008 C 
ATOM     15  N   UNL     1      60.567 166.164  38.223  0.00  0.00    -0.312 N 
ATOM     16  H   UNL     1      59.729 166.494  38.621  0.00  0.00    +0.152 HD
ENDROOT
BRANCH   3  17
ATOM     17  C   UNL     1      58.677 164.386  39.677  0.00  0.00    +0.194 C 
ATOM     18  O   UNL     1      58.526 163.730  40.903  0.00  0.00    -0.448 OA
ATOM     19  C   UNL     1      57.921 164.523  41.854  0.00  0.00    +0.317 C 
ATOM     20  O   UNL     1      57.702 164.180  43.034  0.00  0.00    -0.250 OA
ATOM     21  C   UNL     1      57.583 165.819  41.228  0.00  0.00    +0.114 C 
ATOM     22  C   UNL     1      58.582 165.826  40.016  0.00  0.00    +0.060 C 
ENDBRANCH   3  17
TORSDOF 1
