REMARK  Name = =
REMARK  1 active torsions:
REMARK  status: ('A' for Active; 'I' for Inactive)
REMARK    1  A    between atoms: C_1  and  C_8
REMARK                            x       y       z     vdW  Elec       q    Type
REMARK                         _______ _______ _______ _____ _____    ______ ____
ROOT
ATOM      1  C   UNL     1      52.925 155.197  27.736  0.00  0.00    +0.176 C 
ATOM      2  O   UNL     1      53.171 155.983  26.616  0.00  0.00    -0.338 OA
ATOM      3  C   UNL     1      53.936 155.293  25.678  0.00  0.00    +0.211 C 
ATOM      4  C   UNL     1      53.072 154.202  25.152  0.00  0.00    +0.203 C 
ATOM      5  O   UNL     1      52.853 154.011  23.928  0.00  0.00    -0.289 OA
ATOM      6  C   UNL     1      52.479 153.344  26.175  0.00  0.00    +0.038 C 
ATOM      7  C   UNL     1      52.423 153.845  27.399  0.00  0.00    +0.012 C 
ENDROOT
BRANCH   1   8
ATOM      8  C   UNL     1      51.906 155.844  28.624  0.00  0.00    +0.094 C 
ATOM      9  N   UNL     1      50.772 155.338  28.972  0.00  0.00    -0.228 NA
ATOM     10  C   UNL     1      50.080 156.250  29.822  0.00  0.00    +0.194 C 
ATOM     11  N   UNL     1      50.966 157.370  29.930  0.00  0.00    -0.244 NA
ATOM     12  C   UNL     1      52.030 157.159  29.246  0.00  0.00    +0.171 C 
ENDBRANCH   1   8
TORSDOF 1
