REMARK  Name = =
REMARK  3 active torsions:
REMARK  status: ('A' for Active; 'I' for Inactive)
REMARK    1  A    between atoms: C_1  and  C_9
REMARK    2  A    between atoms: C_1  and  N_22
REMARK    3  A    between atoms: N_25  and  C_26
REMARK                            x       y       z     vdW  Elec       q    Type
REMARK                         _______ _______ _______ _____ _____    ______ ____
ROOT
ATOM      1  C   UNL     1      58.536 164.093  39.568  0.00  0.00    +0.220 C 
ATOM      2  O   UNL     1      58.777 163.963  41.003  0.00  0.00    -0.435 OA
ATOM      3  C   UNL     1      58.664 165.228  41.591  0.00  0.00    +0.318 C 
ATOM      4  O   UNL     1      59.124 165.638  42.674  0.00  0.00    -0.250 OA
ATOM      5  C   UNL     1      57.856 166.083  40.671  0.00  0.00    +0.115 C 
ATOM      6  C   UNL     1      57.611 165.175  39.459  0.00  0.00    +0.076 C 
ENDROOT
BRANCH   1   9
ATOM      7 CL   UNL     1      59.415 161.416  40.102  0.00  0.00    -0.082 Cl
ATOM      8  C   UNL     1      60.263 162.477  39.008  0.00  0.00    +0.060 C 
ATOM      9  C   UNL     1      59.755 163.809  38.833  0.00  0.00    +0.056 C 
ATOM     10  C   UNL     1      60.492 164.616  37.972  0.00  0.00    +0.056 C 
ATOM     11  C   UNL     1      61.623 164.098  37.356  0.00  0.00    +0.043 C 
ATOM     12  C   UNL     1      62.069 162.812  37.553  0.00  0.00    +0.009 C 
ATOM     13  C   UNL     1      61.373 162.009  38.391  0.00  0.00    +0.012 C 
ATOM     14  S   UNL     1      62.573 165.143  36.244  0.00  0.00    -0.084 S 
ATOM     15  C   UNL     1      61.829 166.735  36.271  0.00  0.00    +0.043 C 
ATOM     16  C   UNL     1      60.705 166.939  37.005  0.00  0.00    +0.054 C 
ATOM     17  C   UNL     1      60.141 168.203  36.988  0.00  0.00    +0.015 C 
ATOM     18  C   UNL     1      60.699 169.245  36.246  0.00  0.00    +0.001 C 
ATOM     19  C   UNL     1      61.838 169.022  35.509  0.00  0.00    +0.001 C 
ATOM     20  C   UNL     1      62.370 167.750  35.550  0.00  0.00    +0.008 C 
ATOM     21  N   UNL     1      60.080 165.942  37.800  0.00  0.00    -0.312 N 
ATOM     22  H   UNL     1      59.267 166.214  38.284  0.00  0.00    +0.152 HD
ENDBRANCH   1   9
BRANCH   1  23
ATOM     23  N   UNL     1      57.685 162.875  39.244  0.00  0.00    -0.257 N 
ATOM     24  C   UNL     1      56.710 162.413  40.158  0.00  0.00    +0.307 C 
ATOM     25  O   UNL     1      56.627 163.058  41.211  0.00  0.00    -0.252 OA
ATOM     26  N   UNL     1      55.890 161.314  39.915  0.00  0.00    -0.268 N 
ATOM     27  H   UNL     1      57.814 162.404  38.389  0.00  0.00    +0.154 HD
ATOM     28  H   UNL     1      56.019 160.843  39.060  0.00  0.00    +0.156 HD
BRANCH  26  29
ATOM     29  C   UNL     1      54.893 160.812  40.776  0.00  0.00    +0.052 C 
ATOM     30  C   UNL     1      54.418 161.539  41.832  0.00  0.00    +0.015 C 
ATOM     31  C   UNL     1      53.448 161.049  42.696  0.00  0.00    +0.001 C 
ATOM     32  C   UNL     1      52.959 159.786  42.468  0.00  0.00    +0.000 C 
ATOM     33  C   UNL     1      53.431 159.051  41.410  0.00  0.00    +0.001 C 
ATOM     34  C   UNL     1      54.381 159.528  40.562  0.00  0.00    +0.015 C 
ENDBRANCH  26  29
ENDBRANCH   1  23
TORSDOF 3
