REMARK  Name = =
REMARK  3 active torsions:
REMARK  status: ('A' for Active; 'I' for Inactive)
REMARK    1  A    between atoms: C_1  and  C_8
REMARK    2  A    between atoms: C_1  and  C_13
REMARK    3  A    between atoms: N_14  and  O_15
REMARK                            x       y       z     vdW  Elec       q    Type
REMARK                         _______ _______ _______ _____ _____    ______ ____
ROOT
ATOM      1  C   UNL     1      53.204 154.234  26.745  0.00  0.00    +0.185 C 
ATOM      2  O   UNL     1      53.793 153.353  27.655  0.00  0.00    -0.335 OA
ATOM      3  C   UNL     1      52.904 152.914  28.597  0.00  0.00    +0.212 C 
ATOM      4  C   UNL     1      51.916 152.048  27.872  0.00  0.00    +0.203 C 
ATOM      5  O   UNL     1      51.656 150.908  28.246  0.00  0.00    -0.289 OA
ATOM      6  C   UNL     1      51.312 152.688  26.711  0.00  0.00    +0.039 C 
ATOM      7  C   UNL     1      51.953 153.736  26.189  0.00  0.00    +0.015 C 
ENDROOT
BRANCH   1   8
ATOM      8  C   UNL     1      52.993 155.528  27.457  0.00  0.00    +0.103 C 
ATOM      9  N   UNL     1      52.502 155.654  28.630  0.00  0.00    -0.192 NA
ATOM     10  C   UNL     1      52.443 157.038  29.002  0.00  0.00    +0.186 C 
ATOM     11  N   UNL     1      52.982 157.703  27.863  0.00  0.00    -0.224 NA
ATOM     12  C   UNL     1      53.305 156.850  26.957  0.00  0.00    +0.116 C 
ENDBRANCH   1   8
BRANCH   1  13
ATOM     13  C   UNL     1      54.246 154.503  25.682  0.00  0.00    +0.150 C 
ATOM     14  N   UNL     1      54.103 154.458  24.442  0.00  0.00    -0.086 NA
BRANCH  14  15
ATOM     15  O   UNL     1      52.991 154.160  23.742  0.00  0.00    -0.409 OA
ATOM     16  H   UNL     1      53.013 154.160  22.805  0.00  0.00    +0.328 HD
ENDBRANCH  14  15
ENDBRANCH   1  13
TORSDOF 3
