REMARK  Name = =
REMARK  5 active torsions:
REMARK  status: ('A' for Active; 'I' for Inactive)
REMARK    1  A    between atoms: C_1  and  C_8
REMARK    2  A    between atoms: C_1  and  N_19
REMARK    3  A    between atoms: C_8  and  C_15
REMARK    4  A    between atoms: C_15  and  C_18
REMARK    5  A    between atoms: N_19  and  O_23
REMARK                            x       y       z     vdW  Elec       q    Type
REMARK                         _______ _______ _______ _____ _____    ______ ____
ROOT
ATOM      1  C   UNL     1      50.280 160.200  30.376  0.00  0.00    +0.226 C 
ATOM      2  O   UNL     1      50.869 158.927  30.469  0.00  0.00    -0.436 OA
ATOM      3  C   UNL     1      52.085 158.568  29.861  0.00  0.00    +0.318 C 
ATOM      4  O   UNL     1      52.271 157.382  29.667  0.00  0.00    -0.250 OA
ATOM      5  C   UNL     1      53.006 159.669  29.519  0.00  0.00    +0.110 C 
ATOM      6  C   UNL     1      52.720 160.741  30.593  0.00  0.00    +0.017 C 
ATOM      7  C   UNL     1      51.336 161.235  30.283  0.00  0.00    +0.063 C 
ENDROOT
BRANCH   1   8
ATOM      8  C   UNL     1      49.302 160.263  31.462  0.00  0.00    +0.080 C 
ATOM      9  C   UNL     1      49.753 159.708  32.797  0.00  0.00    +0.010 C 
ATOM     10  C   UNL     1      48.730 160.216  33.786  0.00  0.00    +0.001 C 
ATOM     11  C   UNL     1      47.633 160.886  32.908  0.00  0.00    +0.001 C 
ATOM     12  C   UNL     1      48.638 161.497  31.911  0.00  0.00    +0.009 C 
ATOM     13  C   UNL     1      49.355 162.331  32.961  0.00  0.00    +0.001 C 
ATOM     14  C   UNL     1      49.331 161.520  34.278  0.00  0.00    +0.000 C 
BRANCH   8  15
ATOM     15  C   UNL     1      48.225 159.270  31.061  0.00  0.00    +0.051 C 
ATOM     16  C   UNL     1      46.977 159.643  31.115  0.00  0.00    +0.006 C 
BRANCH  15  18
ATOM     17  N   UNL     1      48.879 156.942  30.239  0.00  0.00    -0.191 NA
ATOM     18  C   UNL     1      48.587 157.974  30.614  0.00  0.00    +0.096 C 
ENDBRANCH  15  18
ENDBRANCH   8  15
ENDBRANCH   1   8
BRANCH   1  19
ATOM     19  N   UNL     1      49.601 160.235  29.085  0.00  0.00    -0.123 N 
ATOM     20  C   UNL     1      48.700 161.306  28.707  0.00  0.00    +0.326 C 
ATOM     21  O   UNL     1      48.506 162.233  29.516  0.00  0.00    -0.251 OA
ATOM     22  N   UNL     1      48.081 161.260  27.459  0.00  0.00    -0.311 N 
ATOM     23  H   UNL     1      48.261 160.510  26.848  0.00  0.00    +0.147 HD
ATOM     24  H   UNL     1      47.464 161.978  27.189  0.00  0.00    +0.147 HD
BRANCH  19  25
ATOM     25  O   UNL     1      49.820 159.256  28.200  0.00  0.00    -0.288 OA
ATOM     26  H   UNL     1      50.437 158.610  28.578  0.00  0.00    +0.242 HD
ENDBRANCH  19  25
ENDBRANCH   1  19
TORSDOF 5
