REMARK  Name = =
REMARK  8 active torsions:
REMARK  status: ('A' for Active; 'I' for Inactive)
REMARK    1  A    between atoms: C_1  and  C_8
REMARK    2  A    between atoms: C_1  and  N_19
REMARK    3  A    between atoms: C_8  and  C_15
REMARK    4  A    between atoms: C_15  and  C_18
REMARK    5  A    between atoms: N_19  and  O_32
REMARK    6  A    between atoms: N_22  and  N_23
REMARK    7  A    between atoms: C_24  and  S_30
REMARK    8  A    between atoms: S_30  and  P_31
REMARK                            x       y       z     vdW  Elec       q    Type
REMARK                         _______ _______ _______ _____ _____    ______ ____
ROOT
ATOM      1  C   UNL     1      50.843 160.210  30.842  0.00  0.00    +0.226 C 
ATOM      2  O   UNL     1      51.549 160.585  32.012  0.00  0.00    -0.436 OA
ATOM      3  C   UNL     1      52.804 161.151  31.916  0.00  0.00    +0.318 C 
ATOM      4  O   UNL     1      53.832 160.661  32.406  0.00  0.00    -0.250 OA
ATOM      5  C   UNL     1      52.877 162.422  31.171  0.00  0.00    +0.110 C 
ATOM      6  C   UNL     1      52.005 162.344  29.960  0.00  0.00    +0.017 C 
ATOM      7  C   UNL     1      51.421 161.012  29.705  0.00  0.00    +0.063 C 
ENDROOT
BRANCH   1   8
ATOM      8  C   UNL     1      49.410 160.470  31.037  0.00  0.00    +0.080 C 
ATOM      9  C   UNL     1      48.706 159.270  31.700  0.00  0.00    +0.010 C 
ATOM     10  C   UNL     1      47.285 159.272  31.231  0.00  0.00    +0.001 C 
ATOM     11  C   UNL     1      47.140 160.749  30.812  0.00  0.00    +0.001 C 
ATOM     12  C   UNL     1      48.463 160.769  29.967  0.00  0.00    +0.009 C 
ATOM     13  C   UNL     1      47.995 159.701  29.027  0.00  0.00    +0.001 C 
ATOM     14  C   UNL     1      47.303 158.626  29.841  0.00  0.00    +0.000 C 
BRANCH   8  15
ATOM     15  C   UNL     1      49.249 161.581  32.043  0.00  0.00    +0.051 C 
ATOM     16  C   UNL     1      48.822 162.780  31.598  0.00  0.00    +0.006 C 
BRANCH  15  18
ATOM     17  N   UNL     1      49.704 161.416  34.604  0.00  0.00    -0.191 NA
ATOM     18  C   UNL     1      49.504 161.493  33.419  0.00  0.00    +0.096 C 
ENDBRANCH  15  18
ENDBRANCH   8  15
ENDBRANCH   1   8
BRANCH   1  19
ATOM     19  N   UNL     1      51.172 158.809  30.602  0.00  0.00    -0.122 N 
ATOM     20  C   UNL     1      51.678 158.268  29.406  0.00  0.00    +0.345 C 
ATOM     21  O   UNL     1      51.959 159.021  28.453  0.00  0.00    -0.249 OA
ATOM     22  N   UNL     1      51.879 156.861  29.236  0.00  0.00    -0.212 N 
ATOM     23  H   UNL     1      51.659 156.265  29.988  0.00  0.00    +0.175 HD
BRANCH  22  24
ATOM     24  N   UNL     1      52.365 156.296  28.074  0.00  0.00    -0.199 N 
ATOM     25  C   UNL     1      51.830 155.016  27.689  0.00  0.00    +0.134 C 
ATOM     26  C   UNL     1      52.070 154.606  26.283  0.00  0.00    +0.033 C 
ATOM     27  C   UNL     1      53.380 155.111  25.704  0.00  0.00    +0.012 C 
ATOM     28  C   UNL     1      53.509 156.601  25.876  0.00  0.00    +0.087 C 
ATOM     29  C   UNL     1      53.372 156.990  27.305  0.00  0.00    +0.242 C 
ATOM     30  O   UNL     1      54.073 157.864  27.854  0.00  0.00    -0.273 OA
BRANCH  25  31
ATOM     31  S   UNL     1      52.421 153.724  28.799  0.00  0.00    -0.169 S 
ATOM     32  H   UNL     1      52.075 154.052  30.073  0.00  0.00    +0.098 HD
BRANCH  31  33
ATOM     33  P   UNL     1      51.678 151.988  28.383  0.00  0.00    -0.040 P 
ATOM     34  H   UNL     1      52.020 151.638  27.093  0.00  0.00    +0.073 HD
ENDBRANCH  31  33
ENDBRANCH  25  31
ENDBRANCH  22  24
BRANCH  19  35
ATOM     35  O   UNL     1      50.895 157.957  31.648  0.00  0.00    -0.288 OA
ATOM     36  H   UNL     1      50.556 158.468  32.400  0.00  0.00    +0.242 HD
ENDBRANCH  19  35
ENDBRANCH   1  19
TORSDOF 8
