REMARK  Name = =
REMARK  0 active torsions:
REMARK  status: ('A' for Active; 'I' for Inactive)
REMARK                            x       y       z     vdW  Elec       q    Type
REMARK                         _______ _______ _______ _____ _____    ______ ____
ROOT
ATOM      1  O   UNL     1      -4.501  -4.381  30.478  0.00  0.00    -0.350 OA
ATOM      2  N   UNL     1      -3.674  -4.514  29.493  0.00  0.00    -0.075 NA
ATOM      3  C   UNL     1      -2.951  -3.404  29.356  0.00  0.00    +0.144 C 
ATOM      4  C   UNL     1      -3.369  -2.533  30.327  0.00  0.00    +0.067 C 
ATOM      5  C   UNL     1      -4.372  -3.203  31.032  0.00  0.00    +0.214 C 
ENDROOT
TORSDOF 0
