REMARK  Name = =
REMARK  1 active torsions:
REMARK  status: ('A' for Active; 'I' for Inactive)
REMARK    1  A    between atoms: C_1  and  C_20
REMARK                            x       y       z     vdW  Elec       q    Type
REMARK                         _______ _______ _______ _____ _____    ______ ____
ROOT
ATOM      1  C   UNL     1      -3.274  -1.683  29.982  0.00  0.00    +0.008 C 
ATOM      2  C   UNL     1      -4.453  -1.328  30.591  0.00  0.00    +0.042 C 
ATOM      3  C   UNL     1      -4.859   0.001  30.674  0.00  0.00    +0.042 C 
ATOM      4  C   UNL     1      -4.025   0.948  30.117  0.00  0.00    +0.003 C 
ATOM      5  C   UNL     1      -2.850   0.582  29.509  0.00  0.00    +0.000 C 
ATOM      6  C   UNL     1      -2.428  -0.723  29.415  0.00  0.00    +0.000 C 
ATOM      7  C   UNL     1      -6.125   0.392  31.313  0.00  0.00    +0.196 C 
ATOM      8  O   UNL     1      -6.450   1.603  31.367  0.00  0.00    -0.287 OA
ATOM      9  C   UNL     1      -6.999  -0.617  31.882  0.00  0.00    +0.042 C 
ATOM     10  C   UNL     1      -6.630  -1.941  31.815  0.00  0.00    +0.042 C 
ATOM     11  C   UNL     1      -7.418  -2.928  32.334  0.00  0.00    +0.003 C 
ATOM     12  C   UNL     1      -8.623  -2.588  32.945  0.00  0.00    +0.000 C 
ATOM     13  C   UNL     1      -9.012  -1.278  33.025  0.00  0.00    +0.000 C 
ATOM     14  C   UNL     1      -8.187  -0.315  32.488  0.00  0.00    +0.003 C 
ATOM     15  C   UNL     1      -5.354  -2.324  31.170  0.00  0.00    +0.196 C 
ATOM     16  O   UNL     1      -5.020  -3.530  31.107  0.00  0.00    -0.287 OA
ENDROOT
BRANCH   1  20
ATOM     17  O   UNL     1      -1.840  -4.965  30.390  0.00  0.00    -0.350 OA
ATOM     18  N   UNL     1      -2.188  -5.008  29.141  0.00  0.00    -0.075 NA
ATOM     19  C   UNL     1      -2.765  -3.872  28.789  0.00  0.00    +0.144 C 
ATOM     20  C   UNL     1      -2.779  -3.045  29.921  0.00  0.00    +0.063 C 
ATOM     21  C   UNL     1      -2.177  -3.795  30.906  0.00  0.00    +0.214 C 
ENDBRANCH   1  20
TORSDOF 1
