REMARK  Name = =
REMARK  2 active torsions:
REMARK  status: ('A' for Active; 'I' for Inactive)
REMARK    1  A    between atoms: C_1  and  C_20
REMARK    2  A    between atoms: C_19  and  C_22
REMARK                            x       y       z     vdW  Elec       q    Type
REMARK                         _______ _______ _______ _____ _____    ______ ____
ROOT
ATOM      1  C   UNL     1      -4.643  -2.363  31.036  0.00  0.00    +0.008 C 
ATOM      2  C   UNL     1      -4.370  -3.545  31.671  0.00  0.00    +0.042 C 
ATOM      3  C   UNL     1      -5.260  -4.096  32.590  0.00  0.00    +0.042 C 
ATOM      4  C   UNL     1      -6.446  -3.406  32.848  0.00  0.00    +0.003 C 
ATOM      5  C   UNL     1      -6.738  -2.226  32.231  0.00  0.00    +0.000 C 
ATOM      6  C   UNL     1      -5.843  -1.702  31.327  0.00  0.00    +0.000 C 
ATOM      7  C   UNL     1      -5.009  -5.331  33.287  0.00  0.00    +0.196 C 
ATOM      8  O   UNL     1      -5.853  -5.775  34.099  0.00  0.00    -0.287 OA
ATOM      9  C   UNL     1      -3.770  -6.056  33.042  0.00  0.00    +0.042 C 
ATOM     10  C   UNL     1      -2.859  -5.552  32.150  0.00  0.00    +0.042 C 
ATOM     11  C   UNL     1      -1.684  -6.250  31.931  0.00  0.00    +0.003 C 
ATOM     12  C   UNL     1      -1.400  -7.431  32.575  0.00  0.00    +0.000 C 
ATOM     13  C   UNL     1      -2.323  -7.928  33.468  0.00  0.00    +0.000 C 
ATOM     14  C   UNL     1      -3.502  -7.235  33.694  0.00  0.00    +0.003 C 
ATOM     15  C   UNL     1      -3.148  -4.297  31.459  0.00  0.00    +0.196 C 
ATOM     16  O   UNL     1      -2.280  -3.895  30.669  0.00  0.00    -0.287 OA
ENDROOT
BRANCH   1  20
ATOM     17  O   UNL     1      -2.388  -1.443  28.406  0.00  0.00    -0.350 OA
ATOM     18  N   UNL     1      -2.931  -0.309  28.667  0.00  0.00    -0.077 NA
ATOM     19  C   UNL     1      -3.812  -0.443  29.659  0.00  0.00    +0.123 C 
ATOM     20  C   UNL     1      -3.780  -1.794  30.017  0.00  0.00    +0.061 C 
ATOM     21  C   UNL     1      -2.857  -2.383  29.186  0.00  0.00    +0.214 C 
BRANCH  19  22
ATOM     22  C   UNL     1      -4.656   0.588  30.272  0.00  0.00    +0.022 C 
ATOM     23  C   UNL     1      -4.602   0.895  31.556  0.00  0.00    +0.002 C 
ENDBRANCH  19  22
ENDBRANCH   1  20
TORSDOF 2
