REMARK  Name = =
REMARK  6 active torsions:
REMARK  status: ('A' for Active; 'I' for Inactive)
REMARK    1  A    between atoms: C_2  and  C_35
REMARK    2  A    between atoms: C_8  and  N_28
REMARK    3  A    between atoms: C_20  and  C_30
REMARK    4  A    between atoms: C_30  and  C_32
REMARK    5  A    between atoms: C_32  and  O_34
REMARK    6  A    between atoms: C_35  and  C_36
REMARK                            x       y       z     vdW  Elec       q    Type
REMARK                         _______ _______ _______ _____ _____    ______ ____
ROOT
ATOM      1  N   UNL     1      -7.026  -0.295  30.471  0.00  0.00    -0.272 NA
ATOM      2  C   UNL     1      -5.837  -0.139  31.203  0.00  0.00    +0.064 C 
ATOM      3  C   UNL     1      -6.018  -1.107  32.376  0.00  0.00    +0.018 C 
ATOM      4  C   UNL     1      -7.507  -1.163  32.625  0.00  0.00    +0.019 C 
ATOM      5  C   UNL     1      -8.080  -0.751  31.308  0.00  0.00    +0.072 C 
ATOM      6  C   UNL     1      -4.592  -0.547  30.433  0.00  0.00    +0.085 C 
ATOM      7  N   UNL     1      -4.140  -1.828  30.872  0.00  0.00    -0.282 NA
ATOM      8  C   UNL     1      -3.620  -2.672  29.850  0.00  0.00    +0.162 C 
ATOM      9  C   UNL     1      -2.984  -1.932  28.701  0.00  0.00    +0.037 C 
ATOM     10  C   UNL     1      -2.109  -2.918  27.959  0.00  0.00    +0.004 C 
ATOM     11  C   UNL     1      -1.423  -2.307  26.769  0.00  0.00    +0.017 C 
ATOM     12  C   UNL     1      -2.379  -1.602  25.837  0.00  0.00    +0.069 C 
ATOM     13  N   UNL     1      -3.214  -2.565  25.117  0.00  0.00    -0.296 NA
ATOM     14  C   UNL     1      -3.437  -2.113  23.743  0.00  0.00    +0.086 C 
ATOM     15  C   UNL     1      -4.039  -0.744  23.695  0.00  0.00    +0.090 C 
ATOM     16  N   UNL     1      -5.457  -0.845  23.380  0.00  0.00    -0.266 NA
ATOM     17  C   UNL     1      -6.111   0.438  23.531  0.00  0.00    +0.074 C 
ATOM     18  C   UNL     1      -6.929   0.680  22.304  0.00  0.00    +0.019 C 
ATOM     19  C   UNL     1      -6.109  -0.054  21.235  0.00  0.00    +0.026 C 
ATOM     20  C   UNL     1      -5.679  -1.289  22.037  0.00  0.00    +0.127 C 
ATOM     21  C   UNL     1      -6.885   0.436  24.804  0.00  0.00    +0.085 C 
ATOM     22  N   UNL     1      -7.941   1.396  24.858  0.00  0.00    -0.295 NA
ATOM     23  C   UNL     1      -9.232   0.845  25.135  0.00  0.00    +0.086 C 
ATOM     24  C   UNL     1      -9.304   0.189  26.483  0.00  0.00    +0.086 C 
ATOM     25  N   UNL     1      -8.689   0.990  27.526  0.00  0.00    -0.295 NA
ATOM     26  C   UNL     1      -7.801   0.154  28.270  0.00  0.00    +0.086 C 
ATOM     27  C   UNL     1      -7.410   0.773  29.618  0.00  0.00    +0.089 C 
ATOM     28  H   UNL     1      -4.928  -2.308  31.307  0.00  0.00    +0.125 HD
ATOM     29  H   UNL     1      -4.112  -2.654  25.592  0.00  0.00    +0.123 HD
ATOM     30  H   UNL     1      -7.985   1.872  23.957  0.00  0.00    +0.123 HD
ATOM     31  H   UNL     1      -9.410   1.364  28.144  0.00  0.00    +0.123 HD
ENDROOT
BRANCH   8  32
ATOM     32  N   UNL     1      -2.568  -3.480  30.454  0.00  0.00    -0.033 NA
ATOM     33  O   UNL     1      -1.687  -2.828  30.972  0.00  0.00    -0.099 OA
ENDBRANCH   8  32
BRANCH  20  34
ATOM     34  C   UNL     1      -6.844  -2.242  22.026  0.00  0.00    +0.262 C 
ATOM     35  O   UNL     1      -7.590  -2.342  23.029  0.00  0.00    -0.283 OA
BRANCH  34  36
ATOM     36  C   UNL     1      -7.124  -3.059  20.861  0.00  0.00    +0.375 C 
ATOM     37  O   UNL     1      -6.322  -3.076  19.867  0.00  0.00    -0.242 OA
BRANCH  36  38
ATOM     38  O   UNL     1      -8.275  -3.826  20.831  0.00  0.00    -0.475 OA
ATOM     39  H   UNL     1      -8.865  -3.815  21.559  0.00  0.00    +0.295 HD
ENDBRANCH  36  38
ENDBRANCH  34  36
ENDBRANCH  20  34
BRANCH   2  40
ATOM     40  C   UNL     1      -5.590   1.213  31.784  0.00  0.00    +0.042 C 
BRANCH  40  41
ATOM     41  C   UNL     1      -6.426   1.510  32.976  0.00  0.00    -0.025 C 
ATOM     42  C   UNL     1      -5.979   1.472  34.213  0.00  0.00    -0.005 C 
ENDBRANCH  40  41
ENDBRANCH   2  40
TORSDOF 6
