REMARK  Name = =
REMARK  3 active torsions:
REMARK  status: ('A' for Active; 'I' for Inactive)
REMARK    1  A    between atoms: C_3  and  C_22
REMARK    2  A    between atoms: C_4  and  C_6
REMARK    3  A    between atoms: C_22  and  C_24
REMARK                            x       y       z     vdW  Elec       q    Type
REMARK                         _______ _______ _______ _____ _____    ______ ____
ROOT
ATOM      1  O   UNL     1     -11.076  -3.252  20.016  0.00  0.00    -0.350 OA
ATOM      2  N   UNL     1     -11.131  -3.615  21.254  0.00  0.00    -0.077 NA
ATOM      3  C   UNL     1     -12.256  -3.133  21.846  0.00  0.00    +0.123 C 
ATOM      4  C   UNL     1     -12.896  -2.426  20.843  0.00  0.00    +0.061 C 
ATOM      5  C   UNL     1     -12.096  -2.535  19.688  0.00  0.00    +0.214 C 
ENDROOT
BRANCH   4   6
ATOM      6  C   UNL     1     -14.095  -1.617  20.949  0.00  0.00    +0.008 C 
ATOM      7  C   UNL     1     -14.067  -0.328  21.396  0.00  0.00    +0.042 C 
ATOM      8  C   UNL     1     -15.253   0.399  21.582  0.00  0.00    +0.042 C 
ATOM      9  C   UNL     1     -16.463  -0.186  21.312  0.00  0.00    +0.003 C 
ATOM     10  C   UNL     1     -16.485  -1.484  20.860  0.00  0.00    +0.000 C 
ATOM     11  C   UNL     1     -15.321  -2.221  20.671  0.00  0.00    +0.000 C 
ATOM     12  C   UNL     1     -15.253   1.780  22.037  0.00  0.00    +0.196 C 
ATOM     13  O   UNL     1     -16.308   2.442  22.208  0.00  0.00    -0.287 OA
ATOM     14  C   UNL     1     -13.982   2.435  22.310  0.00  0.00    +0.042 C 
ATOM     15  C   UNL     1     -12.811   1.732  22.129  0.00  0.00    +0.042 C 
ATOM     16  C   UNL     1     -11.585   2.337  22.380  0.00  0.00    +0.003 C 
ATOM     17  C   UNL     1     -11.544   3.635  22.807  0.00  0.00    +0.000 C 
ATOM     18  C   UNL     1     -12.724   4.322  22.981  0.00  0.00    +0.000 C 
ATOM     19  C   UNL     1     -13.943   3.758  22.744  0.00  0.00    +0.003 C 
ATOM     20  C   UNL     1     -12.815   0.335  21.668  0.00  0.00    +0.196 C 
ATOM     21  O   UNL     1     -11.739  -0.253  21.519  0.00  0.00    -0.287 OA
ENDBRANCH   4   6
BRANCH   3  22
ATOM     22  C   UNL     1     -12.670  -3.335  23.235  0.00  0.00    +0.021 C 
ATOM     23  C   UNL     1     -12.807  -4.557  23.731  0.00  0.00    +0.002 C 
BRANCH  22  24
ATOM     24  C   UNL     1     -12.958  -2.180  24.068  0.00  0.00    +0.001 C 
ATOM     25  C   UNL     1     -14.296  -1.849  24.316  0.00  0.00    -0.005 C 
ATOM     26  C   UNL     1     -14.651  -0.808  25.121  0.00  0.00    -0.026 C 
ATOM     27  C   UNL     1     -13.671  -0.025  25.736  0.00  0.00    -0.026 C 
ATOM     28  C   UNL     1     -12.354  -0.332  25.507  0.00  0.00    -0.005 C 
ATOM     29  C   UNL     1     -12.025  -1.403  24.678  0.00  0.00    -0.000 C 
ATOM     30  C   UNL     1     -13.996   1.091  26.618  0.00  0.00    +0.022 C 
ATOM     31  C   UNL     1     -13.026   2.211  26.515  0.00  0.00    +0.005 C 
ATOM     32  C   UNL     1     -13.678   3.577  26.453  0.00  0.00    +0.008 C 
ATOM     33  C   UNL     1     -14.787   3.725  27.454  0.00  0.00    +0.058 C 
ATOM     34  C   UNL     1     -15.814   2.642  27.408  0.00  0.00    +0.008 C 
ATOM     35  C   UNL     1     -16.076   2.238  28.852  0.00  0.00    +0.008 C 
ATOM     36  C   UNL     1     -14.827   2.614  29.618  0.00  0.00    +0.065 C 
ATOM     37  C   UNL     1     -14.287   3.760  28.846  0.00  0.00    +0.150 C 
ATOM     38  O   UNL     1     -13.536   4.631  29.259  0.00  0.00    -0.296 OA
ATOM     39  C   UNL     1     -15.422   1.416  26.675  0.00  0.00    +0.005 C 
ATOM     40  C   UNL     1     -16.297   0.984  25.561  0.00  0.00    +0.005 C 
ATOM     41  C   UNL     1     -16.102  -0.505  25.334  0.00  0.00    +0.026 C 
ENDBRANCH  22  24
ENDBRANCH   3  22
TORSDOF 3
