MODEL 1
REMARK VINA RESULT:   -11.817      0.000      0.000
REMARK INTER + INTRA:         -16.553
REMARK INTER:                 -14.581
REMARK INTRA:                  -1.973
REMARK UNBOUND:                -1.973
REMARK  Name = =
REMARK  5 active torsions:
REMARK  status: ('A' for Active; 'I' for Inactive)
REMARK    1  A    between atoms: C_1  and  C_29
REMARK    2  A    between atoms: C_3  and  C_8
REMARK    3  A    between atoms: C_3  and  C_34
REMARK    4  A    between atoms: C_30  and  O_33
REMARK    5  A    between atoms: C_42  and  O_44
REMARK                            x       y       z     vdW  Elec       q    Type
REMARK                         _______ _______ _______ _____ _____    ______ ____
ROOT
ATOM      1  C   UNL     1       1.285  -4.452  28.192  0.00  0.00    +0.144 C 
ATOM      2  O   UNL     1       1.543  -5.664  28.908  0.00  0.00    -0.348 OA
ATOM      3  C   UNL     1       0.567  -6.470  29.145  0.00  0.00    +0.130 C 
ATOM      4  C   UNL     1      -0.757  -5.590  28.907  0.00  0.00    +0.036 C 
ATOM      5  C   UNL     1      -0.636  -4.266  29.600  0.00  0.00    +0.006 C 
ATOM      6  C   UNL     1       0.701  -3.599  29.313  0.00  0.00    +0.032 C 
ATOM      7  C   UNL     1       0.347  -2.204  28.795  0.00  0.00    +0.003 C 
ENDROOT
BRANCH   3   8
ATOM      8  C   UNL     1       0.355  -7.570  28.118  0.00  0.00    +0.006 C 
ATOM      9  C   UNL     1       1.463  -8.435  27.887  0.00  0.00    -0.002 C 
ATOM     10  C   UNL     1       1.442  -9.484  26.997  0.00  0.00    +0.002 C 
ATOM     11  C   UNL     1       0.274  -9.675  26.308  0.00  0.00    +0.029 C 
ATOM     12  C   UNL     1      -0.805  -8.873  26.496  0.00  0.00    +0.006 C 
ATOM     13  C   UNL     1      -0.755  -7.805  27.418  0.00  0.00    -0.001 C 
ATOM     14  S   UNL     1       0.108 -10.989  25.110  0.00  0.00    -0.087 S 
ATOM     15  C   UNL     1       1.509 -12.089  25.407  0.00  0.00    +0.025 C 
ATOM     16  C   UNL     1       2.550 -11.668  26.172  0.00  0.00    -0.016 C 
ATOM     17  C   UNL     1       3.624 -12.542  26.321  0.00  0.00    +0.052 C 
ATOM     18  C   UNL     1       3.653 -13.813  25.720  0.00  0.00    -0.021 C 
ATOM     19  C   UNL     1       2.569 -14.178  24.962  0.00  0.00    -0.004 C 
ATOM     20  C   UNL     1       1.517 -13.313  24.816  0.00  0.00    +0.006 C 
ATOM     21  C   UNL     1       2.565 -10.418  26.952  0.00  0.00    -0.025 C 
ATOM     22  C   UNL     1       3.670 -10.107  27.584  0.00  0.00    +0.031 C 
ENDBRANCH   3   8
BRANCH   1  29
ATOM     23  O   UNL     1       1.199  -2.987  25.696  0.00  0.00    -0.476 OA
ATOM     24  C   UNL     1       0.949  -1.638  25.244  0.00  0.00    +0.206 C 
ATOM     25  C   UNL     1       2.234  -0.918  24.882  0.00  0.00    +0.052 C 
ATOM     26  C   UNL     1       3.270  -1.975  24.488  0.00  0.00    +0.033 C 
ATOM     27  C   UNL     1       3.521  -2.739  25.737  0.00  0.00    +0.012 C 
ATOM     28  C   UNL     1       2.410  -3.234  26.379  0.00  0.00    +0.136 C 
ATOM     29  C   UNL     1       2.505  -3.910  27.605  0.00  0.00    +0.072 C 
ATOM     30  C   UNL     1       3.741  -4.087  28.174  0.00  0.00    +0.135 C 
ATOM     31  C   UNL     1       4.864  -3.588  27.522  0.00  0.00    +0.036 C 
ATOM     32  C   UNL     1       4.746  -2.922  26.317  0.00  0.00    +0.002 C 
BRANCH  30  33
ATOM     33  O   UNL     1       3.945  -4.753  29.394  0.00  0.00    -0.506 OA
ATOM     34  H   UNL     1       4.714  -4.579  29.900  0.00  0.00    +0.292 HD
ENDBRANCH  30  33
ENDBRANCH   1  29
BRANCH   3  35
ATOM     35  C   UNL     1       0.133  -7.056  30.442  0.00  0.00    +0.009 C 
ATOM     36  C   UNL     1       0.665  -6.798  31.654  0.00  0.00    +0.019 C 
ATOM     37  C   UNL     1      -0.002  -7.064  32.839  0.00  0.00    +0.081 C 
ATOM     38  N   UNL     1      -1.253  -7.620  32.830  0.00  0.00    -0.244 NA
ATOM     39  C   UNL     1      -1.772  -7.882  31.627  0.00  0.00    +0.099 C 
ATOM     40  C   UNL     1      -1.172  -7.642  30.437  0.00  0.00    +0.019 C 
ATOM     41  C   UNL     1       0.625  -6.825  34.037  0.00  0.00    +0.022 C 
ATOM     42  C   UNL     1       1.909  -6.329  34.087  0.00  0.00    +0.038 C 
ATOM     43  C   UNL     1       2.572  -6.074  32.912  0.00  0.00    +0.134 C 
ATOM     44  C   UNL     1       1.971  -6.303  31.719  0.00  0.00    +0.038 C 
BRANCH  43  45
ATOM     45  O   UNL     1       3.876  -5.576  32.899  0.00  0.00    -0.506 OA
ATOM     46  H   UNL     1       4.033  -4.670  33.081  0.00  0.00    +0.292 HD
ENDBRANCH  43  45
ENDBRANCH   3  35
TORSDOF 5
ENDMDL
