MODEL 1
REMARK VINA RESULT:    -9.605      0.000      0.000
REMARK INTER + INTRA:         -16.062
REMARK INTER:                 -14.659
REMARK INTRA:                  -1.402
REMARK UNBOUND:                -1.402
REMARK  Name = =
REMARK  10 active torsions:
REMARK  status: ('A' for Active; 'I' for Inactive)
REMARK    1  A    between atoms: C_1  and  C_16
REMARK    2  A    between atoms: N_11  and  S_25
REMARK    3  A    between atoms: C_12  and  S_19
REMARK    4  A    between atoms: S_19  and  N_20
REMARK    5  A    between atoms: S_19  and  S_22
REMARK    6  A    between atoms: S_22  and  N_23
REMARK    7  A    between atoms: S_25  and  S_26
REMARK    8  A    between atoms: S_26  and  C_27
REMARK    9  A    between atoms: S_26  and  S_35
REMARK   10  A    between atoms: C_30  and  O_34
REMARK                            x       y       z     vdW  Elec       q    Type
REMARK                         _______ _______ _______ _____ _____    ______ ____
ROOT
ATOM      1  C   UNL     1       1.986  -5.289  29.395  0.00  0.00    -0.012 C 
ATOM      2  C   UNL     1       0.876  -6.074  29.171  0.00  0.00    -0.002 C 
ATOM      3  C   UNL     1       0.257  -6.761  30.212  0.00  0.00    +0.015 C 
ATOM      4  C   UNL     1       0.755  -6.660  31.493  0.00  0.00    +0.066 C 
ATOM      5  C   UNL     1       1.850  -5.889  31.725  0.00  0.00    +0.053 C 
ATOM      6  C   UNL     1       2.475  -5.198  30.679  0.00  0.00    +0.001 C 
ATOM      7  C   UNL     1       2.373  -5.765  32.977  0.00  0.00    +0.198 C 
ATOM      8  O   UNL     1       3.378  -5.051  33.162  0.00  0.00    -0.286 OA
ATOM      9  C   UNL     1       1.749  -6.450  33.997  0.00  0.00    +0.059 C 
ATOM     10  C   UNL     1       0.658  -7.208  33.721  0.00  0.00    +0.080 C 
ATOM     11  N   UNL     1       0.113  -7.352  32.475  0.00  0.00    -0.231 N 
ENDROOT
BRANCH   1  16
ATOM     12  C   UNL     1       3.453  -3.139  26.175  0.00  0.00    +0.223 C 
ATOM     13  O   UNL     1       2.570  -2.451  27.074  0.00  0.00    -0.440 OA
ATOM     14  C   UNL     1       2.270  -3.137  28.243  0.00  0.00    +0.321 C 
ATOM     15  O   UNL     1       1.751  -2.532  29.193  0.00  0.00    -0.250 OA
ATOM     16  C   UNL     1       2.602  -4.587  28.266  0.00  0.00    +0.121 C 
ATOM     17  C   UNL     1       2.117  -5.140  26.922  0.00  0.00    +0.020 C 
ATOM     18  C   UNL     1       2.949  -4.508  25.827  0.00  0.00    +0.057 C 
BRANCH  12  19
ATOM     19  S   UNL     1       3.743  -2.129  24.824  0.00  0.00    -0.033 S 
ATOM     20  H   UNL     1       4.004  -2.619  23.582  0.00  0.00    +0.117 HD
BRANCH  19  21
ATOM     21  N   UNL     1       5.179  -1.289  25.390  0.00  0.00    +0.003 NA
ATOM     22  O   UNL     1       5.641  -0.542  24.587  0.00  0.00    -0.089 OA
ENDBRANCH  19  21
BRANCH  19  23
ATOM     23  S   UNL     1       2.382  -1.327  24.634  0.00  0.00    +0.088 S 
BRANCH  23  24
ATOM     24  N   UNL     1       2.044   0.164  25.124  0.00  0.00    +0.016 NA
ATOM     25  O   UNL     1       1.908   0.701  26.179  0.00  0.00    -0.135 OA
ENDBRANCH  23  24
ENDBRANCH  19  23
ENDBRANCH  12  19
ENDBRANCH   1  16
BRANCH  11  26
ATOM     26  S   UNL     1      -1.214  -8.280  32.179  0.00  0.00    +0.009 S 
BRANCH  26  27
ATOM     27  S   UNL     1      -2.736  -7.789  32.187  0.00  0.00    -0.109 S 
ATOM     28  H   UNL     1      -3.169  -8.131  33.431  0.00  0.00    +0.110 HD
BRANCH  27  29
ATOM     29  C   UNL     1      -3.212  -6.138  32.147  0.00  0.00    +0.051 C 
ATOM     30  C   UNL     1      -3.798  -5.516  33.255  0.00  0.00    +0.149 C 
ATOM     31  C   UNL     1      -4.172  -4.182  33.199  0.00  0.00    +0.067 C 
ATOM     32  C   UNL     1      -3.985  -3.445  32.071  0.00  0.00    +0.136 C 
ATOM     33  C   UNL     1      -3.412  -4.029  30.966  0.00  0.00    +0.037 C 
ATOM     34  C   UNL     1      -3.048  -5.340  31.035  0.00  0.00    +0.011 C 
ATOM     35  F   UNL     1      -3.976  -6.253  34.354  0.00  0.00    -0.204 F 
BRANCH  32  36
ATOM     36  O   UNL     1      -4.368  -2.091  32.017  0.00  0.00    -0.505 OA
ATOM     37  H   UNL     1      -5.273  -1.863  31.934  0.00  0.00    +0.292 HD
ENDBRANCH  32  36
ENDBRANCH  27  29
BRANCH  27  38
ATOM     38  S   UNL     1      -3.345  -8.465  30.853  0.00  0.00    -0.117 S 
ATOM     39  H   UNL     1      -4.026  -9.594  31.187  0.00  0.00    +0.113 HD
ENDBRANCH  27  38
ENDBRANCH  26  27
ENDBRANCH  11  26
TORSDOF 10
ENDMDL
