REMARK  Name = =
REMARK  5 active torsions:
REMARK  status: ('A' for Active; 'I' for Inactive)
REMARK    1  A    between atoms: N_1  and  C_20
REMARK    2  A    between atoms: C_12  and  O_43
REMARK    3  A    between atoms: O_25  and  O_28
REMARK    4  A    between atoms: O_28  and  C_29
REMARK    5  A    between atoms: C_29  and  N_36
REMARK                            x       y       z     vdW  Elec       q    Type
REMARK                         _______ _______ _______ _____ _____    ______ ____
ROOT
ATOM      1  N   UNL     1      53.590 155.805  26.430  0.00  0.00    -0.252 NA
ATOM      2  C   UNL     1      52.612 155.009  25.686  0.00  0.00    +0.068 C 
ATOM      3  C   UNL     1      53.339 154.483  24.477  0.00  0.00    +0.044 C 
ATOM      4  C   UNL     1      54.258 153.399  24.994  0.00  0.00    +0.065 C 
ATOM      5  C   UNL     1      54.996 152.638  23.944  0.00  0.00    +0.174 C 
ATOM      6  O   UNL     1      55.027 151.303  24.493  0.00  0.00    -0.476 OA
ATOM      7  C   UNL     1      53.871 151.121  25.263  0.00  0.00    +0.168 C 
ATOM      8  C   UNL     1      53.408 152.349  25.564  0.00  0.00    +0.014 C 
ATOM      9  C   UNL     1      52.303 152.598  26.295  0.00  0.00    -0.022 C 
ATOM     10  C   UNL     1      51.559 151.570  26.793  0.00  0.00    -0.001 C 
ATOM     11  C   UNL     1      52.000 150.270  26.508  0.00  0.00    +0.039 C 
ATOM     12  C   UNL     1      53.146 150.044  25.750  0.00  0.00    +0.167 C 
ATOM     13  C   UNL     1      51.918 154.003  26.525  0.00  0.00    +0.042 C 
ATOM     14  C   UNL     1      54.296 152.545  22.623  0.00  0.00    +0.070 C 
ATOM     15  C   UNL     1      52.920 153.043  22.596  0.00  0.00    -0.027 C 
ATOM     16  C   UNL     1      52.428 153.940  23.432  0.00  0.00    -0.029 C 
ATOM     17  C   UNL     1      55.160 153.957  26.028  0.00  0.00    +0.025 C 
ATOM     18  C   UNL     1      54.503 154.864  27.038  0.00  0.00    +0.075 C 
ENDROOT
BRANCH   1  20
ATOM     19  N   UNL     1      53.932 157.270  24.509  0.00  0.00    -0.250 NA
ATOM     20  C   UNL     1      54.391 156.516  25.467  0.00  0.00    +0.186 C 
ATOM     21  C   UNL     1      55.862 156.549  25.345  0.00  0.00    +0.016 C 
ATOM     22  C   UNL     1      56.142 157.426  24.183  0.00  0.00    +0.019 C 
ATOM     23  C   UNL     1      54.979 157.820  23.732  0.00  0.00    +0.095 C 
ENDBRANCH   1  20
BRANCH  12  24
ATOM     24  O   UNL     1      53.598 148.762  25.456  0.00  0.00    -0.503 OA
ATOM     25  H   UNL     1      54.373 148.645  24.943  0.00  0.00    +0.292 HD
ENDBRANCH  12  24
TORSDOF 2
REMARK  Name = =
REMARK  5 active torsions:
REMARK  status: ('A' for Active; 'I' for Inactive)
REMARK    1  A    between atoms: N_1  and  C_20
REMARK    2  A    between atoms: C_12  and  O_43
REMARK    3  A    between atoms: O_25  and  O_28
REMARK    4  A    between atoms: O_28  and  C_29
REMARK    5  A    between atoms: C_29  and  N_36
REMARK                            x       y       z     vdW  Elec       q    Type
REMARK                         _______ _______ _______ _____ _____    ______ ____
ROOT
ATOM      1  P   UNL     1      52.846 156.949  27.378  0.00  0.00    +0.000 P 
ENDROOT
TORSDOF 0
REMARK  Name = =
REMARK  5 active torsions:
REMARK  status: ('A' for Active; 'I' for Inactive)
REMARK    1  A    between atoms: N_1  and  C_20
REMARK    2  A    between atoms: C_12  and  O_43
REMARK    3  A    between atoms: O_25  and  O_28
REMARK    4  A    between atoms: O_28  and  C_29
REMARK    5  A    between atoms: C_29  and  N_36
REMARK                            x       y       z     vdW  Elec       q    Type
REMARK                         _______ _______ _______ _____ _____    ______ ____
ROOT
ATOM      1  C   UNL     1      50.871 156.754  28.854  0.00  0.00    +0.223 C 
ATOM      2  C   UNL     1      51.377 155.460  29.122  0.00  0.00    +0.126 C 
ATOM      3  N   UNL     1      50.063 155.001  29.498  0.00  0.00    -0.300 N 
ATOM      4  C   UNL     1      50.263 153.956  30.444  0.00  0.00    +0.057 C 
ATOM      5  C   UNL     1      51.528 153.828  30.791  0.00  0.00    -0.009 C 
ATOM      6  C   UNL     1      52.271 154.859  30.034  0.00  0.00    +0.051 C 
ATOM      7  C   UNL     1      49.594 156.020  28.566  0.00  0.00    +0.141 C 
ENDROOT
BRANCH   1   8
ATOM      8  N   UNL     1      50.611 157.727  29.944  0.00  0.00    -0.256 N 
ATOM      9  C   UNL     1      51.454 158.874  30.011  0.00  0.00    +0.227 C 
ATOM     10  O   UNL     1      52.694 158.821  29.692  0.00  0.00    -0.275 OA
ATOM     11  C   UNL     1      50.920 160.173  30.455  0.00  0.00    +0.085 C 
ATOM     12  C   UNL     1      49.821 160.037  31.475  0.00  0.00    +0.011 C 
ATOM     13  C   UNL     1      48.872 158.923  31.160  0.00  0.00    +0.022 C 
ATOM     14  C   UNL     1      49.586 157.594  30.933  0.00  0.00    +0.096 C 
ENDBRANCH   1   8
BRANCH   1  15
ATOM     15  O   UNL     1      51.441 157.546  27.881  0.00  0.00    -0.206 OA
BRANCH  15  16
ATOM     16  O   UNL     1      52.107 157.793  26.324  0.00  0.00    -0.248 OA
ATOM     17  H   UNL     1      52.369 158.722  26.228  0.00  0.00    +0.253 HD
ENDBRANCH  15  16
ENDBRANCH   1  15
TORSDOF 3
REMARK  Name = =
REMARK  5 active torsions:
REMARK  status: ('A' for Active; 'I' for Inactive)
REMARK    1  A    between atoms: N_1  and  C_20
REMARK    2  A    between atoms: C_12  and  O_43
REMARK    3  A    between atoms: O_25  and  O_28
REMARK    4  A    between atoms: O_28  and  C_29
REMARK    5  A    between atoms: C_29  and  N_36
REMARK                            x       y       z     vdW  Elec       q    Type
REMARK                         _______ _______ _______ _____ _____    ______ ____
ROOT
ATOM      1  N   UNL     1      54.132 158.083  27.347  0.00  0.00    -0.273 NA
ATOM      2  H   UNL     1      55.152 158.083  27.347  0.00  0.00    +0.137 HD
ATOM      3  H   UNL     1      53.792 158.728  28.060  0.00  0.00    +0.137 HD
ENDROOT
TORSDOF 0
REMARK  Name = =
REMARK  5 active torsions:
REMARK  status: ('A' for Active; 'I' for Inactive)
REMARK    1  A    between atoms: N_1  and  C_20
REMARK    2  A    between atoms: C_12  and  O_43
REMARK    3  A    between atoms: O_25  and  O_28
REMARK    4  A    between atoms: O_28  and  C_29
REMARK    5  A    between atoms: C_29  and  N_36
REMARK                            x       y       z     vdW  Elec       q    Type
REMARK                         _______ _______ _______ _____ _____    ______ ____
ROOT
ATOM      1  O   HOH     1      52.802 156.056  28.771  0.00  0.00    -0.253 OA
ATOM      2  H   HOH     0      53.772 156.056  28.771  0.00  0.00    +0.253 HD
ENDROOT
TORSDOF 0
