REMARK  Name = =
REMARK  2 active torsions:
REMARK  status: ('A' for Active; 'I' for Inactive)
REMARK    1  A    between atoms: C_1  and  C_7
REMARK    2  A    between atoms: C_7  and  O_9
REMARK                            x       y       z     vdW  Elec       q    Type
REMARK                         _______ _______ _______ _____ _____    ______ ____
ROOT
ATOM      1  C   UNL     1     -16.199 -42.240  26.948  0.00  0.00    +0.075 C 
ATOM      2  C   UNL     1     -16.610 -42.173  25.635  0.00  0.00    +0.006 C 
ATOM      3  C   UNL     1     -17.923 -41.820  25.323  0.00  0.00    +0.000 C 
ATOM      4  C   UNL     1     -18.851 -41.530  26.303  0.00  0.00    +0.000 C 
ATOM      5  C   UNL     1     -18.417 -41.604  27.608  0.00  0.00    +0.000 C 
ATOM      6  C   UNL     1     -17.114 -41.953  27.936  0.00  0.00    +0.006 C 
ENDROOT
BRANCH   1   7
ATOM      7  C   UNL     1     -14.819 -42.611  27.274  0.00  0.00    +0.338 C 
ATOM      8  O   UNL     1     -14.607 -43.286  28.311  0.00  0.00    -0.245 OA
BRANCH   7   9
ATOM      9  O   UNL     1     -13.762 -42.237  26.474  0.00  0.00    -0.477 OA
ATOM     10  H   UNL     1     -13.916 -41.733  25.699  0.00  0.00    +0.295 HD
ENDBRANCH   7   9
ENDBRANCH   1   7
TORSDOF 2
