REMARK  Name = =
REMARK  3 active torsions:
REMARK  status: ('A' for Active; 'I' for Inactive)
REMARK    1  A    between atoms: O_1  and  C_2
REMARK    2  A    between atoms: O_1  and  C_9
REMARK    3  A    between atoms: C_9  and  C_11
REMARK                            x       y       z     vdW  Elec       q    Type
REMARK                         _______ _______ _______ _____ _____    ______ ____
ROOT
ATOM      1  O   UNL     1     -19.477 -41.521  24.750  0.00  0.00    -0.445 OA
ENDROOT
BRANCH   1   2
ATOM      2  C   UNL     1     -20.620 -42.170  24.247  0.00  0.00    +0.188 C 
ATOM      3  C   UNL     1     -21.320 -43.011  25.283  0.00  0.00    +0.048 C 
ATOM      4  C   UNL     1     -22.353 -43.842  24.509  0.00  0.00    +0.004 C 
ATOM      5  C   UNL     1     -23.435 -42.865  24.096  0.00  0.00    +0.005 C 
ATOM      6  C   UNL     1     -22.933 -41.733  23.270  0.00  0.00    +0.026 C 
ATOM      7  C   UNL     1     -21.582 -41.272  23.609  0.00  0.00    -0.005 C 
ATOM      8  C   UNL     1     -21.248 -40.022  23.325  0.00  0.00    -0.006 C 
ENDBRANCH   1   2
BRANCH   1   9
ATOM      9  C   UNL     1     -18.214 -41.637  24.244  0.00  0.00    +0.341 C 
ATOM     10  O   UNL     1     -18.046 -41.532  23.005  0.00  0.00    -0.245 OA
BRANCH   9  11
ATOM     11  C   UNL     1     -17.026 -41.881  25.083  0.00  0.00    +0.076 C 
ATOM     12  C   UNL     1     -17.113 -41.959  26.447  0.00  0.00    +0.006 C 
ATOM     13  C   UNL     1     -15.976 -42.188  27.185  0.00  0.00    +0.000 C 
ATOM     14  C   UNL     1     -14.724 -42.347  26.629  0.00  0.00    +0.000 C 
ATOM     15  C   UNL     1     -14.661 -42.264  25.254  0.00  0.00    +0.000 C 
ATOM     16  C   UNL     1     -15.788 -42.035  24.493  0.00  0.00    +0.006 C 
ENDBRANCH   9  11
ENDBRANCH   1   9
TORSDOF 3
