REMARK  Name = =
REMARK  5 active torsions:
REMARK  status: ('A' for Active; 'I' for Inactive)
REMARK    1  A    between atoms: C_1  and  S_8
REMARK    2  A    between atoms: C_1  and  O_12
REMARK    3  A    between atoms: S_8  and  N_11
REMARK    4  A    between atoms: O_12  and  C_13
REMARK    5  A    between atoms: C_13  and  C_15
REMARK                            x       y       z     vdW  Elec       q    Type
REMARK                         _______ _______ _______ _____ _____    ______ ____
ROOT
ATOM      1  C   UNL     1     -20.979 -42.128  24.277  0.00  0.00    +0.274 C 
ATOM      2  C   UNL     1     -21.632 -43.185  25.133  0.00  0.00    +0.069 C 
ATOM      3  C   UNL     1     -23.098 -43.315  24.862  0.00  0.00    +0.006 C 
ATOM      4  C   UNL     1     -23.237 -43.937  23.481  0.00  0.00    +0.005 C 
ATOM      5  C   UNL     1     -22.568 -43.117  22.444  0.00  0.00    +0.027 C 
ATOM      6  C   UNL     1     -21.330 -42.443  22.837  0.00  0.00    +0.014 C 
ATOM      7  C   UNL     1     -20.484 -42.094  21.878  0.00  0.00    -0.004 C 
ENDROOT
BRANCH   1   8
ATOM      8  S   UNL     1     -21.616 -40.518  24.574  0.00  0.00    +0.073 S 
ATOM      9  O   UNL     1     -22.918 -40.273  23.858  0.00  0.00    -0.154 OA
ATOM     10  O   UNL     1     -20.632 -39.546  23.926  0.00  0.00    -0.154 OA
BRANCH   8  11
ATOM     11  N   UNL     1     -21.703 -40.111  26.228  0.00  0.00    -0.204 NA
ATOM     12  H   UNL     1     -22.353 -40.740  26.699  0.00  0.00    +0.144 HD
ATOM     13  H   UNL     1     -22.030 -39.150  26.325  0.00  0.00    +0.144 HD
ENDBRANCH   8  11
ENDBRANCH   1   8
BRANCH   1  14
ATOM     14  O   UNL     1     -19.604 -42.121  24.341  0.00  0.00    -0.427 OA
BRANCH  14  15
ATOM     15  C   UNL     1     -18.775 -42.063  25.411  0.00  0.00    +0.343 C 
ATOM     16  O   UNL     1     -19.307 -42.005  26.545  0.00  0.00    -0.245 OA
BRANCH  15  17
ATOM     17  C   UNL     1     -17.315 -42.065  25.316  0.00  0.00    +0.076 C 
ATOM     18  C   UNL     1     -16.559 -42.158  26.459  0.00  0.00    +0.006 C 
ATOM     19  C   UNL     1     -15.175 -42.162  26.402  0.00  0.00    +0.000 C 
ATOM     20  C   UNL     1     -14.518 -42.073  25.195  0.00  0.00    +0.000 C 
ATOM     21  C   UNL     1     -15.260 -41.981  24.055  0.00  0.00    +0.000 C 
ATOM     22  C   UNL     1     -16.650 -41.976  24.119  0.00  0.00    +0.006 C 
ENDBRANCH  15  17
ENDBRANCH  14  15
ENDBRANCH   1  14
TORSDOF 5
