REMARK  Name = =
REMARK  0 active torsions:
REMARK  status: ('A' for Active; 'I' for Inactive)
REMARK                            x       y       z     vdW  Elec       q    Type
REMARK                         _______ _______ _______ _____ _____    ______ ____
ROOT
ATOM      1  C   UNL     1      51.976 155.647  28.814  0.00  0.00    +0.279 C 
ATOM      2  O   UNL     1      52.876 155.375  28.048  0.00  0.00    -0.279 OA
ENDROOT
TORSDOF 0
