REMARK  Name = =
REMARK  2 active torsions:
REMARK  status: ('A' for Active; 'I' for Inactive)
REMARK    1  A    between atoms: N_1  and  C_4
REMARK    2  A    between atoms: C_4  and  C_5
REMARK                            x       y       z     vdW  Elec       q    Type
REMARK                         _______ _______ _______ _____ _____    ______ ____
ROOT
ATOM      1  N   UNL     1      52.012 156.078  27.992  0.00  0.00    -0.290 N 
ATOM      2  C   UNL     1      52.420 157.205  28.752  0.00  0.00    +0.300 C 
ATOM      3  O   UNL     1      53.583 157.636  28.623  0.00  0.00    -0.265 OA
ATOM      4  H   UNL     1      51.090 155.755  28.111  0.00  0.00    +0.150 HD
ENDROOT
BRANCH   1   5
ATOM      5  C   UNL     1      52.849 155.377  27.063  0.00  0.00    +0.163 C 
BRANCH   5   6
ATOM      6  C   UNL     1      52.916 153.921  27.363  0.00  0.00    +0.229 C 
ATOM      7  O   UNL     1      52.182 153.357  28.158  0.00  0.00    -0.286 OA
ENDBRANCH   5   6
ENDBRANCH   1   5
TORSDOF 2
