REMARK  Name = =
REMARK  5 active torsions:
REMARK  status: ('A' for Active; 'I' for Inactive)
REMARK    1  A    between atoms: N_1  and  N_2
REMARK    2  A    between atoms: N_1  and  C_8
REMARK    3  A    between atoms: N_2  and  C_5
REMARK    4  A    between atoms: C_5  and  C_6
REMARK    5  A    between atoms: C_8  and  N_13
REMARK                            x       y       z     vdW  Elec       q    Type
REMARK                         _______ _______ _______ _____ _____    ______ ____
ROOT
ATOM      1  N   UNL     1      52.727 156.972  29.277  0.00  0.00    -0.205 NA
ATOM      2  H   UNL     1      52.726 156.045  29.703  0.00  0.00    +0.147 HD
ENDROOT
BRANCH   1   3
ATOM      3  N   UNL     1      51.473 157.526  29.397  0.00  0.00    -0.208 N 
ATOM      4  C   UNL     1      50.416 156.741  29.916  0.00  0.00    +0.318 C 
ATOM      5  O   UNL     1      50.613 155.555  30.261  0.00  0.00    -0.264 OA
BRANCH   3   6
ATOM      6  C   UNL     1      51.247 158.908  28.991  0.00  0.00    +0.184 C 
BRANCH   6   7
ATOM      7  C   UNL     1      51.272 159.822  30.145  0.00  0.00    +0.231 C 
ATOM      8  O   UNL     1      51.295 159.425  31.289  0.00  0.00    -0.286 OA
ENDBRANCH   6   7
ENDBRANCH   3   6
ENDBRANCH   1   3
BRANCH   1   9
ATOM      9  C   UNL     1      53.105 156.853  27.881  0.00  0.00    +0.207 C 
BRANCH   9  14
ATOM     10  C   UNL     1      52.550 155.122  26.180  0.00  0.00    +0.187 C 
ATOM     11  N   UNL     1      52.483 153.777  26.146  0.00  0.00    -0.203 NA
ATOM     12  C   UNL     1      52.806 153.313  27.364  0.00  0.00    +0.219 C 
ATOM     13  N   UNL     1      53.064 154.402  28.112  0.00  0.00    -0.153 NA
ATOM     14  N   UNL     1      52.916 155.498  27.418  0.00  0.00    -0.173 N 
ENDBRANCH   9  14
ENDBRANCH   1   9
TORSDOF 5
