REMARK  Name = =
REMARK  6 active torsions:
REMARK  status: ('A' for Active; 'I' for Inactive)
REMARK    1  A    between atoms: C_1  and  N_6
REMARK    2  A    between atoms: C_1  and  N_10
REMARK    3  A    between atoms: C_2  and  C_9
REMARK    4  A    between atoms: N_10  and  N_11
REMARK    5  A    between atoms: N_11  and  C_14
REMARK    6  A    between atoms: C_14  and  C_15
REMARK                            x       y       z     vdW  Elec       q    Type
REMARK                         _______ _______ _______ _____ _____    ______ ____
ROOT
ATOM      1  C   UNL     1      52.274 157.006  29.823  0.00  0.00    +0.206 C 
ENDROOT
BRANCH   1   6
ATOM      2  C   UNL     1      52.133 155.537  27.819  0.00  0.00    +0.130 C 
ATOM      3  N   UNL     1      52.545 155.579  26.522  0.00  0.00    -0.211 NA
ATOM      4  C   UNL     1      53.191 156.742  26.330  0.00  0.00    +0.218 C 
ATOM      5  N   UNL     1      53.162 157.384  27.508  0.00  0.00    -0.153 NA
ATOM      6  N   UNL     1      52.525 156.668  28.416  0.00  0.00    -0.179 N 
BRANCH   2   9
ATOM      7  C   UNL     1      52.213 153.218  28.927  0.00  0.00    +0.008 C 
ATOM      8  C   UNL     1      51.425 153.065  27.655  0.00  0.00    +0.008 C 
ATOM      9  C   UNL     1      51.383 154.411  28.399  0.00  0.00    +0.056 C 
ENDBRANCH   2   9
ENDBRANCH   1   6
BRANCH   1  10
ATOM     10  N   UNL     1      50.991 157.639  29.947  0.00  0.00    -0.205 NA
ATOM     11  H   UNL     1      50.473 157.172  30.691  0.00  0.00    +0.147 HD
BRANCH  10  12
ATOM     12  N   UNL     1      51.056 158.992  30.244  0.00  0.00    -0.208 N 
ATOM     13  C   UNL     1      52.311 159.646  30.170  0.00  0.00    +0.318 C 
ATOM     14  O   UNL     1      52.360 160.884  30.438  0.00  0.00    -0.264 OA
BRANCH  12  15
ATOM     15  C   UNL     1      49.894 159.771  30.632  0.00  0.00    +0.184 C 
BRANCH  15  16
ATOM     16  C   UNL     1      49.710 160.856  29.629  0.00  0.00    +0.231 C 
ATOM     17  O   UNL     1      48.613 161.400  29.457  0.00  0.00    -0.286 OA
ENDBRANCH  15  16
ENDBRANCH  12  15
ENDBRANCH  10  12
ENDBRANCH   1  10
TORSDOF 6
