REMARK  Name = =
REMARK  8 active torsions:
REMARK  status: ('A' for Active; 'I' for Inactive)
REMARK    1  A    between atoms: C_1  and  C_8
REMARK    2  A    between atoms: N_5  and  C_13
REMARK    3  A    between atoms: C_6  and  N_9
REMARK    4  A    between atoms: N_9  and  S_10
REMARK    5  A    between atoms: C_13  and  N_14
REMARK    6  A    between atoms: N_14  and  N_15
REMARK    7  A    between atoms: N_15  and  C_18
REMARK    8  A    between atoms: C_18  and  C_19
REMARK                            x       y       z     vdW  Elec       q    Type
REMARK                         _______ _______ _______ _____ _____    ______ ____
ROOT
ATOM      1  C   UNL     1      52.379 155.936  27.837  0.00  0.00    +0.132 C 
ATOM      2  N   UNL     1      53.388 155.718  26.990  0.00  0.00    -0.210 NA
ATOM      3  C   UNL     1      53.929 156.889  26.645  0.00  0.00    +0.218 C 
ATOM      4  N   UNL     1      53.225 157.827  27.302  0.00  0.00    -0.153 NA
ATOM      5  N   UNL     1      52.284 157.257  28.025  0.00  0.00    -0.179 N 
ENDROOT
BRANCH   1   8
ATOM      6  C   UNL     1      51.685 153.466  28.147  0.00  0.00    +0.082 C 
ATOM      7  C   UNL     1      52.289 153.977  29.418  0.00  0.00    +0.027 C 
ATOM      8  C   UNL     1      51.514 154.890  28.462  0.00  0.00    +0.073 C 
BRANCH   6   9
ATOM      9  N   UNL     1      52.542 152.986  27.097  0.00  0.00    -0.187 NA
ATOM     10  H   UNL     1      53.494 152.923  27.457  0.00  0.00    +0.148 HD
BRANCH   9  11
ATOM     11  S   UNL     1      52.078 151.453  26.513  0.00  0.00    +0.020 S 
ATOM     12  O   UNL     1      53.167 150.782  25.719  0.00  0.00    -0.161 OA
ATOM     13  O   UNL     1      51.707 150.510  27.640  0.00  0.00    -0.161 OA
ATOM     14  H   UNL     1      51.004 151.694  25.714  0.00  0.00    +0.229 HD
ENDBRANCH   9  11
ENDBRANCH   6   9
ENDBRANCH   1   8
BRANCH   5  15
ATOM     15  C   UNL     1      51.333 157.993  28.866  0.00  0.00    +0.206 C 
BRANCH  15  16
ATOM     16  N   UNL     1      51.985 158.584  29.996  0.00  0.00    -0.205 NA
ATOM     17  H   UNL     1      52.898 158.922  29.693  0.00  0.00    +0.147 HD
BRANCH  16  18
ATOM     18  N   UNL     1      51.304 159.646  30.579  0.00  0.00    -0.208 N 
ATOM     19  C   UNL     1      51.989 160.899  30.693  0.00  0.00    +0.318 C 
ATOM     20  O   UNL     1      53.167 161.032  30.278  0.00  0.00    -0.264 OA
BRANCH  18  21
ATOM     21  C   UNL     1      49.955 159.568  31.097  0.00  0.00    +0.184 C 
BRANCH  21  22
ATOM     22  C   UNL     1      48.958 160.179  30.192  0.00  0.00    +0.231 C 
ATOM     23  O   UNL     1      49.339 160.782  29.214  0.00  0.00    -0.286 OA
ENDBRANCH  21  22
ENDBRANCH  18  21
ENDBRANCH  16  18
ENDBRANCH  15  16
ENDBRANCH   5  15
TORSDOF 8
