REMARK  Name = =
REMARK  0 active torsions:
REMARK  status: ('A' for Active; 'I' for Inactive)
REMARK                            x       y       z     vdW  Elec       q    Type
REMARK                         _______ _______ _______ _____ _____    ______ ____
ROOT
ATOM      1  C   UNL     1      51.720 155.820  28.941  0.00  0.00    +0.041 C 
ATOM      2  C   UNL     1      51.393 154.590  28.412  0.00  0.00    +0.102 C 
ATOM      3  N   UNL     1      51.778 154.258  27.167  0.00  0.00    -0.222 NA
ATOM      4  C   UNL     1      52.488 155.077  26.376  0.00  0.00    +0.199 C 
ATOM      5  N   UNL     1      52.801 156.273  26.903  0.00  0.00    -0.222 NA
ATOM      6  C   UNL     1      52.447 156.666  28.135  0.00  0.00    +0.102 C 
ENDROOT
TORSDOF 0
