REMARK  Name = =
REMARK  1 active torsions:
REMARK  status: ('A' for Active; 'I' for Inactive)
REMARK    1  A    between atoms: C_10  and  C_11
REMARK                            x       y       z     vdW  Elec       q    Type
REMARK                         _______ _______ _______ _____ _____    ______ ____
ROOT
ATOM      1  C   UNL     1      50.504 158.229  29.960  0.00  0.00    -0.022 C 
ATOM      2  C   UNL     1      50.066 157.400  30.878  0.00  0.00    -0.025 C 
ATOM      3  C   UNL     1      49.131 157.793  31.971  0.00  0.00    +0.052 C 
ATOM      4  C   UNL     1      48.340 158.962  31.501  0.00  0.00    -0.021 C 
ATOM      5  C   UNL     1      48.774 159.851  30.542  0.00  0.00    -0.018 C 
ATOM      6  C   UNL     1      47.991 160.928  30.141  0.00  0.00    -0.004 C 
ATOM      7  C   UNL     1      46.750 161.120  30.709  0.00  0.00    -0.000 C 
ATOM      8  C   UNL     1      46.302 160.239  31.670  0.00  0.00    -0.000 C 
ATOM      9  C   UNL     1      47.081 159.173  32.065  0.00  0.00    -0.004 C 
ATOM     10  C   UNL     1      50.100 159.650  29.931  0.00  0.00    +0.069 C 
ENDROOT
BRANCH  10  11
ATOM     11  C   UNL     1      51.146 160.530  30.528  0.00  0.00    +0.024 C 
ATOM     12  C   UNL     1      52.426 160.459  30.059  0.00  0.00    +0.099 C 
ATOM     13  N   UNL     1      53.415 161.226  30.555  0.00  0.00    -0.223 NA
ATOM     14  C   UNL     1      53.123 162.078  31.537  0.00  0.00    +0.199 C 
ATOM     15  N   UNL     1      51.881 162.167  32.013  0.00  0.00    -0.223 NA
ATOM     16  C   UNL     1      50.872 161.415  31.538  0.00  0.00    +0.099 C 
ENDBRANCH  10  11
TORSDOF 1
