REMARK  Name = =
REMARK  10 active torsions:
REMARK  status: ('A' for Active; 'I' for Inactive)
REMARK    1  A    between atoms: C_1  and  C_11
REMARK    2  A    between atoms: C_1  and  O_14
REMARK    3  A    between atoms: C_4  and  C_12
REMARK    4  A    between atoms: O_14  and  O_15
REMARK    5  A    between atoms: O_15  and  P_16
REMARK    6  A    between atoms: P_16  and  O_18
REMARK    7  A    between atoms: P_16  and  O_19
REMARK    8  A    between atoms: O_19  and  P_20
REMARK    9  A    between atoms: P_20  and  O_22
REMARK   10  A    between atoms: P_20  and  O_23
REMARK                            x       y       z     vdW  Elec       q    Type
REMARK                         _______ _______ _______ _____ _____    ______ ____
ROOT
ATOM      1  C   UNL     1      -1.482  -3.825  29.763  0.00  0.00    +0.389 C 
ATOM      2  O   UNL     1      -2.319  -3.094  30.343  0.00  0.00    -0.240 OA
ENDROOT
BRANCH   1  11
ATOM      3  N   UNL     1      -2.310  -5.856  30.964  0.00  0.00    -0.235 N 
ATOM      4  C   UNL     1      -2.412  -7.262  31.273  0.00  0.00    +0.192 C 
ATOM      5  C   UNL     1      -3.878  -7.011  31.384  0.00  0.00    +0.129 C 
ATOM      6  C   UNL     1      -3.356  -5.685  31.889  0.00  0.00    +0.234 C 
ATOM      7  O   UNL     1      -3.701  -4.827  32.742  0.00  0.00    -0.274 OA
ATOM      8  S   UNL     1      -1.843  -8.241  29.868  0.00  0.00    -0.104 S 
ATOM      9  C   UNL     1      -0.239  -7.398  29.576  0.00  0.00    +0.087 C 
ATOM     10  C   UNL     1      -0.496  -5.968  29.445  0.00  0.00    +0.007 C 
ATOM     11  C   UNL     1      -1.418  -5.256  30.057  0.00  0.00    +0.131 C 
BRANCH   4  12
ATOM     12  C   UNL     1      -1.768  -7.560  32.537  0.00  0.00    +0.101 C 
ATOM     13  N   UNL     1      -1.236  -7.790  33.540  0.00  0.00    -0.193 NA
ENDBRANCH   4  12
ENDBRANCH   1  11
BRANCH   1  14
ATOM     14  O   UNL     1      -0.637  -3.234  28.848  0.00  0.00    -0.280 OA
BRANCH  14  15
ATOM     15  O   UNL     1      -0.893  -2.036  28.319  0.00  0.00    -0.070 OA
BRANCH  15  16
ATOM     16  P   UNL     1      -0.126  -1.969  26.814  0.00  0.00    +0.519 P 
ATOM     17  O   UNL     1       0.530  -3.259  26.438  0.00  0.00    -0.224 OA
BRANCH  16  18
ATOM     18  O   UNL     1      -1.312  -1.622  25.635  0.00  0.00    -0.300 OA
ATOM     19  H   UNL     1      -1.979  -2.327  25.630  0.00  0.00    +0.222 HD
ENDBRANCH  16  18
BRANCH  16  20
ATOM     20  O   UNL     1       0.991  -0.702  26.759  0.00  0.00    -0.184 OA
BRANCH  20  21
ATOM     21  P   UNL     1       1.950  -0.897  25.392  0.00  0.00    +0.481 P 
ATOM     22  O   UNL     1       2.151   0.444  24.687  0.00  0.00    -0.227 OA
BRANCH  21  23
ATOM     23  O   UNL     1       3.485  -1.435  25.851  0.00  0.00    -0.302 OA
ATOM     24  H   UNL     1       3.883  -0.795  26.461  0.00  0.00    +0.222 HD
ENDBRANCH  21  23
BRANCH  21  25
ATOM     25  O   UNL     1       1.271  -2.017  24.333  0.00  0.00    -0.302 OA
ATOM     26  H   UNL     1       1.149  -2.863  24.792  0.00  0.00    +0.222 HD
ENDBRANCH  21  25
ENDBRANCH  20  21
ENDBRANCH  16  20
ENDBRANCH  15  16
ENDBRANCH  14  15
ENDBRANCH   1  14
TORSDOF 10
