REMARK  Name = =
REMARK  2 active torsions:
REMARK  status: ('A' for Active; 'I' for Inactive)
REMARK    1  A    between atoms: C_1  and  C_7
REMARK    2  A    between atoms: C_7  and  O_9
REMARK                            x       y       z     vdW  Elec       q    Type
REMARK                         _______ _______ _______ _____ _____    ______ ____
ROOT
ATOM      1  C   UNL     1      50.825 158.153  29.897  0.00  0.00    +0.075 C 
ATOM      2  C   UNL     1      49.514 157.973  30.281  0.00  0.00    +0.006 C 
ATOM      3  C   UNL     1      48.738 159.041  30.703  0.00  0.00    +0.000 C 
ATOM      4  C   UNL     1      49.245 160.323  30.755  0.00  0.00    +0.000 C 
ATOM      5  C   UNL     1      50.548 160.510  30.375  0.00  0.00    +0.000 C 
ATOM      6  C   UNL     1      51.322 159.435  29.952  0.00  0.00    +0.006 C 
ENDROOT
BRANCH   1   7
ATOM      7  C   UNL     1      51.653 157.035  29.450  0.00  0.00    +0.338 C 
ATOM      8  O   UNL     1      52.861 157.198  29.148  0.00  0.00    -0.245 OA
BRANCH   7   9
ATOM      9  O   UNL     1      51.144 155.750  29.341  0.00  0.00    -0.477 OA
ATOM     10  H   UNL     1      50.248 155.581  29.556  0.00  0.00    +0.295 HD
ENDBRANCH   7   9
ENDBRANCH   1   7
TORSDOF 2
