REMARK  Name = =
REMARK  5 active torsions:
REMARK  status: ('A' for Active; 'I' for Inactive)
REMARK    1  A    between atoms: C_1  and  C_3
REMARK    2  A    between atoms: C_1  and  O_9
REMARK    3  A    between atoms: O_9  and  O_10
REMARK    4  A    between atoms: O_10  and  P_12
REMARK    5  A    between atoms: P_12  and  O_14
REMARK                            x       y       z     vdW  Elec       q    Type
REMARK                         _______ _______ _______ _____ _____    ______ ____
ROOT
ATOM      1  C   UNL     1      51.593 159.522  30.108  0.00  0.00    +0.375 C 
ATOM      2  O   UNL     1      52.256 159.898  31.094  0.00  0.00    -0.242 OA
ENDROOT
BRANCH   1   3
ATOM      3  C   UNL     1      51.663 158.135  29.621  0.00  0.00    +0.079 C 
ATOM      4  C   UNL     1      50.788 157.186  30.095  0.00  0.00    +0.007 C 
ATOM      5  C   UNL     1      50.830 155.864  29.652  0.00  0.00    +0.000 C 
ATOM      6  C   UNL     1      51.773 155.500  28.713  0.00  0.00    +0.000 C 
ATOM      7  C   UNL     1      52.661 156.434  28.222  0.00  0.00    +0.000 C 
ATOM      8  C   UNL     1      52.591 157.738  28.685  0.00  0.00    +0.007 C 
ENDBRANCH   1   3
BRANCH   1   9
ATOM      9  O   UNL     1      50.787 160.464  29.488  0.00  0.00    -0.283 OA
BRANCH   9  10
ATOM     10  O   UNL     1      49.477 160.332  29.330  0.00  0.00    -0.085 OA
BRANCH  10  12
ATOM     11  S   UNL     1      47.669 161.575  30.990  0.00  0.00    +0.042 S 
ATOM     12  P   UNL     1      48.655 160.173  30.769  0.00  0.00    +0.435 P 
ATOM     13  O   UNL     1      47.773 158.935  30.669  0.00  0.00    -0.242 OA
BRANCH  12  14
ATOM     14  O   UNL     1      49.653 159.971  32.102  0.00  0.00    -0.314 OA
ATOM     15  H   UNL     1      50.205 159.184  31.976  0.00  0.00    +0.221 HD
ENDBRANCH  12  14
ENDBRANCH  10  12
ENDBRANCH   9  10
ENDBRANCH   1   9
TORSDOF 5
