REMARK  Name = =
REMARK  5 active torsions:
REMARK  status: ('A' for Active; 'I' for Inactive)
REMARK    1  A    between atoms: C_1  and  O_19
REMARK    2  A    between atoms: C_2  and  C_12
REMARK    3  A    between atoms: C_6  and  O_21
REMARK    4  A    between atoms: C_8  and  O_20
REMARK    5  A    between atoms: C_15  and  O_18
REMARK                            x       y       z     vdW  Elec       q    Type
REMARK                         _______ _______ _______ _____ _____    ______ ____
ROOT
ATOM      1  C   UNL     1      50.057 158.199  30.546  0.00  0.00    +0.208 A 
ATOM      2  C   UNL     1      50.582 159.356  31.044  0.00  0.00    +0.182 A 
ATOM      3  O   UNL     1      51.815 159.682  30.653  0.00  0.00    -0.450 OA
ATOM      4  C   UNL     1      52.536 158.972  29.836  0.00  0.00    +0.155 A 
ATOM      5  C   UNL     1      52.041 157.792  29.307  0.00  0.00    +0.110 A 
ATOM      6  C   UNL     1      52.824 157.054  28.443  0.00  0.00    +0.143 C 
ATOM      7  C   UNL     1      54.098 157.451  28.076  0.00  0.00    +0.073 C 
ATOM      8  C   UNL     1      54.594 158.625  28.600  0.00  0.00    +0.140 C 
ATOM      9  C   UNL     1      53.815 159.358  29.459  0.00  0.00    +0.074 C 
ATOM     10  C   UNL     1      50.773 157.392  29.669  0.00  0.00    +0.238 A 
ATOM     11  O   UNL     1      50.321 156.327  29.195  0.00  0.00    -0.283 OA
ENDROOT
BRANCH   2  12
ATOM     12  C   UNL     1      49.861 160.223  31.963  0.00  0.00    +0.038 C 
ATOM     13  C   UNL     1      48.957 161.133  31.396  0.00  0.00    +0.006 C 
ATOM     14  C   UNL     1      48.229 161.992  32.168  0.00  0.00    +0.037 C 
ATOM     15  C   UNL     1      48.351 162.000  33.534  0.00  0.00    +0.134 C 
ATOM     16  C   UNL     1      49.227 161.121  34.118  0.00  0.00    +0.037 C 
ATOM     17  C   UNL     1      49.963 160.249  33.311  0.00  0.00    +0.006 C 
BRANCH  15  18
ATOM     18  O   UNL     1      47.585 162.895  34.265  0.00  0.00    -0.506 OA
ATOM     19  H   UNL     1      46.999 163.478  33.825  0.00  0.00    +0.292 HD
ENDBRANCH  15  18
ENDBRANCH   2  12
BRANCH   1  20
ATOM     20  O   UNL     1      48.796 157.745  30.867  0.00  0.00    -0.501 OA
ATOM     21  H   UNL     1      48.256 158.238  31.453  0.00  0.00    +0.292 HD
ENDBRANCH   1  20
BRANCH   8  22
ATOM     22  O   UNL     1      55.886 159.044  28.240  0.00  0.00    -0.505 OA
ATOM     23  H   UNL     1      56.399 158.526  27.651  0.00  0.00    +0.292 HD
ENDBRANCH   8  22
BRANCH   6  24
ATOM     24  O   UNL     1      52.254 155.874  27.951  0.00  0.00    -0.505 OA
ATOM     25  H   UNL     1      51.390 155.626  28.214  0.00  0.00    +0.292 HD
ENDBRANCH   6  24
TORSDOF 5
