REMARK  Name = =
REMARK  6 active torsions:
REMARK  status: ('A' for Active; 'I' for Inactive)
REMARK    1  A    between atoms: C_1  and  O_21
REMARK    2  A    between atoms: C_2  and  C_12
REMARK    3  A    between atoms: C_6  and  O_20
REMARK    4  A    between atoms: C_8  and  O_19
REMARK    5  A    between atoms: C_15  and  O_18
REMARK    6  A    between atoms: O_21  and  C_22
REMARK                            x       y       z     vdW  Elec       q    Type
REMARK                         _______ _______ _______ _____ _____    ______ ____
ROOT
ATOM      1  C   UNL     1      51.323 158.244  29.311  0.00  0.00    +0.212 A 
ATOM      2  C   UNL     1      50.116 157.698  29.555  0.00  0.00    +0.182 A 
ATOM      3  O   UNL     1      49.906 156.388  29.468  0.00  0.00    -0.450 OA
ATOM      4  C   UNL     1      50.839 155.562  29.142  0.00  0.00    +0.155 A 
ATOM      5  C   UNL     1      52.124 156.013  28.865  0.00  0.00    +0.110 A 
ATOM      6  C   UNL     1      53.085 155.094  28.522  0.00  0.00    +0.143 C 
ATOM      7  C   UNL     1      52.724 153.730  28.467  0.00  0.00    +0.073 C 
ATOM      8  C   UNL     1      51.465 153.324  28.744  0.00  0.00    +0.140 C 
ATOM      9  C   UNL     1      50.490 154.216  29.087  0.00  0.00    +0.074 C 
ATOM     10  C   UNL     1      52.368 157.376  28.951  0.00  0.00    +0.238 A 
ATOM     11  O   UNL     1      53.500 157.812  28.711  0.00  0.00    -0.283 OA
ENDROOT
BRANCH   2  12
ATOM     12  C   UNL     1      48.944 158.495  29.935  0.00  0.00    +0.038 C 
ATOM     13  C   UNL     1      48.416 159.487  29.160  0.00  0.00    +0.006 C 
ATOM     14  C   UNL     1      47.339 160.219  29.644  0.00  0.00    +0.037 C 
ATOM     15  C   UNL     1      46.795 159.968  30.882  0.00  0.00    +0.134 C 
ATOM     16  C   UNL     1      47.318 158.969  31.676  0.00  0.00    +0.037 C 
ATOM     17  C   UNL     1      48.373 158.255  31.194  0.00  0.00    +0.006 C 
BRANCH  15  18
ATOM     18  O   UNL     1      45.708 160.726  31.343  0.00  0.00    -0.506 OA
ATOM     19  H   UNL     1      45.350 161.406  30.807  0.00  0.00    +0.292 HD
ENDBRANCH  15  18
ENDBRANCH   2  12
BRANCH   8  20
ATOM     20  O   UNL     1      51.077 151.969  28.696  0.00  0.00    -0.505 OA
ATOM     21  H   UNL     1      51.703 151.310  28.467  0.00  0.00    +0.292 HD
ENDBRANCH   8  20
BRANCH   6  22
ATOM     22  O   UNL     1      54.365 155.445  28.236  0.00  0.00    -0.505 OA
ATOM     23  H   UNL     1      54.622 156.345  28.268  0.00  0.00    +0.292 HD
ENDBRANCH   6  22
BRANCH   1  24
ATOM     24  O   UNL     1      51.648 159.554  29.386  0.00  0.00    -0.462 OA
BRANCH  24  25
ATOM     25  C   UNL     1      50.946 160.492  30.199  0.00  0.00    +0.259 C 
ATOM     26  C   UNL     1      51.121 160.059  31.662  0.00  0.00    +0.124 C 
ATOM     27  N   UNL     1      51.514 161.479  31.863  0.00  0.00    -0.274 N 
ATOM     28  C   UNL     1      51.374 161.651  33.247  0.00  0.00    +0.094 C 
ATOM     29  C   UNL     1      50.393 160.850  33.713  0.00  0.00    +0.023 C 
ATOM     30  C   UNL     1      49.867 160.104  32.509  0.00  0.00    +0.026 C 
ATOM     31  C   UNL     1      51.759 161.677  30.478  0.00  0.00    +0.268 C 
ATOM     32  O   UNL     1      52.420 162.549  29.842  0.00  0.00    -0.271 OA
ENDBRANCH  24  25
ENDBRANCH   1  24
TORSDOF 6
