#      Rotatable Fragment
#      Build by yxyuan
#
# Name:          frag5-635-28/41815
# Creation time: Sat Jun  5 12:53:00 2010


@<TRIPOS>MOLECULE
frag5-635-28/41815
   13    13     1     1     1
SMALL
USER_CHARGES


@<TRIPOS>ATOM
      1 Cl1         1.0401   -2.8333   -0.2145 Cl         1 <1>        0.000
      2 C1          0.3036   -1.2591   -0.0891 C.ar       1 <1>        0.000
      3 C2          1.1108   -0.1090   -0.0222 C.ar       1 <1>        0.000
      4 C3          0.4940    1.1483    0.0784 C.ar       1 <1>        0.000
      5 C4         -0.9007    1.2608    0.1122 C.ar       1 <1>        0.000
      6 C5         -1.6934    0.1180    0.0456 C.ar       1 <1>        0.000
      7 C6         -1.0915   -1.1342   -0.0541 C.ar       1 <1>        0.000
      8 O1          2.4882   -0.2304   -0.0564 O.3        1 <1>        0.000
      9 H           1.1084    2.0471    0.1308 H.spc      1 <1>        0.000
     10 H          -1.3664    2.2432    0.1907 H.spc      1 <1>        0.000
     11 H          -2.7798    0.2029    0.0714 H.spc      1 <1>        0.000
     12 H          -1.7134   -2.0279   -0.1055 H.spc      1 <1>        0.000
     13 H           2.8866    0.6413   -0.0017 H.spc      1 <1>        0.000
@<TRIPOS>BOND
     1    1    2 1  
     2    2    3 ar 
     3    2    7 ar 
     4    3    8 1  
     5    3    4 ar 
     6    4    5 ar 
     7    5    6 ar 
     8    6    7 ar 
     9    4    9 1  
    10    5   10 1  
    11    6   11 1  
    12    7   12 1  
    13    8   13 1  
# Name:          frag5-635-28/41815 -- energy: -0.231338
# Creation time: Sat Jun  5 12:53:00 2010


@<TRIPOS>MOLECULE
frag5-635-28/41815 -- energy: -0.231338
   13    13     1     1     1
SMALL
USER_CHARGES


@<TRIPOS>ATOM
      1 Cl1         1.0401   -2.8333   -0.2145 Cl         1 <1>        0.000
      2 C1          0.3036   -1.2591   -0.0891 C.ar       1 <1>        0.000
      3 C2          1.1108   -0.1090   -0.0222 C.ar       1 <1>        0.000
      4 C3          0.4940    1.1483    0.0784 C.ar       1 <1>        0.000
      5 C4         -0.9007    1.2608    0.1122 C.ar       1 <1>        0.000
      6 C5         -1.6934    0.1180    0.0456 C.ar       1 <1>        0.000
      7 C6         -1.0915   -1.1342   -0.0541 C.ar       1 <1>        0.000
      8 O1          2.4882   -0.2304   -0.0564 O.3        1 <1>        0.000
      9 H           1.1084    2.0471    0.1308 H.spc      1 <1>        0.000
     10 H          -1.3664    2.2432    0.1907 H.spc      1 <1>        0.000
     11 H          -2.7798    0.2029    0.0714 H.spc      1 <1>        0.000
     12 H          -1.7134   -2.0279   -0.1055 H.spc      1 <1>        0.000
     13 H           2.8866    0.6413   -0.0017 H.spc      1 <1>        0.000
@<TRIPOS>BOND
     1    1    2 1  
     2    2    3 ar 
     3    2    7 ar 
     4    3    8 1  
     5    3    4 ar 
     6    4    5 ar 
     7    5    6 ar 
     8    6    7 ar 
     9    4    9 1  
    10    5   10 1  
    11    6   11 1  
    12    7   12 1  
    13    8   13 1  
