#      Rotatable Fragment
#      Build by yxyuan
#
# Name:          frag3-116-63/31924
# Creation time: Sat Jun  5 12:52:02 2010


@<TRIPOS>MOLECULE
frag3-116-63/31924
    7     6     1     1     1
SMALL
USER_CHARGES


@<TRIPOS>ATOM
      1 S1          3.3061   -3.1283   -0.4725 S.o2       1 <1>        0.000
      2 O1          3.4170   -2.9515    0.9417 O.2        1 <1>        0.000
      3 O2          2.9273   -4.3502   -1.1108 O.2        1 <1>        0.000
      4 N1          4.4344   -2.2775   -1.3248 N.am       1 <1>        0.000
      5 H           2.0875   -2.5994   -0.5372 H.spc      1 <1>        0.000
      6 H           5.1167   -1.7004   -0.8330 H.spc      1 <1>        0.000
      7 H           4.4495   -2.3287   -2.3434 H.spc      1 <1>        0.000
@<TRIPOS>BOND
     1    1    2 2  
     2    1    4 1  
     3    1    3 2  
     4    1    5 1  
     5    4    6 1  
     6    4    7 1  
# Name:          frag3-116-63/31924 -- energy: -0.113780
# Creation time: Sat Jun  5 12:52:02 2010


@<TRIPOS>MOLECULE
frag3-116-63/31924 -- energy: -0.113780
    7     6     1     1     1
SMALL
USER_CHARGES


@<TRIPOS>ATOM
      1 S1          3.3061   -3.1283   -0.4725 S.o2       1 <1>        0.000
      2 O1          3.4170   -2.9515    0.9417 O.2        1 <1>        0.000
      3 O2          2.9273   -4.3502   -1.1108 O.2        1 <1>        0.000
      4 N1          4.4344   -2.2775   -1.3248 N.am       1 <1>        0.000
      5 H           2.0875   -2.5994   -0.5372 H.spc      1 <1>        0.000
      6 H           5.1167   -1.7004   -0.8330 H.spc      1 <1>        0.000
      7 H           4.4495   -2.3287   -2.3434 H.spc      1 <1>        0.000
@<TRIPOS>BOND
     1    1    2 2  
     2    1    4 1  
     3    1    3 2  
     4    1    5 1  
     5    4    6 1  
     6    4    7 1  
