#      Rotatable Fragment
#      Build by yxyuan
#
# Name:          frag5-491-2322/138278
# Creation time: Sat Jun  5 12:53:39 2010


@<TRIPOS>MOLECULE
frag5-491-2322/138278
   12    12     1     1     1
SMALL
USER_CHARGES


@<TRIPOS>ATOM
      1 C10         1.2948   -0.6340   -0.1779 C.ar       1 <1>        0.000
      2 C14         1.1961    0.7580   -0.1535 C.ar       1 <1>        0.000
      3 C15         0.1509   -1.4132   -0.0321 C.ar       1 <1>        0.000
      4 C18        -0.0506    1.3671    0.0197 C.ar       1 <1>        0.000
      5 C19        -1.0944   -0.8038    0.1404 C.ar       1 <1>        0.000
      6 C22        -1.1993    0.5864    0.1640 C.ar       1 <1>        0.000
      7 Cl1        -2.7638    1.3412    0.3733 Cl         1 <1>        0.000
      8 H           2.2663   -1.1101   -0.3109 H.spc      1 <1>        0.000
      9 H           2.0905    1.3701   -0.2694 H.spc      1 <1>        0.000
     10 H           0.2267   -2.5004   -0.0525 H.spc      1 <1>        0.000
     11 H          -0.1259    2.4543    0.0421 H.spc      1 <1>        0.000
     12 H          -1.9876   -1.4176    0.2570 H.spc      1 <1>        0.000
@<TRIPOS>BOND
     1    1    2 ar 
     2    1    3 ar 
     3    2    4 ar 
     4    3    5 ar 
     5    4    6 ar 
     6    5    6 ar 
     7    6    7 1  
     8    1    8 1  
     9    2    9 1  
    10    3   10 1  
    11    4   11 1  
    12    5   12 1  
# Name:          frag5-491-2322/138278 -- energy: -0.058950
# Creation time: Sat Jun  5 12:53:39 2010


@<TRIPOS>MOLECULE
frag5-491-2322/138278 -- energy: -0.058950
   12    12     1     1     1
SMALL
USER_CHARGES


@<TRIPOS>ATOM
      1 C10         1.2948   -0.6340   -0.1779 C.ar       1 <1>        0.000
      2 C14         1.1961    0.7580   -0.1535 C.ar       1 <1>        0.000
      3 C15         0.1509   -1.4132   -0.0321 C.ar       1 <1>        0.000
      4 C18        -0.0506    1.3671    0.0197 C.ar       1 <1>        0.000
      5 C19        -1.0944   -0.8038    0.1404 C.ar       1 <1>        0.000
      6 C22        -1.1993    0.5864    0.1640 C.ar       1 <1>        0.000
      7 Cl1        -2.7638    1.3412    0.3733 Cl         1 <1>        0.000
      8 H           2.2663   -1.1101   -0.3109 H.spc      1 <1>        0.000
      9 H           2.0905    1.3701   -0.2694 H.spc      1 <1>        0.000
     10 H           0.2267   -2.5004   -0.0525 H.spc      1 <1>        0.000
     11 H          -0.1259    2.4543    0.0421 H.spc      1 <1>        0.000
     12 H          -1.9876   -1.4176    0.2570 H.spc      1 <1>        0.000
@<TRIPOS>BOND
     1    1    2 ar 
     2    1    3 ar 
     3    2    4 ar 
     4    3    5 ar 
     5    4    6 ar 
     6    5    6 ar 
     7    6    7 1  
     8    1    8 1  
     9    2    9 1  
    10    3   10 1  
    11    4   11 1  
    12    5   12 1  
