#      Rotatable Fragment
#      Build by yxyuan
#
# Name:          frag5-560-48/41815
# Creation time: Sat Jun  5 12:52:54 2010


@<TRIPOS>MOLECULE
frag5-560-48/41815
   19    20     1     1     1
SMALL
USER_CHARGES


@<TRIPOS>ATOM
      1 O2          1.7171    2.2693    0.0167 O.3        1 <1>        0.000
      2 C13         1.3720    0.9144    0.0137 C.ar       1 <1>        0.000
      3 C14         0.0210    0.5377    0.0132 C.ar       1 <1>        0.000
      4 C15        -0.3177   -0.8312    0.0101 C.ar       1 <1>        0.000
      5 C16         0.6957   -1.8021    0.0074 C.ar       1 <1>        0.000
      6 C17         2.0335   -1.4181    0.0081 C.ar       1 <1>        0.000
      7 C18         2.3756   -0.0627    0.0112 C.ar       1 <1>        0.000
      8 C19        -1.6680   -1.2060    0.0096 C.ar       1 <1>        0.000
      9 C20        -2.6717   -0.2418    0.0126 C.ar       1 <1>        0.000
     10 C21        -2.3381    1.1045    0.0161 C.ar       1 <1>        0.000
     11 C22        -1.0009    1.4941    0.0163 C.ar       1 <1>        0.000
     12 H           2.6733    2.3548    0.0166 H.spc      1 <1>        0.000
     13 H           0.4342   -2.8603    0.0047 H.spc      1 <1>        0.000
     14 H           2.8166   -2.1763    0.0062 H.spc      1 <1>        0.000
     15 H           3.4244    0.2341    0.0117 H.spc      1 <1>        0.000
     16 H          -1.9348   -2.2628    0.0068 H.spc      1 <1>        0.000
     17 H          -3.7189   -0.5444    0.0122 H.spc      1 <1>        0.000
     18 H          -3.1243    1.8594    0.0187 H.spc      1 <1>        0.000
     19 H          -0.7477    2.5543    0.0189 H.spc      1 <1>        0.000
@<TRIPOS>BOND
     1    4    5 ar 
     2    6    7 ar 
     3   10   11 ar 
     4    9   10 ar 
     5    8    9 ar 
     6    4    8 ar 
     7    5    6 ar 
     8    1    2 1  
     9    2    3 ar 
    10    2    7 ar 
    11    3    4 ar 
    12    3   11 ar 
    13    1   12 1  
    14    5   13 1  
    15    6   14 1  
    16    7   15 1  
    17    8   16 1  
    18    9   17 1  
    19   10   18 1  
    20   11   19 1  
# Name:          frag5-560-48/41815 -- energy: -0.422587
# Creation time: Sat Jun  5 12:52:54 2010


@<TRIPOS>MOLECULE
frag5-560-48/41815 -- energy: -0.422587
   19    20     1     1     1
SMALL
USER_CHARGES


@<TRIPOS>ATOM
      1 O2          1.7171    2.2693    0.0167 O.3        1 <1>        0.000
      2 C13         1.3720    0.9144    0.0137 C.ar       1 <1>        0.000
      3 C14         0.0210    0.5377    0.0132 C.ar       1 <1>        0.000
      4 C15        -0.3177   -0.8312    0.0101 C.ar       1 <1>        0.000
      5 C16         0.6957   -1.8021    0.0074 C.ar       1 <1>        0.000
      6 C17         2.0335   -1.4181    0.0081 C.ar       1 <1>        0.000
      7 C18         2.3756   -0.0627    0.0112 C.ar       1 <1>        0.000
      8 C19        -1.6680   -1.2060    0.0096 C.ar       1 <1>        0.000
      9 C20        -2.6717   -0.2418    0.0126 C.ar       1 <1>        0.000
     10 C21        -2.3381    1.1045    0.0161 C.ar       1 <1>        0.000
     11 C22        -1.0009    1.4941    0.0163 C.ar       1 <1>        0.000
     12 H           2.6733    2.3548    0.0166 H.spc      1 <1>        0.000
     13 H           0.4342   -2.8603    0.0047 H.spc      1 <1>        0.000
     14 H           2.8166   -2.1763    0.0062 H.spc      1 <1>        0.000
     15 H           3.4244    0.2341    0.0117 H.spc      1 <1>        0.000
     16 H          -1.9348   -2.2628    0.0068 H.spc      1 <1>        0.000
     17 H          -3.7189   -0.5444    0.0122 H.spc      1 <1>        0.000
     18 H          -3.1243    1.8594    0.0187 H.spc      1 <1>        0.000
     19 H          -0.7477    2.5543    0.0189 H.spc      1 <1>        0.000
@<TRIPOS>BOND
     1    4    5 ar 
     2    6    7 ar 
     3   10   11 ar 
     4    9   10 ar 
     5    8    9 ar 
     6    4    8 ar 
     7    5    6 ar 
     8    1    2 1  
     9    2    3 ar 
    10    2    7 ar 
    11    3    4 ar 
    12    3   11 ar 
    13    1   12 1  
    14    5   13 1  
    15    6   14 1  
    16    7   15 1  
    17    8   16 1  
    18    9   17 1  
    19   10   18 1  
    20   11   19 1  
