#      Rotatable Fragment
#      Build by yxyuan
#
# Name:          frag5-570-44/41815
# Creation time: Sat Jun  5 12:52:54 2010


@<TRIPOS>MOLECULE
frag5-570-44/41815
   41    45     1     1     1
SMALL
USER_CHARGES


@<TRIPOS>ATOM
      1 N1          1.1327    3.1687    0.9900 N.4        1 <1>        0.000
      2 C1          0.6270    3.0252    2.3833 C.3        1 <1>        0.000
      3 C2         -0.5940    2.1345    2.2362 C.3        1 <1>        0.000
      4 C3         -0.0981    1.0465    1.2527 C.3        1 <1>        0.000
      5 C4          0.9049    1.8273    0.3478 C.3        1 <1>        0.000
      6 C5          2.2272    1.0398    0.1055 C.3        1 <1>        0.000
      7 C6          1.9428   -0.4479   -0.1481 C.3        1 <1>        0.000
      8 C7          1.3718   -1.1263    1.1121 C.3        1 <1>        0.000
      9 O1         -5.0407   -1.5249    0.2755 O.3        1 <1>        0.000
     10 C8          0.5082   -0.1926    2.0070 C.3        1 <1>        0.000
     11 N2         -0.6839   -0.9410    2.3353 N.pl3      1 <1>        0.000
     12 C9         -1.6820   -0.6916    1.4664 C.ar       1 <1>        0.000
     13 C10        -1.3709    0.4251    0.6730 C.ar       1 <1>        0.000
     14 C11        -2.2010    0.7761   -0.3834 C.ar       1 <1>        0.000
     15 C12        -3.4376    0.1462   -0.4811 C.ar       1 <1>        0.000
     16 C13        -3.8065   -0.9267    0.3659 C.ar       1 <1>        0.000
     17 C14        -2.8727   -1.3726    1.3035 C.ar       1 <1>        0.000
     18 C23         3.2313    1.3226    1.2054 C.2        1 <1>        0.000
     19 C24         3.4017    2.5944    1.5932 C.2        1 <1>        0.000
     20 C25         2.5341    3.6329    0.9515 C.3        1 <1>        0.000
     21 H           0.6393    3.8944    0.4700 H.spc      1 <1>        0.000
     22 H           0.3870    3.9861    2.8385 H.spc      1 <1>        0.000
     23 H           1.3733    2.5986    3.0535 H.spc      1 <1>        0.000
     24 H          -0.9417    1.7261    3.1851 H.spc      1 <1>        0.000
     25 H          -1.4719    2.6695    1.8741 H.spc      1 <1>        0.000
     26 H           0.4863    1.9612   -0.6496 H.spc      1 <1>        0.000
     27 H           2.7021    1.3935   -0.8096 H.spc      1 <1>        0.000
     28 H           1.2105   -0.5310   -0.9511 H.spc      1 <1>        0.000
     29 H           2.8772   -0.9408   -0.4165 H.spc      1 <1>        0.000
     30 H           2.2207   -1.4513    1.7136 H.spc      1 <1>        0.000
     31 H           0.7243   -1.9356    0.7748 H.spc      1 <1>        0.000
     32 H          -5.5524   -1.0976   -0.4153 H.spc      1 <1>        0.000
     33 H           1.1537    0.1326    2.8229 H.spc      1 <1>        0.000
     34 H          -0.7598   -1.5792    3.1273 H.spc      1 <1>        0.000
     35 H          -1.8927    1.5233   -1.1147 H.spc      1 <1>        0.000
     36 H          -4.1460    0.4901   -1.2348 H.spc      1 <1>        0.000
     37 H          -3.0830   -2.2564    1.9057 H.spc      1 <1>        0.000
     38 H           3.7986    0.5148    1.6678 H.spc      1 <1>        0.000
     39 H           4.1428    2.8623    2.3462 H.spc      1 <1>        0.000
     40 H           2.6265    4.5764    1.4893 H.spc      1 <1>        0.000
     41 H           2.8446    3.7878   -0.0818 H.spc      1 <1>        0.000
@<TRIPOS>BOND
     1    4    5 1  
     2    5    6 1  
     3    3    4 1  
     4    4   13 1  
     5    1    5 1  
     6    1    2 1  
     7    6   18 1  
     8    7    8 1  
     9    2    3 1  
    10    6    7 1  
    11    4   10 1  
    12    1   20 1  
    13   19   20 1  
    14   18   19 2  
    15   16    9 1  
    16   16   17 ar 
    17   15   16 ar 
    18   14   15 ar 
    19   12   17 ar 
    20   12   13 ar 
    21   11   12 1  
    22   13   14 ar 
    23   10   11 1  
    24    8   10 1  
    25    1   21 1  
    26    2   22 1  
    27    2   23 1  
    28    3   24 1  
    29    3   25 1  
    30    5   26 1  
    31    6   27 1  
    32    7   28 1  
    33    7   29 1  
    34    8   30 1  
    35    8   31 1  
    36    9   32 1  
    37   10   33 1  
    38   11   34 1  
    39   14   35 1  
    40   15   36 1  
    41   17   37 1  
    42   18   38 1  
    43   19   39 1  
    44   20   40 1  
    45   20   41 1  
# Name:          frag5-570-44/41815 -- energy: -7.744216
# Creation time: Sat Jun  5 12:52:54 2010


@<TRIPOS>MOLECULE
frag5-570-44/41815 -- energy: -7.744216
   41    45     1     1     1
SMALL
USER_CHARGES


@<TRIPOS>ATOM
      1 N1          1.1327    3.1687    0.9900 N.4        1 <1>        0.000
      2 C1          0.6270    3.0252    2.3833 C.3        1 <1>        0.000
      3 C2         -0.5940    2.1345    2.2362 C.3        1 <1>        0.000
      4 C3         -0.0981    1.0465    1.2527 C.3        1 <1>        0.000
      5 C4          0.9049    1.8273    0.3478 C.3        1 <1>        0.000
      6 C5          2.2272    1.0398    0.1055 C.3        1 <1>        0.000
      7 C6          1.9428   -0.4479   -0.1481 C.3        1 <1>        0.000
      8 C7          1.3718   -1.1263    1.1121 C.3        1 <1>        0.000
      9 O1         -5.0407   -1.5249    0.2755 O.3        1 <1>        0.000
     10 C8          0.5082   -0.1926    2.0070 C.3        1 <1>        0.000
     11 N2         -0.6839   -0.9410    2.3353 N.pl3      1 <1>        0.000
     12 C9         -1.6820   -0.6916    1.4664 C.ar       1 <1>        0.000
     13 C10        -1.3709    0.4251    0.6730 C.ar       1 <1>        0.000
     14 C11        -2.2010    0.7761   -0.3834 C.ar       1 <1>        0.000
     15 C12        -3.4376    0.1462   -0.4811 C.ar       1 <1>        0.000
     16 C13        -3.8065   -0.9267    0.3659 C.ar       1 <1>        0.000
     17 C14        -2.8727   -1.3726    1.3035 C.ar       1 <1>        0.000
     18 C23         3.2313    1.3226    1.2054 C.2        1 <1>        0.000
     19 C24         3.4017    2.5944    1.5932 C.2        1 <1>        0.000
     20 C25         2.5341    3.6329    0.9515 C.3        1 <1>        0.000
     21 H           0.6393    3.8944    0.4700 H.spc      1 <1>        0.000
     22 H           0.3870    3.9861    2.8385 H.spc      1 <1>        0.000
     23 H           1.3733    2.5986    3.0535 H.spc      1 <1>        0.000
     24 H          -0.9417    1.7261    3.1851 H.spc      1 <1>        0.000
     25 H          -1.4719    2.6695    1.8741 H.spc      1 <1>        0.000
     26 H           0.4863    1.9612   -0.6496 H.spc      1 <1>        0.000
     27 H           2.7021    1.3935   -0.8096 H.spc      1 <1>        0.000
     28 H           1.2105   -0.5310   -0.9511 H.spc      1 <1>        0.000
     29 H           2.8772   -0.9408   -0.4165 H.spc      1 <1>        0.000
     30 H           2.2207   -1.4513    1.7136 H.spc      1 <1>        0.000
     31 H           0.7243   -1.9356    0.7748 H.spc      1 <1>        0.000
     32 H          -5.5524   -1.0976   -0.4153 H.spc      1 <1>        0.000
     33 H           1.1537    0.1326    2.8229 H.spc      1 <1>        0.000
     34 H          -0.7598   -1.5792    3.1273 H.spc      1 <1>        0.000
     35 H          -1.8927    1.5233   -1.1147 H.spc      1 <1>        0.000
     36 H          -4.1460    0.4901   -1.2348 H.spc      1 <1>        0.000
     37 H          -3.0830   -2.2564    1.9057 H.spc      1 <1>        0.000
     38 H           3.7986    0.5148    1.6678 H.spc      1 <1>        0.000
     39 H           4.1428    2.8623    2.3462 H.spc      1 <1>        0.000
     40 H           2.6265    4.5764    1.4893 H.spc      1 <1>        0.000
     41 H           2.8446    3.7878   -0.0818 H.spc      1 <1>        0.000
@<TRIPOS>BOND
     1    4    5 1  
     2    5    6 1  
     3    3    4 1  
     4    4   13 1  
     5    1    5 1  
     6    1    2 1  
     7    6   18 1  
     8    7    8 1  
     9    2    3 1  
    10    6    7 1  
    11    4   10 1  
    12    1   20 1  
    13   19   20 1  
    14   18   19 2  
    15   16    9 1  
    16   16   17 ar 
    17   15   16 ar 
    18   14   15 ar 
    19   12   17 ar 
    20   12   13 ar 
    21   11   12 1  
    22   13   14 ar 
    23   10   11 1  
    24    8   10 1  
    25    1   21 1  
    26    2   22 1  
    27    2   23 1  
    28    3   24 1  
    29    3   25 1  
    30    5   26 1  
    31    6   27 1  
    32    7   28 1  
    33    7   29 1  
    34    8   30 1  
    35    8   31 1  
    36    9   32 1  
    37   10   33 1  
    38   11   34 1  
    39   14   35 1  
    40   15   36 1  
    41   17   37 1  
    42   18   38 1  
    43   19   39 1  
    44   20   40 1  
    45   20   41 1  
