#      Rotatable Fragment
#      Build by yxyuan
#
# Name:          frag2-078-1/92655
# Creation time: Sat Jun  5 12:51:58 2010


@<TRIPOS>MOLECULE
frag2-078-1/92655
   15    16     1     1     1
SMALL
USER_CHARGES


@<TRIPOS>ATOM
      1 C5          1.7457    1.0574    0.1145 C.ar       1 <1>        0.000
      2 N2          2.7032    0.0822   -0.0064 N.ar       1 <1>        0.000
      3 N3          2.4098   -1.1399   -0.1349 N.ar       1 <1>        0.000
      4 C6          1.1150   -1.5846   -0.1958 C.ar       1 <1>        0.000
      5 C7          0.0743   -0.6446   -0.0775 C.ar       1 <1>        0.000
      6 C8          0.3952    0.6880    0.0789 C.ar       1 <1>        0.000
      7 C9         -0.6328    1.6424    0.1987 C.ar       1 <1>        0.000
      8 N4         -1.9202    1.2378    0.1589 N.ar       1 <1>        0.000
      9 C10        -2.2636   -0.0555    0.0076 C.ar       1 <1>        0.000
     10 C11        -1.2788   -1.0293   -0.1145 C.ar       1 <1>        0.000
     11 H           2.0313    2.1023    0.2362 H.spc      1 <1>        0.000
     12 H           0.8959   -2.6435   -0.3329 H.spc      1 <1>        0.000
     13 H          -0.3916    2.6981    0.3224 H.spc      1 <1>        0.000
     14 H          -3.3156   -0.3394   -0.0192 H.spc      1 <1>        0.000
     15 H          -1.5514   -2.0775   -0.2373 H.spc      1 <1>        0.000
@<TRIPOS>BOND
     1    9   10 ar 
     2    1    2 ar 
     3    1    6 ar 
     4    2    3 ar 
     5    3    4 ar 
     6    4    5 ar 
     7    5    6 ar 
     8    5   10 ar 
     9    6    7 ar 
    10    7    8 ar 
    11    8    9 ar 
    12    1   11 1  
    13    4   12 1  
    14    7   13 1  
    15    9   14 1  
    16   10   15 1  
# Name:          frag2-078-1/92655 -- energy: 0.100206
# Creation time: Sat Jun  5 12:51:58 2010


@<TRIPOS>MOLECULE
frag2-078-1/92655 -- energy: 0.100206
   15    16     1     1     1
SMALL
USER_CHARGES


@<TRIPOS>ATOM
      1 C5          1.7457    1.0574    0.1145 C.ar       1 <1>        0.000
      2 N2          2.7032    0.0822   -0.0064 N.ar       1 <1>        0.000
      3 N3          2.4098   -1.1399   -0.1349 N.ar       1 <1>        0.000
      4 C6          1.1150   -1.5846   -0.1958 C.ar       1 <1>        0.000
      5 C7          0.0743   -0.6446   -0.0775 C.ar       1 <1>        0.000
      6 C8          0.3952    0.6880    0.0789 C.ar       1 <1>        0.000
      7 C9         -0.6328    1.6424    0.1987 C.ar       1 <1>        0.000
      8 N4         -1.9202    1.2378    0.1589 N.ar       1 <1>        0.000
      9 C10        -2.2636   -0.0555    0.0076 C.ar       1 <1>        0.000
     10 C11        -1.2788   -1.0293   -0.1145 C.ar       1 <1>        0.000
     11 H           2.0313    2.1023    0.2362 H.spc      1 <1>        0.000
     12 H           0.8959   -2.6435   -0.3329 H.spc      1 <1>        0.000
     13 H          -0.3916    2.6981    0.3224 H.spc      1 <1>        0.000
     14 H          -3.3156   -0.3394   -0.0192 H.spc      1 <1>        0.000
     15 H          -1.5514   -2.0775   -0.2373 H.spc      1 <1>        0.000
@<TRIPOS>BOND
     1    9   10 ar 
     2    1    2 ar 
     3    1    6 ar 
     4    2    3 ar 
     5    3    4 ar 
     6    4    5 ar 
     7    5    6 ar 
     8    5   10 ar 
     9    6    7 ar 
    10    7    8 ar 
    11    8    9 ar 
    12    1   11 1  
    13    4   12 1  
    14    7   13 1  
    15    9   14 1  
    16   10   15 1  
