#      Rotatable Fragment
#      Build by yxyuan
#
# Name:          frag5-670-24/41815
# Creation time: Sat Jun  5 12:53:03 2010


@<TRIPOS>MOLECULE
frag5-670-24/41815
   20    21     1     1     1
SMALL
USER_CHARGES


@<TRIPOS>ATOM
      1 P1          5.5034    4.4701    1.8662 P.3        1 <1>        0.000
      2 O1          4.6949    3.2133    1.4504 O.3        1 <1>        0.000
      3 C1          3.3397    3.0515    1.5050 C.3        1 <1>        0.000
      4 C2          2.7713    3.3731    2.9062 C.3        1 <1>        0.000
      5 O2          1.4220    3.0728    2.7564 O.3        1 <1>        0.000
      6 C3          1.2021    2.1322    1.7490 C.3        1 <1>        0.000
      7 C4          2.5623    1.8338    1.1424 C.3        1 <1>        0.000
      8 C18         3.2879    4.7253    3.4175 C.3        1 <1>        0.000
      9 O6          4.6148    4.9205    3.0691 O.3        1 <1>        0.000
     10 O7          5.6623    5.2964    0.6919 O.2        1 <1>        0.000
     11 O8          6.9624    4.2766    2.2560 O.3        1 <1>        0.000
     12 H           3.1999    3.7207    0.6560 H.spc      1 <1>        0.000
     13 H           3.1079    2.7956    3.7672 H.spc      1 <1>        0.000
     14 H           0.7438    1.2279    2.1494 H.spc      1 <1>        0.000
     15 H           0.5126    2.5160    0.9971 H.spc      1 <1>        0.000
     16 H           3.0075    0.9115    1.5156 H.spc      1 <1>        0.000
     17 H           2.5243    1.6509    0.0685 H.spc      1 <1>        0.000
     18 H           3.2085    4.7390    4.5045 H.spc      1 <1>        0.000
     19 H           2.6903    5.5181    2.9676 H.spc      1 <1>        0.000
     20 H           7.0122    3.7305    3.0440 H.spc      1 <1>        0.000
@<TRIPOS>BOND
     1    3    7 1  
     2    4    5 1  
     3    6    7 1  
     4    5    6 1  
     5    4    8 1  
     6    3    4 1  
     7    1    2 1  
     8    1    9 1  
     9    1   10 2  
    10    1   11 1  
    11    2    3 1  
    12    8    9 1  
    13    3   12 1  
    14    4   13 1  
    15    6   14 1  
    16    6   15 1  
    17    7   16 1  
    18    7   17 1  
    19    8   18 1  
    20    8   19 1  
    21   11   20 1  
# Name:          frag5-670-24/41815
# Creation time: Sat Jun  5 12:53:03 2010


@<TRIPOS>MOLECULE
frag5-670-24/41815
   20    21     1     1     1
SMALL
USER_CHARGES


@<TRIPOS>ATOM
      1 P1          5.4688    4.4606    1.8149 P.3        1 <1>        0.000
      2 O1          4.4578    3.6357    0.9702 O.3        1 <1>        0.000
      3 C1          3.1902    3.2037    1.2674 C.3        1 <1>        0.000
      4 C2          2.8719    3.5217    2.7617 C.3        1 <1>        0.000
      5 O2          1.6788    2.8875    3.0217 O.3        1 <1>        0.000
      6 C3          1.4957    1.8120    2.1623 C.3        1 <1>        0.000
      7 C4          2.6821    1.7899    1.2121 C.3        1 <1>        0.000
      8 C18         3.2033    4.9458    3.1146 C.3        1 <1>        0.000
      9 O6          4.5391    5.0775    2.8876 O.3        1 <1>        0.000
     10 O7          6.0317    5.5818    1.0922 O.2        1 <1>        0.000
     11 O8          6.4038    3.4494    2.5053 O.3        1 <1>        0.000
     12 H           2.7301    3.7115    0.4197 H.spc      1 <1>        0.000
     13 H           3.5164    3.1111    3.5389 H.spc      1 <1>        0.000
     14 H           1.4346    0.8789    2.7223 H.spc      1 <1>        0.000
     15 H           0.5624    1.9169    1.6091 H.spc      1 <1>        0.000
     16 H           3.4381    1.0591    1.4992 H.spc      1 <1>        0.000
     17 H           2.4084    1.4798    0.2036 H.spc      1 <1>        0.000
     18 H           2.9513    5.1685    4.1514 H.spc      1 <1>        0.000
     19 H           2.6259    5.6497    2.5153 H.spc      1 <1>        0.000
     20 H           5.8780    2.7721    2.9369 H.spc      1 <1>        0.000
@<TRIPOS>BOND
     1    3    7 1  
     2    4    5 1  
     3    6    7 1  
     4    5    6 1  
     5    4    8 1  
     6    3    4 1  
     7    1    2 1  
     8    1    9 1  
     9    1   10 2  
    10    1   11 1  
    11    2    3 1  
    12    8    9 1  
    13    3   12 1  
    14    4   13 1  
    15    6   14 1  
    16    6   15 1  
    17    7   16 1  
    18    7   17 1  
    19    8   18 1  
    20    8   19 1  
    21   11   20 1  
# Name:          frag5-670-24/41815 -- energy: -2.236490
# Creation time: Sat Jun  5 12:53:03 2010


@<TRIPOS>MOLECULE
frag5-670-24/41815 -- energy: -2.236490
   20    21     1     1     1
SMALL
USER_CHARGES


@<TRIPOS>ATOM
      1 P1          5.5034    4.4701    1.8662 P.3        1 <1>        0.000
      2 O1          4.6949    3.2133    1.4504 O.3        1 <1>        0.000
      3 C1          3.3397    3.0515    1.5050 C.3        1 <1>        0.000
      4 C2          2.7713    3.3731    2.9062 C.3        1 <1>        0.000
      5 O2          1.4220    3.0728    2.7564 O.3        1 <1>        0.000
      6 C3          1.2021    2.1322    1.7490 C.3        1 <1>        0.000
      7 C4          2.5623    1.8338    1.1424 C.3        1 <1>        0.000
      8 C18         3.2879    4.7253    3.4175 C.3        1 <1>        0.000
      9 O6          4.6148    4.9205    3.0691 O.3        1 <1>        0.000
     10 O7          5.6623    5.2964    0.6919 O.2        1 <1>        0.000
     11 O8          6.9624    4.2766    2.2560 O.3        1 <1>        0.000
     12 H           3.1999    3.7207    0.6560 H.spc      1 <1>        0.000
     13 H           3.1079    2.7956    3.7672 H.spc      1 <1>        0.000
     14 H           0.7438    1.2279    2.1494 H.spc      1 <1>        0.000
     15 H           0.5126    2.5160    0.9971 H.spc      1 <1>        0.000
     16 H           3.0075    0.9115    1.5156 H.spc      1 <1>        0.000
     17 H           2.5243    1.6509    0.0685 H.spc      1 <1>        0.000
     18 H           3.2085    4.7390    4.5045 H.spc      1 <1>        0.000
     19 H           2.6903    5.5181    2.9676 H.spc      1 <1>        0.000
     20 H           7.0122    3.7305    3.0440 H.spc      1 <1>        0.000
@<TRIPOS>BOND
     1    3    7 1  
     2    4    5 1  
     3    6    7 1  
     4    5    6 1  
     5    4    8 1  
     6    3    4 1  
     7    1    2 1  
     8    1    9 1  
     9    1   10 2  
    10    1   11 1  
    11    2    3 1  
    12    8    9 1  
    13    3   12 1  
    14    4   13 1  
    15    6   14 1  
    16    6   15 1  
    17    7   16 1  
    18    7   17 1  
    19    8   18 1  
    20    8   19 1  
    21   11   20 1  
# Name:          frag5-670-24/41815 -- energy: -2.361577
# Creation time: Sat Jun  5 12:53:03 2010


@<TRIPOS>MOLECULE
frag5-670-24/41815 -- energy: -2.361577
   20    21     1     1     1
SMALL
USER_CHARGES


@<TRIPOS>ATOM
      1 P1          5.4688    4.4606    1.8149 P.3        1 <1>        0.000
      2 O1          4.4578    3.6357    0.9702 O.3        1 <1>        0.000
      3 C1          3.1902    3.2037    1.2674 C.3        1 <1>        0.000
      4 C2          2.8719    3.5217    2.7617 C.3        1 <1>        0.000
      5 O2          1.6788    2.8875    3.0217 O.3        1 <1>        0.000
      6 C3          1.4957    1.8120    2.1623 C.3        1 <1>        0.000
      7 C4          2.6821    1.7899    1.2121 C.3        1 <1>        0.000
      8 C18         3.2033    4.9458    3.1146 C.3        1 <1>        0.000
      9 O6          4.5391    5.0775    2.8876 O.3        1 <1>        0.000
     10 O7          6.0317    5.5818    1.0922 O.2        1 <1>        0.000
     11 O8          6.4038    3.4494    2.5053 O.3        1 <1>        0.000
     12 H           2.7301    3.7115    0.4197 H.spc      1 <1>        0.000
     13 H           3.5164    3.1111    3.5389 H.spc      1 <1>        0.000
     14 H           1.4346    0.8789    2.7223 H.spc      1 <1>        0.000
     15 H           0.5624    1.9169    1.6091 H.spc      1 <1>        0.000
     16 H           3.4381    1.0591    1.4992 H.spc      1 <1>        0.000
     17 H           2.4084    1.4798    0.2036 H.spc      1 <1>        0.000
     18 H           2.9513    5.1685    4.1514 H.spc      1 <1>        0.000
     19 H           2.6259    5.6497    2.5153 H.spc      1 <1>        0.000
     20 H           5.8780    2.7721    2.9369 H.spc      1 <1>        0.000
@<TRIPOS>BOND
     1    3    7 1  
     2    4    5 1  
     3    6    7 1  
     4    5    6 1  
     5    4    8 1  
     6    3    4 1  
     7    1    2 1  
     8    1    9 1  
     9    1   10 2  
    10    1   11 1  
    11    2    3 1  
    12    8    9 1  
    13    3   12 1  
    14    4   13 1  
    15    6   14 1  
    16    6   15 1  
    17    7   16 1  
    18    7   17 1  
    19    8   18 1  
    20    8   19 1  
    21   11   20 1  
