#      Rotatable Fragment
#      Build by yxyuan
#
# Name:          frag3-252-3/31924
# Creation time: Sat Jun  5 12:52:39 2010


@<TRIPOS>MOLECULE
frag3-252-3/31924
    5     4     1     1     1
SMALL
USER_CHARGES


@<TRIPOS>ATOM
      1 N1         -0.4767    0.0304   -0.0318 N.pl3      1 <1>        0.000
      2 N2          0.6516   -0.6115   -0.1453 N.2        1 <1>        0.000
      3 O1          1.5679   -0.0176   -0.7052 O.2        1 <1>        0.000
      4 H          -0.5637    0.9778   -0.3996 H.spc      1 <1>        0.000
      5 H          -1.2729   -0.4145    0.4249 H.spc      1 <1>        0.000
@<TRIPOS>BOND
     1    1    2 1  
     2    2    3 2  
     3    1    4 1  
     4    1    5 1  
# Name:          frag3-252-3/31924 -- energy: -0.003608
# Creation time: Sat Jun  5 12:52:39 2010


@<TRIPOS>MOLECULE
frag3-252-3/31924 -- energy: -0.003608
    5     4     1     1     1
SMALL
USER_CHARGES


@<TRIPOS>ATOM
      1 N1         -0.4767    0.0304   -0.0318 N.pl3      1 <1>        0.000
      2 N2          0.6516   -0.6115   -0.1453 N.2        1 <1>        0.000
      3 O1          1.5679   -0.0176   -0.7052 O.2        1 <1>        0.000
      4 H          -0.5637    0.9778   -0.3996 H.spc      1 <1>        0.000
      5 H          -1.2729   -0.4145    0.4249 H.spc      1 <1>        0.000
@<TRIPOS>BOND
     1    1    2 1  
     2    2    3 2  
     3    1    4 1  
     4    1    5 1  
