#      Rotatable Fragment
#      Build by yxyuan
#
# Name:          frag5-547-64/41815
# Creation time: Sat Jun  5 12:52:53 2010


@<TRIPOS>MOLECULE
frag5-547-64/41815
   13    13     1     1     1
SMALL
USER_CHARGES


@<TRIPOS>ATOM
      1 O1         -2.6490    0.0386   -0.0134 O.3        1 <1>        0.000
      2 C1         -2.9964   -1.1996    0.5973 C.3        1 <1>        0.000
      3 C2         -2.9952   -2.3863   -0.3835 C.3        1 <1>        0.000
      4 C3         -3.7503   -2.0433   -1.6303 C.2        1 <1>        0.000
      5 C4         -3.9756   -0.7551   -1.9302 C.2        1 <1>        0.000
      6 C5         -3.4928    0.3085   -1.0234 C.2        1 <1>        0.000
      7 O2         -3.8894    1.4529   -1.1833 O.2        1 <1>        0.000
      8 H          -4.0079   -1.0996    0.9909 H.spc      1 <1>        0.000
      9 H          -2.2517   -1.4075    1.3656 H.spc      1 <1>        0.000
     10 H          -3.4750   -3.2398    0.0955 H.spc      1 <1>        0.000
     11 H          -1.9649   -2.6227   -0.6493 H.spc      1 <1>        0.000
     12 H          -4.1135   -2.8329   -2.2881 H.spc      1 <1>        0.000
     13 H          -4.5138   -0.4929   -2.8411 H.spc      1 <1>        0.000
@<TRIPOS>BOND
     1    1    2 1  
     2    1    6 1  
     3    2    3 1  
     4    3    4 1  
     5    4    5 2  
     6    5    6 1  
     7    6    7 2  
     8    2    8 1  
     9    2    9 1  
    10    3   10 1  
    11    3   11 1  
    12    4   12 1  
    13    5   13 1  
# Name:          frag5-547-64/41815 -- energy: -0.325827
# Creation time: Sat Jun  5 12:52:53 2010


@<TRIPOS>MOLECULE
frag5-547-64/41815 -- energy: -0.325827
   13    13     1     1     1
SMALL
USER_CHARGES


@<TRIPOS>ATOM
      1 O1         -2.6490    0.0386   -0.0134 O.3        1 <1>        0.000
      2 C1         -2.9964   -1.1996    0.5973 C.3        1 <1>        0.000
      3 C2         -2.9952   -2.3863   -0.3835 C.3        1 <1>        0.000
      4 C3         -3.7503   -2.0433   -1.6303 C.2        1 <1>        0.000
      5 C4         -3.9756   -0.7551   -1.9302 C.2        1 <1>        0.000
      6 C5         -3.4928    0.3085   -1.0234 C.2        1 <1>        0.000
      7 O2         -3.8894    1.4529   -1.1833 O.2        1 <1>        0.000
      8 H          -4.0079   -1.0996    0.9909 H.spc      1 <1>        0.000
      9 H          -2.2517   -1.4075    1.3656 H.spc      1 <1>        0.000
     10 H          -3.4750   -3.2398    0.0955 H.spc      1 <1>        0.000
     11 H          -1.9649   -2.6227   -0.6493 H.spc      1 <1>        0.000
     12 H          -4.1135   -2.8329   -2.2881 H.spc      1 <1>        0.000
     13 H          -4.5138   -0.4929   -2.8411 H.spc      1 <1>        0.000
@<TRIPOS>BOND
     1    1    2 1  
     2    1    6 1  
     3    2    3 1  
     4    3    4 1  
     5    4    5 2  
     6    5    6 1  
     7    6    7 2  
     8    2    8 1  
     9    2    9 1  
    10    3   10 1  
    11    3   11 1  
    12    4   12 1  
    13    5   13 1  
