#      Rotatable Fragment
#      Build by yxyuan
#
# Name:          frag3-175-9/31924
# Creation time: Sat Jun  5 12:52:06 2010


@<TRIPOS>MOLECULE
frag3-175-9/31924
   19    18     1     1     1
SMALL
USER_CHARGES


@<TRIPOS>ATOM
      1 C38         9.2954    1.3518    0.4780 C.2        1 <1>        0.000
      2 C39        10.3549    1.6254   -0.2894 C.2        1 <1>        0.000
      3 C41        11.0714    0.6157   -1.0757 C.2        1 <1>        0.000
      4 C42        11.9617    0.9075   -2.0333 C.2        1 <1>        0.000
      5 C43        12.6814   -0.0995   -2.8166 C.2        1 <1>        0.000
      6 C44        13.3712    0.1757   -3.9309 C.2        1 <1>        0.000
      7 C45        14.0941   -0.8385   -4.7130 C.2        1 <1>        0.000
      8 C46        14.8435   -0.5730   -5.7918 C.2        1 <1>        0.000
      9 C47        15.0183    0.7617   -6.2912 C.1        1 <1>        0.000
     10 N4         15.1564    1.8418   -6.6910 N.1        1 <1>        0.000
     11 H           8.9192    0.3309    0.5438 H.spc      1 <1>        0.000
     12 H           8.8075    2.1496    1.0381 H.spc      1 <1>        0.000
     13 H          10.7060    2.6564   -0.3333 H.spc      1 <1>        0.000
     14 H          10.8673   -0.4348   -0.8686 H.spc      1 <1>        0.000
     15 H          12.1627    1.9582   -2.2423 H.spc      1 <1>        0.000
     16 H          12.6539   -1.1333   -2.4723 H.spc      1 <1>        0.000
     17 H          13.3984    1.2088   -4.2775 H.spc      1 <1>        0.000
     18 H          14.0149   -1.8775   -4.3932 H.spc      1 <1>        0.000
     19 H          15.3365   -1.3974   -6.3070 H.spc      1 <1>        0.000
@<TRIPOS>BOND
     1    9   10 3  
     2    8    9 1  
     3    6    7 1  
     4    4    5 1  
     5    7    8 2  
     6    5    6 2  
     7    1    2 2  
     8    2    3 1  
     9    3    4 2  
    10    1   11 1  
    11    1   12 1  
    12    2   13 1  
    13    3   14 1  
    14    4   15 1  
    15    5   16 1  
    16    6   17 1  
    17    7   18 1  
    18    8   19 1  
# Name:          frag3-175-9/31924
# Creation time: Sat Jun  5 12:52:06 2010


@<TRIPOS>MOLECULE
frag3-175-9/31924
   19    18     1     1     1
SMALL
USER_CHARGES


@<TRIPOS>ATOM
      1 C38         9.4143    1.9328   -0.1531 C.2        1 <1>        0.000
      2 C39        10.6524    1.4918   -0.3956 C.2        1 <1>        0.000
      3 C41        11.0776    0.9296   -1.6819 C.2        1 <1>        0.000
      4 C42        12.3129    0.4720   -1.9258 C.2        1 <1>        0.000
      5 C43        12.7374   -0.0957   -3.2075 C.2        1 <1>        0.000
      6 C44        13.9698   -0.5678   -3.4424 C.2        1 <1>        0.000
      7 C45        14.3900   -1.1391   -4.7307 C.2        1 <1>        0.000
      8 C46        14.5899   -0.4193   -5.8456 C.2        1 <1>        0.000
      9 C47        14.4210    1.0063   -5.8761 C.1        1 <1>        0.000
     10 N4         14.2829    2.1578   -5.8962 N.1        1 <1>        0.000
     11 H           8.6560    1.8853   -0.9347 H.spc      1 <1>        0.000
     12 H           9.1628    2.3399    0.8262 H.spc      1 <1>        0.000
     13 H          11.3871    1.5533    0.4072 H.spc      1 <1>        0.000
     14 H          10.3448    0.8812   -2.4874 H.spc      1 <1>        0.000
     15 H          13.0466    0.5254   -1.1215 H.spc      1 <1>        0.000
     16 H          12.0089   -0.1367   -4.0173 H.spc      1 <1>        0.000
     17 H          14.7003   -0.5260   -2.6345 H.spc      1 <1>        0.000
     18 H          14.5493   -2.2161   -4.7834 H.spc      1 <1>        0.000
     19 H          14.8904   -0.9339   -6.7582 H.spc      1 <1>        0.000
@<TRIPOS>BOND
     1    9   10 3  
     2    8    9 1  
     3    6    7 1  
     4    4    5 1  
     5    7    8 2  
     6    5    6 2  
     7    1    2 2  
     8    2    3 1  
     9    3    4 2  
    10    1   11 1  
    11    1   12 1  
    12    2   13 1  
    13    3   14 1  
    14    4   15 1  
    15    5   16 1  
    16    6   17 1  
    17    7   18 1  
    18    8   19 1  
# Name:          frag3-175-9/31924
# Creation time: Sat Jun  5 12:52:06 2010


@<TRIPOS>MOLECULE
frag3-175-9/31924
   19    18     1     1     1
SMALL
USER_CHARGES


@<TRIPOS>ATOM
      1 C38        10.1750    2.7085   -0.6382 C.2        1 <1>        0.000
      2 C39        10.4920    1.4125   -0.6995 C.2        1 <1>        0.000
      3 C41        11.4954    0.8603   -1.6062 C.2        1 <1>        0.000
      4 C42        11.7538   -0.4499   -1.7412 C.2        1 <1>        0.000
      5 C43        12.7523   -0.9953   -2.6554 C.2        1 <1>        0.000
      6 C44        13.2582   -0.3147   -3.6970 C.2        1 <1>        0.000
      7 C45        14.2649   -0.8537   -4.6163 C.2        1 <1>        0.000
      8 C46        14.8463   -0.1559   -5.6021 C.2        1 <1>        0.000
      9 C47        14.5340    1.2210   -5.8516 C.1        1 <1>        0.000
     10 N4         14.2764    2.3357   -6.0474 N.1        1 <1>        0.000
     11 H          10.6764    3.4237   -1.2903 H.spc      1 <1>        0.000
     12 H           9.4149    3.0510    0.0639 H.spc      1 <1>        0.000
     13 H           9.9706    0.7256   -0.0329 H.spc      1 <1>        0.000
     14 H          12.0723    1.5582   -2.2131 H.spc      1 <1>        0.000
     15 H          11.1829   -1.1495   -1.1306 H.spc      1 <1>        0.000
     16 H          13.1072   -2.0114   -2.4833 H.spc      1 <1>        0.000
     17 H          12.8985    0.6997   -3.8692 H.spc      1 <1>        0.000
     18 H          14.5614   -1.8949   -4.4893 H.spc      1 <1>        0.000
     19 H          15.5815   -0.6521   -6.2356 H.spc      1 <1>        0.000
@<TRIPOS>BOND
     1    9   10 3  
     2    8    9 1  
     3    6    7 1  
     4    4    5 1  
     5    7    8 2  
     6    5    6 2  
     7    1    2 2  
     8    2    3 1  
     9    3    4 2  
    10    1   11 1  
    11    1   12 1  
    12    2   13 1  
    13    3   14 1  
    14    4   15 1  
    15    5   16 1  
    16    6   17 1  
    17    7   18 1  
    18    8   19 1  
# Name:          frag3-175-9/31924
# Creation time: Sat Jun  5 12:52:06 2010


@<TRIPOS>MOLECULE
frag3-175-9/31924
   19    18     1     1     1
SMALL
USER_CHARGES


@<TRIPOS>ATOM
      1 C38        10.4342    2.1505    0.4961 C.2        1 <1>        0.000
      2 C39        10.2728    1.4971   -0.6582 C.2        1 <1>        0.000
      3 C41        11.3436    0.7561   -1.3303 C.2        1 <1>        0.000
      4 C42        11.1786    0.0684   -2.4694 C.2        1 <1>        0.000
      5 C43        12.2522   -0.6628   -3.1433 C.2        1 <1>        0.000
      6 C44        13.2636   -0.0661   -3.7914 C.2        1 <1>        0.000
      7 C45        14.3465   -0.7987   -4.4623 C.2        1 <1>        0.000
      8 C46        15.0953   -0.3032   -5.4575 C.2        1 <1>        0.000
      9 C47        14.9082    1.0259   -5.9660 C.1        1 <1>        0.000
     10 N4         14.7532    2.1013   -6.3725 N.1        1 <1>        0.000
     11 H          11.4055    2.1512    0.9907 H.spc      1 <1>        0.000
     12 H           9.5946    2.6828    0.9431 H.spc      1 <1>        0.000
     13 H           9.2887    1.5164   -1.1265 H.spc      1 <1>        0.000
     14 H          12.3346    0.7645   -0.8765 H.spc      1 <1>        0.000
     15 H          10.1862    0.0531   -2.9201 H.spc      1 <1>        0.000
     16 H          12.2287   -1.7522   -3.1171 H.spc      1 <1>        0.000
     17 H          13.2834    1.0233   -3.8222 H.spc      1 <1>        0.000
     18 H          14.5551   -1.8149   -4.1276 H.spc      1 <1>        0.000
     19 H          15.8720   -0.9304   -5.8951 H.spc      1 <1>        0.000
@<TRIPOS>BOND
     1    9   10 3  
     2    8    9 1  
     3    6    7 1  
     4    4    5 1  
     5    7    8 2  
     6    5    6 2  
     7    1    2 2  
     8    2    3 1  
     9    3    4 2  
    10    1   11 1  
    11    1   12 1  
    12    2   13 1  
    13    3   14 1  
    14    4   15 1  
    15    5   16 1  
    16    6   17 1  
    17    7   18 1  
    18    8   19 1  
# Name:          frag3-175-9/31924
# Creation time: Sat Jun  5 12:52:06 2010


@<TRIPOS>MOLECULE
frag3-175-9/31924
   19    18     1     1     1
SMALL
USER_CHARGES


@<TRIPOS>ATOM
      1 C38         9.9863    2.4601   -0.2047 C.2        1 <1>        0.000
      2 C39        10.3916    1.2927   -0.7135 C.2        1 <1>        0.000
      3 C41        11.5739    1.1443   -1.5674 C.2        1 <1>        0.000
      4 C42        11.9169    0.0028   -2.1794 C.2        1 <1>        0.000
      5 C43        13.0917   -0.1447   -3.0392 C.2        1 <1>        0.000
      6 C44        13.1857   -1.0463   -4.0277 C.2        1 <1>        0.000
      7 C45        14.3662   -1.1857   -4.8927 C.2        1 <1>        0.000
      8 C46        14.9274   -0.1712   -5.5701 C.2        1 <1>        0.000
      9 C47        14.4137    1.1680   -5.5076 C.1        1 <1>        0.000
     10 N4         13.9950    2.2485   -5.4526 N.1        1 <1>        0.000
     11 H          10.5452    3.3712   -0.4184 H.spc      1 <1>        0.000
     12 H           9.0969    2.5012    0.4240 H.spc      1 <1>        0.000
     13 H           9.8103    0.4006   -0.4804 H.spc      1 <1>        0.000
     14 H          12.2127    2.0154   -1.7133 H.spc      1 <1>        0.000
     15 H          11.2816   -0.8698   -2.0274 H.spc      1 <1>        0.000
     16 H          13.9403    0.5171   -2.8661 H.spc      1 <1>        0.000
     17 H          12.3402   -1.7124   -4.1992 H.spc      1 <1>        0.000
     18 H          14.8140   -2.1747   -4.9903 H.spc      1 <1>        0.000
     19 H          15.8026   -0.3712   -6.1883 H.spc      1 <1>        0.000
@<TRIPOS>BOND
     1    9   10 3  
     2    8    9 1  
     3    6    7 1  
     4    4    5 1  
     5    7    8 2  
     6    5    6 2  
     7    1    2 2  
     8    2    3 1  
     9    3    4 2  
    10    1   11 1  
    11    1   12 1  
    12    2   13 1  
    13    3   14 1  
    14    4   15 1  
    15    5   16 1  
    16    6   17 1  
    17    7   18 1  
    18    8   19 1  
# Name:          frag3-175-9/31924
# Creation time: Sat Jun  5 12:52:06 2010


@<TRIPOS>MOLECULE
frag3-175-9/31924
   19    18     1     1     1
SMALL
USER_CHARGES


@<TRIPOS>ATOM
      1 C38        10.1093    1.5265    0.3325 C.2        1 <1>        0.000
      2 C39        10.1955    1.7859   -0.9772 C.2        1 <1>        0.000
      3 C41        10.9536    0.9603   -1.9160 C.2        1 <1>        0.000
      4 C42        12.0982    0.3281   -1.5995 C.2        1 <1>        0.000
      5 C43        12.8557   -0.5016   -2.5308 C.2        1 <1>        0.000
      6 C44        13.3032   -0.0684   -3.7197 C.2        1 <1>        0.000
      7 C45        14.0635   -0.8994   -4.6599 C.2        1 <1>        0.000
      8 C46        14.7268   -0.4290   -5.7256 C.2        1 <1>        0.000
      9 C47        14.7600    0.9672   -6.0507 C.1        1 <1>        0.000
     10 N4         14.7827    2.0988   -6.3080 N.1        1 <1>        0.000
     11 H          10.6211    0.6600    0.7513 H.spc      1 <1>        0.000
     12 H           9.5273    2.1816    0.9807 H.spc      1 <1>        0.000
     13 H           9.6723    2.6599   -1.3652 H.spc      1 <1>        0.000
     14 H          10.5695    0.8508   -2.9302 H.spc      1 <1>        0.000
     15 H          12.4830    0.4426   -0.5861 H.spc      1 <1>        0.000
     16 H          13.0702   -1.5313   -2.2447 H.spc      1 <1>        0.000
     17 H          13.0891    0.9620   -4.0036 H.spc      1 <1>        0.000
     18 H          14.0909   -1.9740   -4.4793 H.spc      1 <1>        0.000
     19 H          15.2590   -1.1317   -6.3668 H.spc      1 <1>        0.000
@<TRIPOS>BOND
     1    9   10 3  
     2    8    9 1  
     3    6    7 1  
     4    4    5 1  
     5    7    8 2  
     6    5    6 2  
     7    1    2 2  
     8    2    3 1  
     9    3    4 2  
    10    1   11 1  
    11    1   12 1  
    12    2   13 1  
    13    3   14 1  
    14    4   15 1  
    15    5   16 1  
    16    6   17 1  
    17    7   18 1  
    18    8   19 1  
# Name:          frag3-175-9/31924
# Creation time: Sat Jun  5 12:52:06 2010


@<TRIPOS>MOLECULE
frag3-175-9/31924
   19    18     1     1     1
SMALL
USER_CHARGES


@<TRIPOS>ATOM
      1 C38        10.7620    2.0677    0.1431 C.2        1 <1>        0.000
      2 C39        10.1469    1.4101   -0.8461 C.2        1 <1>        0.000
      3 C41        10.8137    1.0086   -2.0867 C.2        1 <1>        0.000
      4 C42        11.9688    0.3254   -2.1243 C.2        1 <1>        0.000
      5 C43        12.6402   -0.0823   -3.3566 C.2        1 <1>        0.000
      6 C44        13.8054   -0.7457   -3.3916 C.2        1 <1>        0.000
      7 C45        14.4740   -1.1547   -4.6341 C.2        1 <1>        0.000
      8 C46        14.7363   -0.3236   -5.6563 C.2        1 <1>        0.000
      9 C47        14.3914    1.0690   -5.6190 C.1        1 <1>        0.000
     10 N4         14.1097    2.1940   -5.5832 N.1        1 <1>        0.000
     11 H          11.8152    2.3324    0.0492 H.spc      1 <1>        0.000
     12 H          10.2100    2.3389    1.0430 H.spc      1 <1>        0.000
     13 H           9.0933    1.1597   -0.7222 H.spc      1 <1>        0.000
     14 H          10.3457    1.2798   -3.0330 H.spc      1 <1>        0.000
     15 H          12.4351    0.0580   -1.1761 H.spc      1 <1>        0.000
     16 H          12.1651    0.1680   -4.3051 H.spc      1 <1>        0.000
     17 H          14.2834   -0.9955   -2.4444 H.spc      1 <1>        0.000
     18 H          14.7760   -2.1974   -4.7327 H.spc      1 <1>        0.000
     19 H          15.2279   -0.7205   -6.5445 H.spc      1 <1>        0.000
@<TRIPOS>BOND
     1    9   10 3  
     2    8    9 1  
     3    6    7 1  
     4    4    5 1  
     5    7    8 2  
     6    5    6 2  
     7    1    2 2  
     8    2    3 1  
     9    3    4 2  
    10    1   11 1  
    11    1   12 1  
    12    2   13 1  
    13    3   14 1  
    14    4   15 1  
    15    5   16 1  
    16    6   17 1  
    17    7   18 1  
    18    8   19 1  
# Name:          frag3-175-9/31924
# Creation time: Sat Jun  5 12:52:06 2010


@<TRIPOS>MOLECULE
frag3-175-9/31924
   19    18     1     1     1
SMALL
USER_CHARGES


@<TRIPOS>ATOM
      1 C38        10.7373    1.9723    0.4112 C.2        1 <1>        0.000
      2 C39        10.4623    1.4083   -0.7680 C.2        1 <1>        0.000
      3 C41        11.4826    0.9416   -1.7058 C.2        1 <1>        0.000
      4 C42        11.2139    0.3529   -2.8813 C.2        1 <1>        0.000
      5 C43        12.2370   -0.1078   -3.8157 C.2        1 <1>        0.000
      6 C44        13.4234   -0.6111   -3.4309 C.2        1 <1>        0.000
      7 C45        14.4549   -1.0740   -4.3661 C.2        1 <1>        0.000
      8 C46        14.9832   -0.3144   -5.3401 C.2        1 <1>        0.000
      9 C47        14.5887    1.0491   -5.5475 C.1        1 <1>        0.000
     10 N4         14.2651    2.1516   -5.7105 N.1        1 <1>        0.000
     11 H          11.7732    2.1071    0.7225 H.spc      1 <1>        0.000
     12 H           9.9258    2.2978    1.0621 H.spc      1 <1>        0.000
     13 H           9.4156    1.2889   -1.0477 H.spc      1 <1>        0.000
     14 H          12.5285    1.0809   -1.4324 H.spc      1 <1>        0.000
     15 H          10.1686    0.2099   -3.1552 H.spc      1 <1>        0.000
     16 H          12.0278   -0.0401   -4.8833 H.spc      1 <1>        0.000
     17 H          13.6305   -0.6790   -2.3629 H.spc      1 <1>        0.000
     18 H          14.8149   -2.0978   -4.2642 H.spc      1 <1>        0.000
     19 H          15.7378   -0.7492   -5.9955 H.spc      1 <1>        0.000
@<TRIPOS>BOND
     1    9   10 3  
     2    8    9 1  
     3    6    7 1  
     4    4    5 1  
     5    7    8 2  
     6    5    6 2  
     7    1    2 2  
     8    2    3 1  
     9    3    4 2  
    10    1   11 1  
    11    1   12 1  
    12    2   13 1  
    13    3   14 1  
    14    4   15 1  
    15    5   16 1  
    16    6   17 1  
    17    7   18 1  
    18    8   19 1  
# Name:          frag3-175-9/31924
# Creation time: Sat Jun  5 12:52:06 2010


@<TRIPOS>MOLECULE
frag3-175-9/31924
   19    18     1     1     1
SMALL
USER_CHARGES


@<TRIPOS>ATOM
      1 C38        10.4614    2.2905    0.0527 C.2        1 <1>        0.000
      2 C39         9.9441    1.1660   -0.4557 C.2        1 <1>        0.000
      3 C41        10.6852    0.2612   -1.3342 C.2        1 <1>        0.000
      4 C42        11.8597    0.5736   -1.9079 C.2        1 <1>        0.000
      5 C43        12.6113   -0.3216   -2.7815 C.2        1 <1>        0.000
      6 C44        13.4746    0.0918   -3.7181 C.2        1 <1>        0.000
      7 C45        14.2272   -0.8129   -4.5953 C.2        1 <1>        0.000
      8 C46        14.8583   -0.4347   -5.7158 C.2        1 <1>        0.000
      9 C47        14.8629    0.9258   -6.1690 C.1        1 <1>        0.000
     10 N4         14.8635    2.0289   -6.5298 N.1        1 <1>        0.000
     11 H          11.4874    2.5735   -0.1827 H.spc      1 <1>        0.000
     12 H           9.8568    2.9235    0.7022 H.spc      1 <1>        0.000
     13 H           8.9154    0.9106   -0.2016 H.spc      1 <1>        0.000
     14 H          10.2607   -0.7225   -1.5350 H.spc      1 <1>        0.000
     15 H          12.2781    1.5599   -1.7076 H.spc      1 <1>        0.000
     16 H          12.4605   -1.3947   -2.6643 H.spc      1 <1>        0.000
     17 H          13.6276    1.1645   -3.8361 H.spc      1 <1>        0.000
     18 H          14.2763   -1.8654   -4.3162 H.spc      1 <1>        0.000
     19 H          15.3859   -1.1868   -6.3024 H.spc      1 <1>        0.000
@<TRIPOS>BOND
     1    9   10 3  
     2    8    9 1  
     3    6    7 1  
     4    4    5 1  
     5    7    8 2  
     6    5    6 2  
     7    1    2 2  
     8    2    3 1  
     9    3    4 2  
    10    1   11 1  
    11    1   12 1  
    12    2   13 1  
    13    3   14 1  
    14    4   15 1  
    15    5   16 1  
    16    6   17 1  
    17    7   18 1  
    18    8   19 1  
# Name:          frag3-175-9/31924
# Creation time: Sat Jun  5 12:52:06 2010


@<TRIPOS>MOLECULE
frag3-175-9/31924
   19    18     1     1     1
SMALL
USER_CHARGES


@<TRIPOS>ATOM
      1 C38         9.5279    1.5638   -0.5545 C.2        1 <1>        0.000
      2 C39        10.8065    1.9423   -0.6610 C.2        1 <1>        0.000
      3 C41        11.7735    1.2849   -1.5375 C.2        1 <1>        0.000
      4 C42        11.8728   -0.0500   -1.6743 C.2        1 <1>        0.000
      5 C43        12.8276   -0.7103   -2.5581 C.2        1 <1>        0.000
      6 C44        13.0979   -0.2944   -3.8060 C.2        1 <1>        0.000
      7 C45        14.0627   -0.9489   -4.6957 C.2        1 <1>        0.000
      8 C46        14.7570   -0.3222   -5.6563 C.2        1 <1>        0.000
      9 C47        14.6195    1.0827   -5.9067 C.1        1 <1>        0.000
     10 N4         14.5030    2.2205   -6.1047 N.1        1 <1>        0.000
     11 H           9.1579    0.7227   -1.1408 H.spc      1 <1>        0.000
     12 H           8.8561    2.0965    0.1185 H.spc      1 <1>        0.000
     13 H          11.1455    2.7870   -0.0614 H.spc      1 <1>        0.000
     14 H          12.4536    1.9122   -2.1138 H.spc      1 <1>        0.000
     15 H          11.1990   -0.6761   -1.0893 H.spc      1 <1>        0.000
     16 H          13.3508   -1.5905   -2.1845 H.spc      1 <1>        0.000
     17 H          12.5686    0.5820   -4.1800 H.spc      1 <1>        0.000
     18 H          14.2267   -2.0188   -4.5671 H.spc      1 <1>        0.000
     19 H          15.4496   -0.9006   -6.2677 H.spc      1 <1>        0.000
@<TRIPOS>BOND
     1    9   10 3  
     2    8    9 1  
     3    6    7 1  
     4    4    5 1  
     5    7    8 2  
     6    5    6 2  
     7    1    2 2  
     8    2    3 1  
     9    3    4 2  
    10    1   11 1  
    11    1   12 1  
    12    2   13 1  
    13    3   14 1  
    14    4   15 1  
    15    5   16 1  
    16    6   17 1  
    17    7   18 1  
    18    8   19 1  
# Name:          frag3-175-9/31924
# Creation time: Sat Jun  5 12:52:06 2010


@<TRIPOS>MOLECULE
frag3-175-9/31924
   19    18     1     1     1
SMALL
USER_CHARGES


@<TRIPOS>ATOM
      1 C38         9.3928    2.1688   -0.5447 C.2        1 <1>        0.000
      2 C39        10.4919    1.4285   -0.3718 C.2        1 <1>        0.000
      3 C41        11.0891    0.6018   -1.4243 C.2        1 <1>        0.000
      4 C42        12.3903    0.2839   -1.4790 C.2        1 <1>        0.000
      5 C43        12.9861   -0.5419   -2.5302 C.2        1 <1>        0.000
      6 C44        13.5036   -0.0455   -3.6628 C.2        1 <1>        0.000
      7 C45        14.0995   -0.8755   -4.7192 C.2        1 <1>        0.000
      8 C46        14.6127   -0.3979   -5.8614 C.2        1 <1>        0.000
      9 C47        14.6340    1.0054   -6.1619 C.1        1 <1>        0.000
     10 N4         14.6484    2.1409   -6.3994 N.1        1 <1>        0.000
     11 H           8.8893    2.1793   -1.5114 H.spc      1 <1>        0.000
     12 H           8.9998    2.7621    0.2810 H.spc      1 <1>        0.000
     13 H          10.9712    1.4402    0.6071 H.spc      1 <1>        0.000
     14 H          10.4358    0.2225   -2.2101 H.spc      1 <1>        0.000
     15 H          13.0438    0.6632   -0.6934 H.spc      1 <1>        0.000
     16 H          13.0104   -1.6218   -2.3839 H.spc      1 <1>        0.000
     17 H          13.4812    1.0345   -3.8084 H.spc      1 <1>        0.000
     18 H          14.1259   -1.9539   -4.5629 H.spc      1 <1>        0.000
     19 H          15.0277   -1.0984   -6.5862 H.spc      1 <1>        0.000
@<TRIPOS>BOND
     1    9   10 3  
     2    8    9 1  
     3    6    7 1  
     4    4    5 1  
     5    7    8 2  
     6    5    6 2  
     7    1    2 2  
     8    2    3 1  
     9    3    4 2  
    10    1   11 1  
    11    1   12 1  
    12    2   13 1  
    13    3   14 1  
    14    4   15 1  
    15    5   16 1  
    16    6   17 1  
    17    7   18 1  
    18    8   19 1  
# Name:          frag3-175-9/31924
# Creation time: Sat Jun  5 12:52:06 2010


@<TRIPOS>MOLECULE
frag3-175-9/31924
   19    18     1     1     1
SMALL
USER_CHARGES


@<TRIPOS>ATOM
      1 C38        10.3077    1.1704    0.6702 C.2        1 <1>        0.000
      2 C39        10.4074    1.4984   -0.6212 C.2        1 <1>        0.000
      3 C41        11.1601    0.7165   -1.6036 C.2        1 <1>        0.000
      4 C42        11.6276    1.2119   -2.7593 C.2        1 <1>        0.000
      5 C43        12.3887    0.4306   -3.7323 C.2        1 <1>        0.000
      6 C44        13.4610   -0.3138   -3.4122 C.2        1 <1>        0.000
      7 C45        14.2232   -1.1051   -4.3866 C.2        1 <1>        0.000
      8 C46        14.8102   -0.5907   -5.4797 C.2        1 <1>        0.000
      9 C47        14.7554    0.8089   -5.7914 C.1        1 <1>        0.000
     10 N4         14.7071    1.9415   -6.0388 N.1        1 <1>        0.000
     11 H          10.8038    0.2751    1.0450 H.spc      1 <1>        0.000
     12 H           9.7303    1.7981    1.3489 H.spc      1 <1>        0.000
     13 H           9.8990    2.4000   -0.9629 H.spc      1 <1>        0.000
     14 H          11.3526   -0.3333   -1.3823 H.spc      1 <1>        0.000
     15 H          11.4280    2.2592   -2.9862 H.spc      1 <1>        0.000
     16 H          12.0693    0.4529   -4.7742 H.spc      1 <1>        0.000
     17 H          13.7829   -0.3311   -2.3710 H.spc      1 <1>        0.000
     18 H          14.3185   -2.1768   -4.2119 H.spc      1 <1>        0.000
     19 H          15.3466   -1.2593   -6.1531 H.spc      1 <1>        0.000
@<TRIPOS>BOND
     1    9   10 3  
     2    8    9 1  
     3    6    7 1  
     4    4    5 1  
     5    7    8 2  
     6    5    6 2  
     7    1    2 2  
     8    2    3 1  
     9    3    4 2  
    10    1   11 1  
    11    1   12 1  
    12    2   13 1  
    13    3   14 1  
    14    4   15 1  
    15    5   16 1  
    16    6   17 1  
    17    7   18 1  
    18    8   19 1  
# Name:          frag3-175-9/31924
# Creation time: Sat Jun  5 12:52:06 2010


@<TRIPOS>MOLECULE
frag3-175-9/31924
   19    18     1     1     1
SMALL
USER_CHARGES


@<TRIPOS>ATOM
      1 C38         9.2818    1.1995   -0.3072 C.2        1 <1>        0.000
      2 C39        10.5653    1.4877   -0.5394 C.2        1 <1>        0.000
      3 C41        11.4085    0.7511   -1.4798 C.2        1 <1>        0.000
      4 C42        12.5998    1.1824   -1.9222 C.2        1 <1>        0.000
      5 C43        13.4391    0.4408   -2.8594 C.2        1 <1>        0.000
      6 C44        12.9522   -0.4041   -3.7855 C.2        1 <1>        0.000
      7 C45        13.7910   -1.1507   -4.7296 C.2        1 <1>        0.000
      8 C46        14.5503   -0.5778   -5.6779 C.2        1 <1>        0.000
      9 C47        14.6085    0.8441   -5.8571 C.1        1 <1>        0.000
     10 N4         14.6517    1.9954   -5.9967 N.1        1 <1>        0.000
     11 H           8.8051    0.3726   -0.8335 H.spc      1 <1>        0.000
     12 H           8.7112    1.7913    0.4086 H.spc      1 <1>        0.000
     13 H          11.0103    2.3211    0.0042 H.spc      1 <1>        0.000
     14 H          11.0463   -0.2099   -1.8449 H.spc      1 <1>        0.000
     15 H          12.9629    2.1443   -1.5602 H.spc      1 <1>        0.000
     16 H          14.5189    0.5796   -2.8054 H.spc      1 <1>        0.000
     17 H          11.8722   -0.5421   -3.8377 H.spc      1 <1>        0.000
     18 H          13.7985   -2.2382   -4.6569 H.spc      1 <1>        0.000
     19 H          15.1428   -1.2155   -6.3340 H.spc      1 <1>        0.000
@<TRIPOS>BOND
     1    9   10 3  
     2    8    9 1  
     3    6    7 1  
     4    4    5 1  
     5    7    8 2  
     6    5    6 2  
     7    1    2 2  
     8    2    3 1  
     9    3    4 2  
    10    1   11 1  
    11    1   12 1  
    12    2   13 1  
    13    3   14 1  
    14    4   15 1  
    15    5   16 1  
    16    6   17 1  
    17    7   18 1  
    18    8   19 1  
# Name:          frag3-175-9/31924
# Creation time: Sat Jun  5 12:52:06 2010


@<TRIPOS>MOLECULE
frag3-175-9/31924
   19    18     1     1     1
SMALL
USER_CHARGES


@<TRIPOS>ATOM
      1 C38         9.5265    1.4444   -0.7163 C.2        1 <1>        0.000
      2 C39        10.7948    1.7280   -0.3978 C.2        1 <1>        0.000
      3 C41        11.9373    1.3769   -1.2417 C.2        1 <1>        0.000
      4 C42        11.9051    0.4136   -2.1778 C.2        1 <1>        0.000
      5 C43        13.0348    0.0594   -3.0308 C.2        1 <1>        0.000
      6 C44        12.9938   -0.8892   -3.9783 C.2        1 <1>        0.000
      7 C45        14.1335   -1.2376   -4.8356 C.2        1 <1>        0.000
      8 C46        14.8175   -0.3491   -5.5757 C.2        1 <1>        0.000
      9 C47        14.4881    1.0469   -5.5951 C.1        1 <1>        0.000
     10 N4         14.2169    2.1752   -5.6057 N.1        1 <1>        0.000
     11 H           9.3016    0.9248   -1.6477 H.spc      1 <1>        0.000
     12 H           8.7182    1.7330   -0.0443 H.spc      1 <1>        0.000
     13 H          10.9871    2.2484    0.5405 H.spc      1 <1>        0.000
     14 H          12.8674    1.9281   -1.1031 H.spc      1 <1>        0.000
     15 H          10.9748   -0.1391   -2.3085 H.spc      1 <1>        0.000
     16 H          13.9708    0.5996   -2.8891 H.spc      1 <1>        0.000
     17 H          12.0599   -1.4331   -4.1200 H.spc      1 <1>        0.000
     18 H          14.4440   -2.2817   -4.8740 H.spc      1 <1>        0.000
     19 H          15.6517   -0.7013   -6.1825 H.spc      1 <1>        0.000
@<TRIPOS>BOND
     1    9   10 3  
     2    8    9 1  
     3    6    7 1  
     4    4    5 1  
     5    7    8 2  
     6    5    6 2  
     7    1    2 2  
     8    2    3 1  
     9    3    4 2  
    10    1   11 1  
    11    1   12 1  
    12    2   13 1  
    13    3   14 1  
    14    4   15 1  
    15    5   16 1  
    16    6   17 1  
    17    7   18 1  
    18    8   19 1  
# Name:          frag3-175-9/31924
# Creation time: Sat Jun  5 12:52:06 2010


@<TRIPOS>MOLECULE
frag3-175-9/31924
   19    18     1     1     1
SMALL
USER_CHARGES


@<TRIPOS>ATOM
      1 C38        10.0836    1.5816    0.5580 C.2        1 <1>        0.000
      2 C39        10.2807    1.5646   -0.7638 C.2        1 <1>        0.000
      3 C41        11.5389    1.1511   -1.3928 C.2        1 <1>        0.000
      4 C42        11.6198    0.5985   -2.6108 C.2        1 <1>        0.000
      5 C43        12.8750    0.1865   -3.2410 C.2        1 <1>        0.000
      6 C44        12.9720   -0.8152   -4.1274 C.2        1 <1>        0.000
      7 C45        14.2355   -1.2240   -4.7584 C.2        1 <1>        0.000
      8 C46        15.0391   -0.3930   -5.4414 C.2        1 <1>        0.000
      9 C47        14.7292    0.9976   -5.6188 C.1        1 <1>        0.000
     10 N4         14.4747    2.1207   -5.7584 N.1        1 <1>        0.000
     11 H          10.8838    1.2766    1.2323 H.spc      1 <1>        0.000
     12 H           9.1226    1.9004    0.9617 H.spc      1 <1>        0.000
     13 H           9.4601    1.8756   -1.4104 H.spc      1 <1>        0.000
     14 H          12.4639    1.3023   -0.8363 H.spc      1 <1>        0.000
     15 H          10.6943    0.4465   -3.1662 H.spc      1 <1>        0.000
     16 H          13.7841    0.7254   -2.9742 H.spc      1 <1>        0.000
     17 H          12.0642   -1.3560   -4.3948 H.spc      1 <1>        0.000
     18 H          14.5388   -2.2669   -4.6660 H.spc      1 <1>        0.000
     19 H          15.9577   -0.7874   -5.8758 H.spc      1 <1>        0.000
@<TRIPOS>BOND
     1    9   10 3  
     2    8    9 1  
     3    6    7 1  
     4    4    5 1  
     5    7    8 2  
     6    5    6 2  
     7    1    2 2  
     8    2    3 1  
     9    3    4 2  
    10    1   11 1  
    11    1   12 1  
    12    2   13 1  
    13    3   14 1  
    14    4   15 1  
    15    5   16 1  
    16    6   17 1  
    17    7   18 1  
    18    8   19 1  
# Name:          frag3-175-9/31924
# Creation time: Sat Jun  5 12:52:06 2010


@<TRIPOS>MOLECULE
frag3-175-9/31924
   19    18     1     1     1
SMALL
USER_CHARGES


@<TRIPOS>ATOM
      1 C38         9.6114    1.6352   -0.2851 C.2        1 <1>        0.000
      2 C39        10.9012    1.2891   -0.2132 C.2        1 <1>        0.000
      3 C41        11.6095    0.5831   -1.2783 C.2        1 <1>        0.000
      4 C42        11.7184    1.0419   -2.5381 C.2        1 <1>        0.000
      5 C43        12.4278    0.3405   -3.6018 C.2        1 <1>        0.000
      6 C44        13.5326   -0.4000   -3.3985 C.2        1 <1>        0.000
      7 C45        14.2463   -1.1116   -4.4634 C.2        1 <1>        0.000
      8 C46        14.7259   -0.5219   -5.5715 C.2        1 <1>        0.000
      9 C47        14.5933    0.8860   -5.8091 C.1        1 <1>        0.000
     10 N4         14.4819    2.0262   -5.9958 N.1        1 <1>        0.000
     11 H           9.0303    1.3909   -1.1743 H.spc      1 <1>        0.000
     12 H           9.1412    2.1616    0.5455 H.spc      1 <1>        0.000
     13 H          11.4544    1.5480    0.6896 H.spc      1 <1>        0.000
     14 H          12.0772   -0.3716   -1.0379 H.spc      1 <1>        0.000
     15 H          11.2481    1.9954   -2.7784 H.spc      1 <1>        0.000
     16 H          12.0416    0.4206   -4.6179 H.spc      1 <1>        0.000
     17 H          13.9198   -0.4753   -2.3824 H.spc      1 <1>        0.000
     18 H          14.3971   -2.1851   -4.3492 H.spc      1 <1>        0.000
     19 H          15.2336   -1.1353   -6.3159 H.spc      1 <1>        0.000
@<TRIPOS>BOND
     1    9   10 3  
     2    8    9 1  
     3    6    7 1  
     4    4    5 1  
     5    7    8 2  
     6    5    6 2  
     7    1    2 2  
     8    2    3 1  
     9    3    4 2  
    10    1   11 1  
    11    1   12 1  
    12    2   13 1  
    13    3   14 1  
    14    4   15 1  
    15    5   16 1  
    16    6   17 1  
    17    7   18 1  
    18    8   19 1  
# Name:          frag3-175-9/31924
# Creation time: Sat Jun  5 12:52:06 2010


@<TRIPOS>MOLECULE
frag3-175-9/31924
   19    18     1     1     1
SMALL
USER_CHARGES


@<TRIPOS>ATOM
      1 C38        10.2970    2.0622    0.0111 C.2        1 <1>        0.000
      2 C39        10.0756    0.9994   -0.7709 C.2        1 <1>        0.000
      3 C41        11.1101    0.3658   -1.5844 C.2        1 <1>        0.000
      4 C42        12.1768    1.0194   -2.0814 C.2        1 <1>        0.000
      5 C43        13.2149    0.3908   -2.8886 C.2        1 <1>        0.000
      6 C44        12.9628   -0.4940   -3.8697 C.2        1 <1>        0.000
      7 C45        14.0030   -1.1295   -4.6843 C.2        1 <1>        0.000
      8 C46        14.7829   -0.4706   -5.5574 C.2        1 <1>        0.000
      9 C47        14.6634    0.9409   -5.7780 C.1        1 <1>        0.000
     10 N4         14.5619    2.0842   -5.9511 N.1        1 <1>        0.000
     11 H          11.2932    2.5013    0.0648 H.spc      1 <1>        0.000
     12 H           9.4812    2.4890    0.5945 H.spc      1 <1>        0.000
     13 H           9.0685    0.5838   -0.8026 H.spc      1 <1>        0.000
     14 H          11.0127   -0.6979   -1.8016 H.spc      1 <1>        0.000
     15 H          12.2699    2.0840   -1.8670 H.spc      1 <1>        0.000
     16 H          14.2535    0.6523   -2.6859 H.spc      1 <1>        0.000
     17 H          11.9236   -0.7540   -4.0711 H.spc      1 <1>        0.000
     18 H          14.1529   -2.2036   -4.5747 H.spc      1 <1>        0.000
     19 H          15.5329   -1.0288   -6.1178 H.spc      1 <1>        0.000
@<TRIPOS>BOND
     1    9   10 3  
     2    8    9 1  
     3    6    7 1  
     4    4    5 1  
     5    7    8 2  
     6    5    6 2  
     7    1    2 2  
     8    2    3 1  
     9    3    4 2  
    10    1   11 1  
    11    1   12 1  
    12    2   13 1  
    13    3   14 1  
    14    4   15 1  
    15    5   16 1  
    16    6   17 1  
    17    7   18 1  
    18    8   19 1  
# Name:          frag3-175-9/31924 -- energy: -1.443855
# Creation time: Sat Jun  5 12:52:06 2010


@<TRIPOS>MOLECULE
frag3-175-9/31924 -- energy: -1.443855
   19    18     1     1     1
SMALL
USER_CHARGES


@<TRIPOS>ATOM
      1 C38         9.2954    1.3518    0.4780 C.2        1 <1>        0.000
      2 C39        10.3549    1.6254   -0.2894 C.2        1 <1>        0.000
      3 C41        11.0714    0.6157   -1.0757 C.2        1 <1>        0.000
      4 C42        11.9617    0.9075   -2.0333 C.2        1 <1>        0.000
      5 C43        12.6814   -0.0995   -2.8166 C.2        1 <1>        0.000
      6 C44        13.3712    0.1757   -3.9309 C.2        1 <1>        0.000
      7 C45        14.0941   -0.8385   -4.7130 C.2        1 <1>        0.000
      8 C46        14.8435   -0.5730   -5.7918 C.2        1 <1>        0.000
      9 C47        15.0183    0.7617   -6.2912 C.1        1 <1>        0.000
     10 N4         15.1564    1.8418   -6.6910 N.1        1 <1>        0.000
     11 H           8.9192    0.3309    0.5438 H.spc      1 <1>        0.000
     12 H           8.8075    2.1496    1.0381 H.spc      1 <1>        0.000
     13 H          10.7060    2.6564   -0.3333 H.spc      1 <1>        0.000
     14 H          10.8673   -0.4348   -0.8686 H.spc      1 <1>        0.000
     15 H          12.1627    1.9582   -2.2423 H.spc      1 <1>        0.000
     16 H          12.6539   -1.1333   -2.4723 H.spc      1 <1>        0.000
     17 H          13.3984    1.2088   -4.2775 H.spc      1 <1>        0.000
     18 H          14.0149   -1.8775   -4.3932 H.spc      1 <1>        0.000
     19 H          15.3365   -1.3974   -6.3070 H.spc      1 <1>        0.000
@<TRIPOS>BOND
     1    9   10 3  
     2    8    9 1  
     3    6    7 1  
     4    4    5 1  
     5    7    8 2  
     6    5    6 2  
     7    1    2 2  
     8    2    3 1  
     9    3    4 2  
    10    1   11 1  
    11    1   12 1  
    12    2   13 1  
    13    3   14 1  
    14    4   15 1  
    15    5   16 1  
    16    6   17 1  
    17    7   18 1  
    18    8   19 1  
# Name:          frag3-175-9/31924 -- energy: -1.667881
# Creation time: Sat Jun  5 12:52:06 2010


@<TRIPOS>MOLECULE
frag3-175-9/31924 -- energy: -1.667881
   19    18     1     1     1
SMALL
USER_CHARGES


@<TRIPOS>ATOM
      1 C38         9.4143    1.9328   -0.1531 C.2        1 <1>        0.000
      2 C39        10.6524    1.4918   -0.3956 C.2        1 <1>        0.000
      3 C41        11.0776    0.9296   -1.6819 C.2        1 <1>        0.000
      4 C42        12.3129    0.4720   -1.9258 C.2        1 <1>        0.000
      5 C43        12.7374   -0.0957   -3.2075 C.2        1 <1>        0.000
      6 C44        13.9698   -0.5678   -3.4424 C.2        1 <1>        0.000
      7 C45        14.3900   -1.1391   -4.7307 C.2        1 <1>        0.000
      8 C46        14.5899   -0.4193   -5.8456 C.2        1 <1>        0.000
      9 C47        14.4210    1.0063   -5.8761 C.1        1 <1>        0.000
     10 N4         14.2829    2.1578   -5.8962 N.1        1 <1>        0.000
     11 H           8.6560    1.8853   -0.9347 H.spc      1 <1>        0.000
     12 H           9.1628    2.3399    0.8262 H.spc      1 <1>        0.000
     13 H          11.3871    1.5533    0.4072 H.spc      1 <1>        0.000
     14 H          10.3448    0.8812   -2.4874 H.spc      1 <1>        0.000
     15 H          13.0466    0.5254   -1.1215 H.spc      1 <1>        0.000
     16 H          12.0089   -0.1367   -4.0173 H.spc      1 <1>        0.000
     17 H          14.7003   -0.5260   -2.6345 H.spc      1 <1>        0.000
     18 H          14.5493   -2.2161   -4.7834 H.spc      1 <1>        0.000
     19 H          14.8904   -0.9339   -6.7582 H.spc      1 <1>        0.000
@<TRIPOS>BOND
     1    9   10 3  
     2    8    9 1  
     3    6    7 1  
     4    4    5 1  
     5    7    8 2  
     6    5    6 2  
     7    1    2 2  
     8    2    3 1  
     9    3    4 2  
    10    1   11 1  
    11    1   12 1  
    12    2   13 1  
    13    3   14 1  
    14    4   15 1  
    15    5   16 1  
    16    6   17 1  
    17    7   18 1  
    18    8   19 1  
# Name:          frag3-175-9/31924 -- energy: -1.398157
# Creation time: Sat Jun  5 12:52:06 2010


@<TRIPOS>MOLECULE
frag3-175-9/31924 -- energy: -1.398157
   19    18     1     1     1
SMALL
USER_CHARGES


@<TRIPOS>ATOM
      1 C38        10.1750    2.7085   -0.6382 C.2        1 <1>        0.000
      2 C39        10.4920    1.4125   -0.6995 C.2        1 <1>        0.000
      3 C41        11.4954    0.8603   -1.6062 C.2        1 <1>        0.000
      4 C42        11.7538   -0.4499   -1.7412 C.2        1 <1>        0.000
      5 C43        12.7523   -0.9953   -2.6554 C.2        1 <1>        0.000
      6 C44        13.2582   -0.3147   -3.6970 C.2        1 <1>        0.000
      7 C45        14.2649   -0.8537   -4.6163 C.2        1 <1>        0.000
      8 C46        14.8463   -0.1559   -5.6021 C.2        1 <1>        0.000
      9 C47        14.5340    1.2210   -5.8516 C.1        1 <1>        0.000
     10 N4         14.2764    2.3357   -6.0474 N.1        1 <1>        0.000
     11 H          10.6764    3.4237   -1.2903 H.spc      1 <1>        0.000
     12 H           9.4149    3.0510    0.0639 H.spc      1 <1>        0.000
     13 H           9.9706    0.7256   -0.0329 H.spc      1 <1>        0.000
     14 H          12.0723    1.5582   -2.2131 H.spc      1 <1>        0.000
     15 H          11.1829   -1.1495   -1.1306 H.spc      1 <1>        0.000
     16 H          13.1072   -2.0114   -2.4833 H.spc      1 <1>        0.000
     17 H          12.8985    0.6997   -3.8692 H.spc      1 <1>        0.000
     18 H          14.5614   -1.8949   -4.4893 H.spc      1 <1>        0.000
     19 H          15.5815   -0.6521   -6.2356 H.spc      1 <1>        0.000
@<TRIPOS>BOND
     1    9   10 3  
     2    8    9 1  
     3    6    7 1  
     4    4    5 1  
     5    7    8 2  
     6    5    6 2  
     7    1    2 2  
     8    2    3 1  
     9    3    4 2  
    10    1   11 1  
    11    1   12 1  
    12    2   13 1  
    13    3   14 1  
    14    4   15 1  
    15    5   16 1  
    16    6   17 1  
    17    7   18 1  
    18    8   19 1  
# Name:          frag3-175-9/31924 -- energy: -1.557273
# Creation time: Sat Jun  5 12:52:06 2010


@<TRIPOS>MOLECULE
frag3-175-9/31924 -- energy: -1.557273
   19    18     1     1     1
SMALL
USER_CHARGES


@<TRIPOS>ATOM
      1 C38        10.4342    2.1505    0.4961 C.2        1 <1>        0.000
      2 C39        10.2728    1.4971   -0.6582 C.2        1 <1>        0.000
      3 C41        11.3436    0.7561   -1.3303 C.2        1 <1>        0.000
      4 C42        11.1786    0.0684   -2.4694 C.2        1 <1>        0.000
      5 C43        12.2522   -0.6628   -3.1433 C.2        1 <1>        0.000
      6 C44        13.2636   -0.0661   -3.7914 C.2        1 <1>        0.000
      7 C45        14.3465   -0.7987   -4.4623 C.2        1 <1>        0.000
      8 C46        15.0953   -0.3032   -5.4575 C.2        1 <1>        0.000
      9 C47        14.9082    1.0259   -5.9660 C.1        1 <1>        0.000
     10 N4         14.7532    2.1013   -6.3725 N.1        1 <1>        0.000
     11 H          11.4055    2.1512    0.9907 H.spc      1 <1>        0.000
     12 H           9.5946    2.6828    0.9431 H.spc      1 <1>        0.000
     13 H           9.2887    1.5164   -1.1265 H.spc      1 <1>        0.000
     14 H          12.3346    0.7645   -0.8765 H.spc      1 <1>        0.000
     15 H          10.1862    0.0531   -2.9201 H.spc      1 <1>        0.000
     16 H          12.2287   -1.7522   -3.1171 H.spc      1 <1>        0.000
     17 H          13.2834    1.0233   -3.8222 H.spc      1 <1>        0.000
     18 H          14.5551   -1.8149   -4.1276 H.spc      1 <1>        0.000
     19 H          15.8720   -0.9304   -5.8951 H.spc      1 <1>        0.000
@<TRIPOS>BOND
     1    9   10 3  
     2    8    9 1  
     3    6    7 1  
     4    4    5 1  
     5    7    8 2  
     6    5    6 2  
     7    1    2 2  
     8    2    3 1  
     9    3    4 2  
    10    1   11 1  
    11    1   12 1  
    12    2   13 1  
    13    3   14 1  
    14    4   15 1  
    15    5   16 1  
    16    6   17 1  
    17    7   18 1  
    18    8   19 1  
# Name:          frag3-175-9/31924 -- energy: -1.723339
# Creation time: Sat Jun  5 12:52:06 2010


@<TRIPOS>MOLECULE
frag3-175-9/31924 -- energy: -1.723339
   19    18     1     1     1
SMALL
USER_CHARGES


@<TRIPOS>ATOM
      1 C38         9.9863    2.4601   -0.2047 C.2        1 <1>        0.000
      2 C39        10.3916    1.2927   -0.7135 C.2        1 <1>        0.000
      3 C41        11.5739    1.1443   -1.5674 C.2        1 <1>        0.000
      4 C42        11.9169    0.0028   -2.1794 C.2        1 <1>        0.000
      5 C43        13.0917   -0.1447   -3.0392 C.2        1 <1>        0.000
      6 C44        13.1857   -1.0463   -4.0277 C.2        1 <1>        0.000
      7 C45        14.3662   -1.1857   -4.8927 C.2        1 <1>        0.000
      8 C46        14.9274   -0.1712   -5.5701 C.2        1 <1>        0.000
      9 C47        14.4137    1.1680   -5.5076 C.1        1 <1>        0.000
     10 N4         13.9950    2.2485   -5.4526 N.1        1 <1>        0.000
     11 H          10.5452    3.3712   -0.4184 H.spc      1 <1>        0.000
     12 H           9.0969    2.5012    0.4240 H.spc      1 <1>        0.000
     13 H           9.8103    0.4006   -0.4804 H.spc      1 <1>        0.000
     14 H          12.2127    2.0154   -1.7133 H.spc      1 <1>        0.000
     15 H          11.2816   -0.8698   -2.0274 H.spc      1 <1>        0.000
     16 H          13.9403    0.5171   -2.8661 H.spc      1 <1>        0.000
     17 H          12.3402   -1.7124   -4.1992 H.spc      1 <1>        0.000
     18 H          14.8140   -2.1747   -4.9903 H.spc      1 <1>        0.000
     19 H          15.8026   -0.3712   -6.1883 H.spc      1 <1>        0.000
@<TRIPOS>BOND
     1    9   10 3  
     2    8    9 1  
     3    6    7 1  
     4    4    5 1  
     5    7    8 2  
     6    5    6 2  
     7    1    2 2  
     8    2    3 1  
     9    3    4 2  
    10    1   11 1  
    11    1   12 1  
    12    2   13 1  
    13    3   14 1  
    14    4   15 1  
    15    5   16 1  
    16    6   17 1  
    17    7   18 1  
    18    8   19 1  
# Name:          frag3-175-9/31924 -- energy: -1.615832
# Creation time: Sat Jun  5 12:52:06 2010


@<TRIPOS>MOLECULE
frag3-175-9/31924 -- energy: -1.615832
   19    18     1     1     1
SMALL
USER_CHARGES


@<TRIPOS>ATOM
      1 C38        10.1093    1.5265    0.3325 C.2        1 <1>        0.000
      2 C39        10.1955    1.7859   -0.9772 C.2        1 <1>        0.000
      3 C41        10.9536    0.9603   -1.9160 C.2        1 <1>        0.000
      4 C42        12.0982    0.3281   -1.5995 C.2        1 <1>        0.000
      5 C43        12.8557   -0.5016   -2.5308 C.2        1 <1>        0.000
      6 C44        13.3032   -0.0684   -3.7197 C.2        1 <1>        0.000
      7 C45        14.0635   -0.8994   -4.6599 C.2        1 <1>        0.000
      8 C46        14.7268   -0.4290   -5.7256 C.2        1 <1>        0.000
      9 C47        14.7600    0.9672   -6.0507 C.1        1 <1>        0.000
     10 N4         14.7827    2.0988   -6.3080 N.1        1 <1>        0.000
     11 H          10.6211    0.6600    0.7513 H.spc      1 <1>        0.000
     12 H           9.5273    2.1816    0.9807 H.spc      1 <1>        0.000
     13 H           9.6723    2.6599   -1.3652 H.spc      1 <1>        0.000
     14 H          10.5695    0.8508   -2.9302 H.spc      1 <1>        0.000
     15 H          12.4830    0.4426   -0.5861 H.spc      1 <1>        0.000
     16 H          13.0702   -1.5313   -2.2447 H.spc      1 <1>        0.000
     17 H          13.0891    0.9620   -4.0036 H.spc      1 <1>        0.000
     18 H          14.0909   -1.9740   -4.4793 H.spc      1 <1>        0.000
     19 H          15.2590   -1.1317   -6.3668 H.spc      1 <1>        0.000
@<TRIPOS>BOND
     1    9   10 3  
     2    8    9 1  
     3    6    7 1  
     4    4    5 1  
     5    7    8 2  
     6    5    6 2  
     7    1    2 2  
     8    2    3 1  
     9    3    4 2  
    10    1   11 1  
    11    1   12 1  
    12    2   13 1  
    13    3   14 1  
    14    4   15 1  
    15    5   16 1  
    16    6   17 1  
    17    7   18 1  
    18    8   19 1  
# Name:          frag3-175-9/31924 -- energy: -1.776480
# Creation time: Sat Jun  5 12:52:06 2010


@<TRIPOS>MOLECULE
frag3-175-9/31924 -- energy: -1.776480
   19    18     1     1     1
SMALL
USER_CHARGES


@<TRIPOS>ATOM
      1 C38        10.7620    2.0677    0.1431 C.2        1 <1>        0.000
      2 C39        10.1469    1.4101   -0.8461 C.2        1 <1>        0.000
      3 C41        10.8137    1.0086   -2.0867 C.2        1 <1>        0.000
      4 C42        11.9688    0.3254   -2.1243 C.2        1 <1>        0.000
      5 C43        12.6402   -0.0823   -3.3566 C.2        1 <1>        0.000
      6 C44        13.8054   -0.7457   -3.3916 C.2        1 <1>        0.000
      7 C45        14.4740   -1.1547   -4.6341 C.2        1 <1>        0.000
      8 C46        14.7363   -0.3236   -5.6563 C.2        1 <1>        0.000
      9 C47        14.3914    1.0690   -5.6190 C.1        1 <1>        0.000
     10 N4         14.1097    2.1940   -5.5832 N.1        1 <1>        0.000
     11 H          11.8152    2.3324    0.0492 H.spc      1 <1>        0.000
     12 H          10.2100    2.3389    1.0430 H.spc      1 <1>        0.000
     13 H           9.0933    1.1597   -0.7222 H.spc      1 <1>        0.000
     14 H          10.3457    1.2798   -3.0330 H.spc      1 <1>        0.000
     15 H          12.4351    0.0580   -1.1761 H.spc      1 <1>        0.000
     16 H          12.1651    0.1680   -4.3051 H.spc      1 <1>        0.000
     17 H          14.2834   -0.9955   -2.4444 H.spc      1 <1>        0.000
     18 H          14.7760   -2.1974   -4.7327 H.spc      1 <1>        0.000
     19 H          15.2279   -0.7205   -6.5445 H.spc      1 <1>        0.000
@<TRIPOS>BOND
     1    9   10 3  
     2    8    9 1  
     3    6    7 1  
     4    4    5 1  
     5    7    8 2  
     6    5    6 2  
     7    1    2 2  
     8    2    3 1  
     9    3    4 2  
    10    1   11 1  
    11    1   12 1  
    12    2   13 1  
    13    3   14 1  
    14    4   15 1  
    15    5   16 1  
    16    6   17 1  
    17    7   18 1  
    18    8   19 1  
# Name:          frag3-175-9/31924 -- energy: -1.792136
# Creation time: Sat Jun  5 12:52:06 2010


@<TRIPOS>MOLECULE
frag3-175-9/31924 -- energy: -1.792136
   19    18     1     1     1
SMALL
USER_CHARGES


@<TRIPOS>ATOM
      1 C38        10.7373    1.9723    0.4112 C.2        1 <1>        0.000
      2 C39        10.4623    1.4083   -0.7680 C.2        1 <1>        0.000
      3 C41        11.4826    0.9416   -1.7058 C.2        1 <1>        0.000
      4 C42        11.2139    0.3529   -2.8813 C.2        1 <1>        0.000
      5 C43        12.2370   -0.1078   -3.8157 C.2        1 <1>        0.000
      6 C44        13.4234   -0.6111   -3.4309 C.2        1 <1>        0.000
      7 C45        14.4549   -1.0740   -4.3661 C.2        1 <1>        0.000
      8 C46        14.9832   -0.3144   -5.3401 C.2        1 <1>        0.000
      9 C47        14.5887    1.0491   -5.5475 C.1        1 <1>        0.000
     10 N4         14.2651    2.1516   -5.7105 N.1        1 <1>        0.000
     11 H          11.7732    2.1071    0.7225 H.spc      1 <1>        0.000
     12 H           9.9258    2.2978    1.0621 H.spc      1 <1>        0.000
     13 H           9.4156    1.2889   -1.0477 H.spc      1 <1>        0.000
     14 H          12.5285    1.0809   -1.4324 H.spc      1 <1>        0.000
     15 H          10.1686    0.2099   -3.1552 H.spc      1 <1>        0.000
     16 H          12.0278   -0.0401   -4.8833 H.spc      1 <1>        0.000
     17 H          13.6305   -0.6790   -2.3629 H.spc      1 <1>        0.000
     18 H          14.8149   -2.0978   -4.2642 H.spc      1 <1>        0.000
     19 H          15.7378   -0.7492   -5.9955 H.spc      1 <1>        0.000
@<TRIPOS>BOND
     1    9   10 3  
     2    8    9 1  
     3    6    7 1  
     4    4    5 1  
     5    7    8 2  
     6    5    6 2  
     7    1    2 2  
     8    2    3 1  
     9    3    4 2  
    10    1   11 1  
    11    1   12 1  
    12    2   13 1  
    13    3   14 1  
    14    4   15 1  
    15    5   16 1  
    16    6   17 1  
    17    7   18 1  
    18    8   19 1  
# Name:          frag3-175-9/31924 -- energy: -1.265193
# Creation time: Sat Jun  5 12:52:07 2010


@<TRIPOS>MOLECULE
frag3-175-9/31924 -- energy: -1.265193
   19    18     1     1     1
SMALL
USER_CHARGES


@<TRIPOS>ATOM
      1 C38        10.4614    2.2905    0.0527 C.2        1 <1>        0.000
      2 C39         9.9441    1.1660   -0.4557 C.2        1 <1>        0.000
      3 C41        10.6852    0.2612   -1.3342 C.2        1 <1>        0.000
      4 C42        11.8597    0.5736   -1.9079 C.2        1 <1>        0.000
      5 C43        12.6113   -0.3216   -2.7815 C.2        1 <1>        0.000
      6 C44        13.4746    0.0918   -3.7181 C.2        1 <1>        0.000
      7 C45        14.2272   -0.8129   -4.5953 C.2        1 <1>        0.000
      8 C46        14.8583   -0.4347   -5.7158 C.2        1 <1>        0.000
      9 C47        14.8629    0.9258   -6.1690 C.1        1 <1>        0.000
     10 N4         14.8635    2.0289   -6.5298 N.1        1 <1>        0.000
     11 H          11.4874    2.5735   -0.1827 H.spc      1 <1>        0.000
     12 H           9.8568    2.9235    0.7022 H.spc      1 <1>        0.000
     13 H           8.9154    0.9106   -0.2016 H.spc      1 <1>        0.000
     14 H          10.2607   -0.7225   -1.5350 H.spc      1 <1>        0.000
     15 H          12.2781    1.5599   -1.7076 H.spc      1 <1>        0.000
     16 H          12.4605   -1.3947   -2.6643 H.spc      1 <1>        0.000
     17 H          13.6276    1.1645   -3.8361 H.spc      1 <1>        0.000
     18 H          14.2763   -1.8654   -4.3162 H.spc      1 <1>        0.000
     19 H          15.3859   -1.1868   -6.3024 H.spc      1 <1>        0.000
@<TRIPOS>BOND
     1    9   10 3  
     2    8    9 1  
     3    6    7 1  
     4    4    5 1  
     5    7    8 2  
     6    5    6 2  
     7    1    2 2  
     8    2    3 1  
     9    3    4 2  
    10    1   11 1  
    11    1   12 1  
    12    2   13 1  
    13    3   14 1  
    14    4   15 1  
    15    5   16 1  
    16    6   17 1  
    17    7   18 1  
    18    8   19 1  
# Name:          frag3-175-9/31924 -- energy: -1.708226
# Creation time: Sat Jun  5 12:52:07 2010


@<TRIPOS>MOLECULE
frag3-175-9/31924 -- energy: -1.708226
   19    18     1     1     1
SMALL
USER_CHARGES


@<TRIPOS>ATOM
      1 C38         9.5279    1.5638   -0.5545 C.2        1 <1>        0.000
      2 C39        10.8065    1.9423   -0.6610 C.2        1 <1>        0.000
      3 C41        11.7735    1.2849   -1.5375 C.2        1 <1>        0.000
      4 C42        11.8728   -0.0500   -1.6743 C.2        1 <1>        0.000
      5 C43        12.8276   -0.7103   -2.5581 C.2        1 <1>        0.000
      6 C44        13.0979   -0.2944   -3.8060 C.2        1 <1>        0.000
      7 C45        14.0627   -0.9489   -4.6957 C.2        1 <1>        0.000
      8 C46        14.7570   -0.3222   -5.6563 C.2        1 <1>        0.000
      9 C47        14.6195    1.0827   -5.9067 C.1        1 <1>        0.000
     10 N4         14.5030    2.2205   -6.1047 N.1        1 <1>        0.000
     11 H           9.1579    0.7227   -1.1408 H.spc      1 <1>        0.000
     12 H           8.8561    2.0965    0.1185 H.spc      1 <1>        0.000
     13 H          11.1455    2.7870   -0.0614 H.spc      1 <1>        0.000
     14 H          12.4536    1.9122   -2.1138 H.spc      1 <1>        0.000
     15 H          11.1990   -0.6761   -1.0893 H.spc      1 <1>        0.000
     16 H          13.3508   -1.5905   -2.1845 H.spc      1 <1>        0.000
     17 H          12.5686    0.5820   -4.1800 H.spc      1 <1>        0.000
     18 H          14.2267   -2.0188   -4.5671 H.spc      1 <1>        0.000
     19 H          15.4496   -0.9006   -6.2677 H.spc      1 <1>        0.000
@<TRIPOS>BOND
     1    9   10 3  
     2    8    9 1  
     3    6    7 1  
     4    4    5 1  
     5    7    8 2  
     6    5    6 2  
     7    1    2 2  
     8    2    3 1  
     9    3    4 2  
    10    1   11 1  
    11    1   12 1  
    12    2   13 1  
    13    3   14 1  
    14    4   15 1  
    15    5   16 1  
    16    6   17 1  
    17    7   18 1  
    18    8   19 1  
# Name:          frag3-175-9/31924 -- energy: -1.502386
# Creation time: Sat Jun  5 12:52:07 2010


@<TRIPOS>MOLECULE
frag3-175-9/31924 -- energy: -1.502386
   19    18     1     1     1
SMALL
USER_CHARGES


@<TRIPOS>ATOM
      1 C38         9.3928    2.1688   -0.5447 C.2        1 <1>        0.000
      2 C39        10.4919    1.4285   -0.3718 C.2        1 <1>        0.000
      3 C41        11.0891    0.6018   -1.4243 C.2        1 <1>        0.000
      4 C42        12.3903    0.2839   -1.4790 C.2        1 <1>        0.000
      5 C43        12.9861   -0.5419   -2.5302 C.2        1 <1>        0.000
      6 C44        13.5036   -0.0455   -3.6628 C.2        1 <1>        0.000
      7 C45        14.0995   -0.8755   -4.7192 C.2        1 <1>        0.000
      8 C46        14.6127   -0.3979   -5.8614 C.2        1 <1>        0.000
      9 C47        14.6340    1.0054   -6.1619 C.1        1 <1>        0.000
     10 N4         14.6484    2.1409   -6.3994 N.1        1 <1>        0.000
     11 H           8.8893    2.1793   -1.5114 H.spc      1 <1>        0.000
     12 H           8.9998    2.7621    0.2810 H.spc      1 <1>        0.000
     13 H          10.9712    1.4402    0.6071 H.spc      1 <1>        0.000
     14 H          10.4358    0.2225   -2.2101 H.spc      1 <1>        0.000
     15 H          13.0438    0.6632   -0.6934 H.spc      1 <1>        0.000
     16 H          13.0104   -1.6218   -2.3839 H.spc      1 <1>        0.000
     17 H          13.4812    1.0345   -3.8084 H.spc      1 <1>        0.000
     18 H          14.1259   -1.9539   -4.5629 H.spc      1 <1>        0.000
     19 H          15.0277   -1.0984   -6.5862 H.spc      1 <1>        0.000
@<TRIPOS>BOND
     1    9   10 3  
     2    8    9 1  
     3    6    7 1  
     4    4    5 1  
     5    7    8 2  
     6    5    6 2  
     7    1    2 2  
     8    2    3 1  
     9    3    4 2  
    10    1   11 1  
    11    1   12 1  
    12    2   13 1  
    13    3   14 1  
    14    4   15 1  
    15    5   16 1  
    16    6   17 1  
    17    7   18 1  
    18    8   19 1  
# Name:          frag3-175-9/31924 -- energy: -1.799422
# Creation time: Sat Jun  5 12:52:07 2010


@<TRIPOS>MOLECULE
frag3-175-9/31924 -- energy: -1.799422
   19    18     1     1     1
SMALL
USER_CHARGES


@<TRIPOS>ATOM
      1 C38        10.3077    1.1704    0.6702 C.2        1 <1>        0.000
      2 C39        10.4074    1.4984   -0.6212 C.2        1 <1>        0.000
      3 C41        11.1601    0.7165   -1.6036 C.2        1 <1>        0.000
      4 C42        11.6276    1.2119   -2.7593 C.2        1 <1>        0.000
      5 C43        12.3887    0.4306   -3.7323 C.2        1 <1>        0.000
      6 C44        13.4610   -0.3138   -3.4122 C.2        1 <1>        0.000
      7 C45        14.2232   -1.1051   -4.3866 C.2        1 <1>        0.000
      8 C46        14.8102   -0.5907   -5.4797 C.2        1 <1>        0.000
      9 C47        14.7554    0.8089   -5.7914 C.1        1 <1>        0.000
     10 N4         14.7071    1.9415   -6.0388 N.1        1 <1>        0.000
     11 H          10.8038    0.2751    1.0450 H.spc      1 <1>        0.000
     12 H           9.7303    1.7981    1.3489 H.spc      1 <1>        0.000
     13 H           9.8990    2.4000   -0.9629 H.spc      1 <1>        0.000
     14 H          11.3526   -0.3333   -1.3823 H.spc      1 <1>        0.000
     15 H          11.4280    2.2592   -2.9862 H.spc      1 <1>        0.000
     16 H          12.0693    0.4529   -4.7742 H.spc      1 <1>        0.000
     17 H          13.7829   -0.3311   -2.3710 H.spc      1 <1>        0.000
     18 H          14.3185   -2.1768   -4.2119 H.spc      1 <1>        0.000
     19 H          15.3466   -1.2593   -6.1531 H.spc      1 <1>        0.000
@<TRIPOS>BOND
     1    9   10 3  
     2    8    9 1  
     3    6    7 1  
     4    4    5 1  
     5    7    8 2  
     6    5    6 2  
     7    1    2 2  
     8    2    3 1  
     9    3    4 2  
    10    1   11 1  
    11    1   12 1  
    12    2   13 1  
    13    3   14 1  
    14    4   15 1  
    15    5   16 1  
    16    6   17 1  
    17    7   18 1  
    18    8   19 1  
# Name:          frag3-175-9/31924 -- energy: -1.727682
# Creation time: Sat Jun  5 12:52:07 2010


@<TRIPOS>MOLECULE
frag3-175-9/31924 -- energy: -1.727682
   19    18     1     1     1
SMALL
USER_CHARGES


@<TRIPOS>ATOM
      1 C38         9.2818    1.1995   -0.3072 C.2        1 <1>        0.000
      2 C39        10.5653    1.4877   -0.5394 C.2        1 <1>        0.000
      3 C41        11.4085    0.7511   -1.4798 C.2        1 <1>        0.000
      4 C42        12.5998    1.1824   -1.9222 C.2        1 <1>        0.000
      5 C43        13.4391    0.4408   -2.8594 C.2        1 <1>        0.000
      6 C44        12.9522   -0.4041   -3.7855 C.2        1 <1>        0.000
      7 C45        13.7910   -1.1507   -4.7296 C.2        1 <1>        0.000
      8 C46        14.5503   -0.5778   -5.6779 C.2        1 <1>        0.000
      9 C47        14.6085    0.8441   -5.8571 C.1        1 <1>        0.000
     10 N4         14.6517    1.9954   -5.9967 N.1        1 <1>        0.000
     11 H           8.8051    0.3726   -0.8335 H.spc      1 <1>        0.000
     12 H           8.7112    1.7913    0.4086 H.spc      1 <1>        0.000
     13 H          11.0103    2.3211    0.0042 H.spc      1 <1>        0.000
     14 H          11.0463   -0.2099   -1.8449 H.spc      1 <1>        0.000
     15 H          12.9629    2.1443   -1.5602 H.spc      1 <1>        0.000
     16 H          14.5189    0.5796   -2.8054 H.spc      1 <1>        0.000
     17 H          11.8722   -0.5421   -3.8377 H.spc      1 <1>        0.000
     18 H          13.7985   -2.2382   -4.6569 H.spc      1 <1>        0.000
     19 H          15.1428   -1.2155   -6.3340 H.spc      1 <1>        0.000
@<TRIPOS>BOND
     1    9   10 3  
     2    8    9 1  
     3    6    7 1  
     4    4    5 1  
     5    7    8 2  
     6    5    6 2  
     7    1    2 2  
     8    2    3 1  
     9    3    4 2  
    10    1   11 1  
    11    1   12 1  
    12    2   13 1  
    13    3   14 1  
    14    4   15 1  
    15    5   16 1  
    16    6   17 1  
    17    7   18 1  
    18    8   19 1  
# Name:          frag3-175-9/31924 -- energy: -1.641793
# Creation time: Sat Jun  5 12:52:07 2010


@<TRIPOS>MOLECULE
frag3-175-9/31924 -- energy: -1.641793
   19    18     1     1     1
SMALL
USER_CHARGES


@<TRIPOS>ATOM
      1 C38         9.5265    1.4444   -0.7163 C.2        1 <1>        0.000
      2 C39        10.7948    1.7280   -0.3978 C.2        1 <1>        0.000
      3 C41        11.9373    1.3769   -1.2417 C.2        1 <1>        0.000
      4 C42        11.9051    0.4136   -2.1778 C.2        1 <1>        0.000
      5 C43        13.0348    0.0594   -3.0308 C.2        1 <1>        0.000
      6 C44        12.9938   -0.8892   -3.9783 C.2        1 <1>        0.000
      7 C45        14.1335   -1.2376   -4.8356 C.2        1 <1>        0.000
      8 C46        14.8175   -0.3491   -5.5757 C.2        1 <1>        0.000
      9 C47        14.4881    1.0469   -5.5951 C.1        1 <1>        0.000
     10 N4         14.2169    2.1752   -5.6057 N.1        1 <1>        0.000
     11 H           9.3016    0.9248   -1.6477 H.spc      1 <1>        0.000
     12 H           8.7182    1.7330   -0.0443 H.spc      1 <1>        0.000
     13 H          10.9871    2.2484    0.5405 H.spc      1 <1>        0.000
     14 H          12.8674    1.9281   -1.1031 H.spc      1 <1>        0.000
     15 H          10.9748   -0.1391   -2.3085 H.spc      1 <1>        0.000
     16 H          13.9708    0.5996   -2.8891 H.spc      1 <1>        0.000
     17 H          12.0599   -1.4331   -4.1200 H.spc      1 <1>        0.000
     18 H          14.4440   -2.2817   -4.8740 H.spc      1 <1>        0.000
     19 H          15.6517   -0.7013   -6.1825 H.spc      1 <1>        0.000
@<TRIPOS>BOND
     1    9   10 3  
     2    8    9 1  
     3    6    7 1  
     4    4    5 1  
     5    7    8 2  
     6    5    6 2  
     7    1    2 2  
     8    2    3 1  
     9    3    4 2  
    10    1   11 1  
    11    1   12 1  
    12    2   13 1  
    13    3   14 1  
    14    4   15 1  
    15    5   16 1  
    16    6   17 1  
    17    7   18 1  
    18    8   19 1  
# Name:          frag3-175-9/31924 -- energy: -1.701503
# Creation time: Sat Jun  5 12:52:07 2010


@<TRIPOS>MOLECULE
frag3-175-9/31924 -- energy: -1.701503
   19    18     1     1     1
SMALL
USER_CHARGES


@<TRIPOS>ATOM
      1 C38        10.0836    1.5816    0.5580 C.2        1 <1>        0.000
      2 C39        10.2807    1.5646   -0.7638 C.2        1 <1>        0.000
      3 C41        11.5389    1.1511   -1.3928 C.2        1 <1>        0.000
      4 C42        11.6198    0.5985   -2.6108 C.2        1 <1>        0.000
      5 C43        12.8750    0.1865   -3.2410 C.2        1 <1>        0.000
      6 C44        12.9720   -0.8152   -4.1274 C.2        1 <1>        0.000
      7 C45        14.2355   -1.2240   -4.7584 C.2        1 <1>        0.000
      8 C46        15.0391   -0.3930   -5.4414 C.2        1 <1>        0.000
      9 C47        14.7292    0.9976   -5.6188 C.1        1 <1>        0.000
     10 N4         14.4747    2.1207   -5.7584 N.1        1 <1>        0.000
     11 H          10.8838    1.2766    1.2323 H.spc      1 <1>        0.000
     12 H           9.1226    1.9004    0.9617 H.spc      1 <1>        0.000
     13 H           9.4601    1.8756   -1.4104 H.spc      1 <1>        0.000
     14 H          12.4639    1.3023   -0.8363 H.spc      1 <1>        0.000
     15 H          10.6943    0.4465   -3.1662 H.spc      1 <1>        0.000
     16 H          13.7841    0.7254   -2.9742 H.spc      1 <1>        0.000
     17 H          12.0642   -1.3560   -4.3948 H.spc      1 <1>        0.000
     18 H          14.5388   -2.2669   -4.6660 H.spc      1 <1>        0.000
     19 H          15.9577   -0.7874   -5.8758 H.spc      1 <1>        0.000
@<TRIPOS>BOND
     1    9   10 3  
     2    8    9 1  
     3    6    7 1  
     4    4    5 1  
     5    7    8 2  
     6    5    6 2  
     7    1    2 2  
     8    2    3 1  
     9    3    4 2  
    10    1   11 1  
    11    1   12 1  
    12    2   13 1  
    13    3   14 1  
    14    4   15 1  
    15    5   16 1  
    16    6   17 1  
    17    7   18 1  
    18    8   19 1  
# Name:          frag3-175-9/31924 -- energy: -1.834006
# Creation time: Sat Jun  5 12:52:07 2010


@<TRIPOS>MOLECULE
frag3-175-9/31924 -- energy: -1.834006
   19    18     1     1     1
SMALL
USER_CHARGES


@<TRIPOS>ATOM
      1 C38         9.6114    1.6352   -0.2851 C.2        1 <1>        0.000
      2 C39        10.9012    1.2891   -0.2132 C.2        1 <1>        0.000
      3 C41        11.6095    0.5831   -1.2783 C.2        1 <1>        0.000
      4 C42        11.7184    1.0419   -2.5381 C.2        1 <1>        0.000
      5 C43        12.4278    0.3405   -3.6018 C.2        1 <1>        0.000
      6 C44        13.5326   -0.4000   -3.3985 C.2        1 <1>        0.000
      7 C45        14.2463   -1.1116   -4.4634 C.2        1 <1>        0.000
      8 C46        14.7259   -0.5219   -5.5715 C.2        1 <1>        0.000
      9 C47        14.5933    0.8860   -5.8091 C.1        1 <1>        0.000
     10 N4         14.4819    2.0262   -5.9958 N.1        1 <1>        0.000
     11 H           9.0303    1.3909   -1.1743 H.spc      1 <1>        0.000
     12 H           9.1412    2.1616    0.5455 H.spc      1 <1>        0.000
     13 H          11.4544    1.5480    0.6896 H.spc      1 <1>        0.000
     14 H          12.0772   -0.3716   -1.0379 H.spc      1 <1>        0.000
     15 H          11.2481    1.9954   -2.7784 H.spc      1 <1>        0.000
     16 H          12.0416    0.4206   -4.6179 H.spc      1 <1>        0.000
     17 H          13.9198   -0.4753   -2.3824 H.spc      1 <1>        0.000
     18 H          14.3971   -2.1851   -4.3492 H.spc      1 <1>        0.000
     19 H          15.2336   -1.1353   -6.3159 H.spc      1 <1>        0.000
@<TRIPOS>BOND
     1    9   10 3  
     2    8    9 1  
     3    6    7 1  
     4    4    5 1  
     5    7    8 2  
     6    5    6 2  
     7    1    2 2  
     8    2    3 1  
     9    3    4 2  
    10    1   11 1  
    11    1   12 1  
    12    2   13 1  
    13    3   14 1  
    14    4   15 1  
    15    5   16 1  
    16    6   17 1  
    17    7   18 1  
    18    8   19 1  
# Name:          frag3-175-9/31924 -- energy: -1.791018
# Creation time: Sat Jun  5 12:52:07 2010


@<TRIPOS>MOLECULE
frag3-175-9/31924 -- energy: -1.791018
   19    18     1     1     1
SMALL
USER_CHARGES


@<TRIPOS>ATOM
      1 C38        10.2970    2.0622    0.0111 C.2        1 <1>        0.000
      2 C39        10.0756    0.9994   -0.7709 C.2        1 <1>        0.000
      3 C41        11.1101    0.3658   -1.5844 C.2        1 <1>        0.000
      4 C42        12.1768    1.0194   -2.0814 C.2        1 <1>        0.000
      5 C43        13.2149    0.3908   -2.8886 C.2        1 <1>        0.000
      6 C44        12.9628   -0.4940   -3.8697 C.2        1 <1>        0.000
      7 C45        14.0030   -1.1295   -4.6843 C.2        1 <1>        0.000
      8 C46        14.7829   -0.4706   -5.5574 C.2        1 <1>        0.000
      9 C47        14.6634    0.9409   -5.7780 C.1        1 <1>        0.000
     10 N4         14.5619    2.0842   -5.9511 N.1        1 <1>        0.000
     11 H          11.2932    2.5013    0.0648 H.spc      1 <1>        0.000
     12 H           9.4812    2.4890    0.5945 H.spc      1 <1>        0.000
     13 H           9.0685    0.5838   -0.8026 H.spc      1 <1>        0.000
     14 H          11.0127   -0.6979   -1.8016 H.spc      1 <1>        0.000
     15 H          12.2699    2.0840   -1.8670 H.spc      1 <1>        0.000
     16 H          14.2535    0.6523   -2.6859 H.spc      1 <1>        0.000
     17 H          11.9236   -0.7540   -4.0711 H.spc      1 <1>        0.000
     18 H          14.1529   -2.2036   -4.5747 H.spc      1 <1>        0.000
     19 H          15.5329   -1.0288   -6.1178 H.spc      1 <1>        0.000
@<TRIPOS>BOND
     1    9   10 3  
     2    8    9 1  
     3    6    7 1  
     4    4    5 1  
     5    7    8 2  
     6    5    6 2  
     7    1    2 2  
     8    2    3 1  
     9    3    4 2  
    10    1   11 1  
    11    1   12 1  
    12    2   13 1  
    13    3   14 1  
    14    4   15 1  
    15    5   16 1  
    16    6   17 1  
    17    7   18 1  
    18    8   19 1  
