#      Rotatable Fragment
#      Build by yxyuan
#
# Name:          frag2-036-1115/319335
# Creation time: Sat Jun  5 12:53:32 2010


@<TRIPOS>MOLECULE
frag2-036-1115/319335
    4     3     1     1     1
SMALL
USER_CHARGES


@<TRIPOS>ATOM
      1 C10         0.1184   -0.0168   -0.0025 C.2        1 <1>        0.000
      2 S1         -1.5388    0.2130    0.0331 S.2        1 <1>        0.000
      3 H           0.7677    0.6006    0.6182 H.spc      1 <1>        0.000
      4 H           0.5485   -0.7839   -0.6464 H.spc      1 <1>        0.000
@<TRIPOS>BOND
     1    1    2 2  
     2    1    3 1  
     3    1    4 1  
# Name:          frag2-036-1115/319335 -- energy: 0.000000
# Creation time: Sat Jun  5 12:53:32 2010


@<TRIPOS>MOLECULE
frag2-036-1115/319335 -- energy: 0.000000
    4     3     1     1     1
SMALL
USER_CHARGES


@<TRIPOS>ATOM
      1 C10         0.1184   -0.0168   -0.0025 C.2        1 <1>        0.000
      2 S1         -1.5388    0.2130    0.0331 S.2        1 <1>        0.000
      3 H           0.7677    0.6006    0.6182 H.spc      1 <1>        0.000
      4 H           0.5485   -0.7839   -0.6464 H.spc      1 <1>        0.000
@<TRIPOS>BOND
     1    1    2 2  
     2    1    3 1  
     3    1    4 1  
