#      Rotatable Fragment
#      Build by yxyuan
#
# Name:          frag3-213-7/96164
# Creation time: Sat Jun  5 12:53:12 2010


@<TRIPOS>MOLECULE
frag3-213-7/96164
   18    17     1     1     1
SMALL
USER_CHARGES


@<TRIPOS>ATOM
      1 C4          2.1228   -0.8857   -0.3559 C.2        1 <1>        0.000
      2 C6          1.6122   -0.0467    0.5538 C.2        1 <1>        0.000
      3 C8          0.2447    0.4862    0.5301 C.2        1 <1>        0.000
      4 C10        -0.2866    1.3241    1.4302 C.2        1 <1>        0.000
      5 C12        -1.6834    1.7666    1.3961 C.2        1 <1>        0.000
      6 C14        -2.2026    2.6033    2.3051 C.2        1 <1>        0.000
      7 C15        -3.5705    3.1283    2.3836 C.2        1 <1>        0.000
      8 C16        -4.1355    3.7772    3.4102 C.2        1 <1>        0.000
      9 H           1.5096   -1.2219   -1.1920 H.spc      1 <1>        0.000
     10 H           3.1517   -1.2326   -0.2605 H.spc      1 <1>        0.000
     11 H           2.2603    0.2639    1.3733 H.spc      1 <1>        0.000
     12 H          -0.3960    0.1719   -0.2938 H.spc      1 <1>        0.000
     13 H           0.3536    1.6964    2.2300 H.spc      1 <1>        0.000
     14 H          -2.3275    1.3994    0.5971 H.spc      1 <1>        0.000
     15 H          -1.5206    2.9369    3.0872 H.spc      1 <1>        0.000
     16 H          -4.1985    2.9725    1.5065 H.spc      1 <1>        0.000
     17 H          -3.5620    3.9658    4.3177 H.spc      1 <1>        0.000
     18 H          -5.1688    4.1167    3.3381 H.spc      1 <1>        0.000
@<TRIPOS>BOND
     1    6    7 1  
     2    7    8 2  
     3    5    6 2  
     4    1    2 2  
     5    2    3 1  
     6    3    4 2  
     7    4    5 1  
     8    1    9 1  
     9    1   10 1  
    10    2   11 1  
    11    3   12 1  
    12    4   13 1  
    13    5   14 1  
    14    6   15 1  
    15    7   16 1  
    16    8   17 1  
    17    8   18 1  
# Name:          frag3-213-7/96164
# Creation time: Sat Jun  5 12:53:12 2010


@<TRIPOS>MOLECULE
frag3-213-7/96164
   18    17     1     1     1
SMALL
USER_CHARGES


@<TRIPOS>ATOM
      1 C4         -3.8696    3.7584    3.5579 C.2        1 <1>        0.000
      2 C6         -3.4170    3.1698    2.4442 C.2        1 <1>        0.000
      3 C8         -2.1502    2.4400    2.3351 C.2        1 <1>        0.000
      4 C10        -1.7069    1.7898    1.2508 C.2        1 <1>        0.000
      5 C12        -0.4645    1.0173    1.2216 C.2        1 <1>        0.000
      6 C14         0.0952    0.5768    0.0864 C.2        1 <1>        0.000
      7 C15         1.3311   -0.1931   -0.0815 C.2        1 <1>        0.000
      8 C16         2.2830   -0.4059    0.8389 C.2        1 <1>        0.000
      9 H          -3.2818    3.7149    4.4748 H.spc      1 <1>        0.000
     10 H          -4.8260    4.2812    3.5479 H.spc      1 <1>        0.000
     11 H          -4.0374    3.2383    1.5506 H.spc      1 <1>        0.000
     12 H          -1.5101    2.4250    3.2173 H.spc      1 <1>        0.000
     13 H          -2.3045    1.8389    0.3405 H.spc      1 <1>        0.000
     14 H           0.0285    0.7896    2.1667 H.spc      1 <1>        0.000
     15 H          -0.4382    0.8232   -0.8317 H.spc      1 <1>        0.000
     16 H           1.4943   -0.6417   -1.0614 H.spc      1 <1>        0.000
     17 H           2.1786    0.0160    1.8385 H.spc      1 <1>        0.000
     18 H           3.1610   -1.0008    0.5874 H.spc      1 <1>        0.000
@<TRIPOS>BOND
     1    6    7 1  
     2    7    8 2  
     3    5    6 2  
     4    1    2 2  
     5    2    3 1  
     6    3    4 2  
     7    4    5 1  
     8    1    9 1  
     9    1   10 1  
    10    2   11 1  
    11    3   12 1  
    12    4   13 1  
    13    5   14 1  
    14    6   15 1  
    15    7   16 1  
    16    8   17 1  
    17    8   18 1  
# Name:          frag3-213-7/96164
# Creation time: Sat Jun  5 12:53:12 2010


@<TRIPOS>MOLECULE
frag3-213-7/96164
   18    17     1     1     1
SMALL
USER_CHARGES


@<TRIPOS>ATOM
      1 C4         -3.6793    3.1503    3.5876 C.2        1 <1>        0.000
      2 C6         -3.3519    3.4535    2.3231 C.2        1 <1>        0.000
      3 C8         -2.1533    2.9684    1.6356 C.2        1 <1>        0.000
      4 C10        -1.7078    1.7019    1.6358 C.2        1 <1>        0.000
      5 C12        -0.4643    1.2805    0.9949 C.2        1 <1>        0.000
      6 C14        -0.0292    0.0122    1.0036 C.2        1 <1>        0.000
      7 C15         1.1848   -0.5401    0.3994 C.2        1 <1>        0.000
      8 C16         2.3019    0.1264    0.0734 C.2        1 <1>        0.000
      9 H          -3.0328    2.5001    4.1770 H.spc      1 <1>        0.000
     10 H          -4.5919    3.5540    4.0261 H.spc      1 <1>        0.000
     11 H          -4.0251    4.1068    1.7680 H.spc      1 <1>        0.000
     12 H          -1.5718    3.6998    1.0744 H.spc      1 <1>        0.000
     13 H          -2.3074    0.9457    2.1425 H.spc      1 <1>        0.000
     14 H           0.1382    2.0327    0.4856 H.spc      1 <1>        0.000
     15 H          -0.6628   -0.7018    1.5298 H.spc      1 <1>        0.000
     16 H           1.1800   -1.6101    0.1919 H.spc      1 <1>        0.000
     17 H           2.3695    1.1989    0.2558 H.spc      1 <1>        0.000
     18 H           3.1423   -0.4044   -0.3739 H.spc      1 <1>        0.000
@<TRIPOS>BOND
     1    6    7 1  
     2    7    8 2  
     3    5    6 2  
     4    1    2 2  
     5    2    3 1  
     6    3    4 2  
     7    4    5 1  
     8    1    9 1  
     9    1   10 1  
    10    2   11 1  
    11    3   12 1  
    12    4   13 1  
    13    5   14 1  
    14    6   15 1  
    15    7   16 1  
    16    8   17 1  
    17    8   18 1  
# Name:          frag3-213-7/96164
# Creation time: Sat Jun  5 12:53:12 2010


@<TRIPOS>MOLECULE
frag3-213-7/96164
   18    17     1     1     1
SMALL
USER_CHARGES


@<TRIPOS>ATOM
      1 C4          1.4129   -0.7092   -0.5343 C.2        1 <1>        0.000
      2 C6          1.6191   -0.0834    0.6288 C.2        1 <1>        0.000
      3 C8          0.5720    0.5168    1.4593 C.2        1 <1>        0.000
      4 C10        -0.3811    1.3592    1.0303 C.2        1 <1>        0.000
      5 C12        -1.3649    1.9848    1.9122 C.2        1 <1>        0.000
      6 C14        -2.4143    2.6844    1.4585 C.2        1 <1>        0.000
      7 C15        -3.4684    3.3496    2.2279 C.2        1 <1>        0.000
      8 C16        -3.8743    3.0510    3.4707 C.2        1 <1>        0.000
      9 H           0.4021   -0.8021   -0.9315 H.spc      1 <1>        0.000
     10 H           2.2556   -1.1265   -1.0855 H.spc      1 <1>        0.000
     11 H           2.6462   -0.0143    0.9872 H.spc      1 <1>        0.000
     12 H           0.5664    0.2567    2.5178 H.spc      1 <1>        0.000
     13 H          -0.4238    1.5894   -0.0343 H.spc      1 <1>        0.000
     14 H          -1.2391    1.8773    2.9896 H.spc      1 <1>        0.000
     15 H          -2.4937    2.7695    0.3747 H.spc      1 <1>        0.000
     16 H          -3.9787    4.1780    1.7365 H.spc      1 <1>        0.000
     17 H          -3.4036    2.2330    4.0160 H.spc      1 <1>        0.000
     18 H          -4.6749    3.6263    3.9355 H.spc      1 <1>        0.000
@<TRIPOS>BOND
     1    6    7 1  
     2    7    8 2  
     3    5    6 2  
     4    1    2 2  
     5    2    3 1  
     6    3    4 2  
     7    4    5 1  
     8    1    9 1  
     9    1   10 1  
    10    2   11 1  
    11    3   12 1  
    12    4   13 1  
    13    5   14 1  
    14    6   15 1  
    15    7   16 1  
    16    8   17 1  
    17    8   18 1  
# Name:          frag3-213-7/96164
# Creation time: Sat Jun  5 12:53:12 2010


@<TRIPOS>MOLECULE
frag3-213-7/96164
   18    17     1     1     1
SMALL
USER_CHARGES


@<TRIPOS>ATOM
      1 C4         -3.7233    2.8207    3.8293 C.2        1 <1>        0.000
      2 C6         -3.1822    3.0881    2.6352 C.2        1 <1>        0.000
      3 C8         -2.1579    2.2758    1.9752 C.2        1 <1>        0.000
      4 C10        -1.5531    2.5603    0.8115 C.2        1 <1>        0.000
      5 C12        -0.5851    1.6714    0.1692 C.2        1 <1>        0.000
      6 C14         0.2523    0.8861    0.8647 C.2        1 <1>        0.000
      7 C15         1.2497   -0.0586    0.3580 C.2        1 <1>        0.000
      8 C16         1.8007   -1.0904    1.0103 C.2        1 <1>        0.000
      9 H          -3.4050    1.9399    4.3870 H.spc      1 <1>        0.000
     10 H          -4.4824    3.4837    4.2444 H.spc      1 <1>        0.000
     11 H          -3.5307    3.9794    2.1134 H.spc      1 <1>        0.000
     12 H          -1.8590    1.3547    2.4756 H.spc      1 <1>        0.000
     13 H          -1.7957    3.5023    0.3196 H.spc      1 <1>        0.000
     14 H          -0.5420    1.6457   -0.9196 H.spc      1 <1>        0.000
     15 H           0.1804    0.9616    1.9497 H.spc      1 <1>        0.000
     16 H           1.5821    0.0957   -0.6685 H.spc      1 <1>        0.000
     17 H           1.5124   -1.3006    2.0403 H.spc      1 <1>        0.000
     18 H           2.5374   -1.7199    0.5112 H.spc      1 <1>        0.000
@<TRIPOS>BOND
     1    6    7 1  
     2    7    8 2  
     3    5    6 2  
     4    1    2 2  
     5    2    3 1  
     6    3    4 2  
     7    4    5 1  
     8    1    9 1  
     9    1   10 1  
    10    2   11 1  
    11    3   12 1  
    12    4   13 1  
    13    5   14 1  
    14    6   15 1  
    15    7   16 1  
    16    8   17 1  
    17    8   18 1  
# Name:          frag3-213-7/96164
# Creation time: Sat Jun  5 12:53:12 2010


@<TRIPOS>MOLECULE
frag3-213-7/96164
   18    17     1     1     1
SMALL
USER_CHARGES


@<TRIPOS>ATOM
      1 C4          2.2747    0.2348    0.2901 C.2        1 <1>        0.000
      2 C6          1.2259   -0.4132    0.8171 C.2        1 <1>        0.000
      3 C8         -0.0643    0.2075    1.1291 C.2        1 <1>        0.000
      4 C10        -0.6716    1.1596    0.4003 C.2        1 <1>        0.000
      5 C12        -1.9240    1.8012    0.7995 C.2        1 <1>        0.000
      6 C14        -2.0618    2.4446    1.9727 C.2        1 <1>        0.000
      7 C15        -3.2411    3.1370    2.4982 C.2        1 <1>        0.000
      8 C16        -3.4366    3.5817    3.7463 C.2        1 <1>        0.000
      9 H           2.2006    1.2985    0.0642 H.spc      1 <1>        0.000
     10 H           3.2014   -0.3021    0.0876 H.spc      1 <1>        0.000
     11 H           1.3411   -1.4763    1.0283 H.spc      1 <1>        0.000
     12 H          -0.5756   -0.1322    2.0298 H.spc      1 <1>        0.000
     13 H          -0.2072    1.4694   -0.5359 H.spc      1 <1>        0.000
     14 H          -2.7765    1.7563    0.1217 H.spc      1 <1>        0.000
     15 H          -1.1818    2.4517    2.6159 H.spc      1 <1>        0.000
     16 H          -4.0531    3.3102    1.7919 H.spc      1 <1>        0.000
     17 H          -2.6641    3.4408    4.5023 H.spc      1 <1>        0.000
     18 H          -4.3682    4.0845    4.0061 H.spc      1 <1>        0.000
@<TRIPOS>BOND
     1    6    7 1  
     2    7    8 2  
     3    5    6 2  
     4    1    2 2  
     5    2    3 1  
     6    3    4 2  
     7    4    5 1  
     8    1    9 1  
     9    1   10 1  
    10    2   11 1  
    11    3   12 1  
    12    4   13 1  
    13    5   14 1  
    14    6   15 1  
    15    7   16 1  
    16    8   17 1  
    17    8   18 1  
# Name:          frag3-213-7/96164
# Creation time: Sat Jun  5 12:53:12 2010


@<TRIPOS>MOLECULE
frag3-213-7/96164
   18    17     1     1     1
SMALL
USER_CHARGES


@<TRIPOS>ATOM
      1 C4         -3.5569    3.4830    3.7140 C.2        1 <1>        0.000
      2 C6         -3.3438    3.0353    2.4724 C.2        1 <1>        0.000
      3 C8         -2.2143    2.2018    2.0588 C.2        1 <1>        0.000
      4 C10        -1.8017    1.9976    0.7980 C.2        1 <1>        0.000
      5 C12        -0.7046    1.0998    0.4452 C.2        1 <1>        0.000
      6 C14         0.4442    1.0449    1.1372 C.2        1 <1>        0.000
      7 C15         1.6070    0.1868    0.9082 C.2        1 <1>        0.000
      8 C16         1.6710   -0.8960    0.1195 C.2        1 <1>        0.000
      9 H          -2.8584    3.2305    4.5118 H.spc      1 <1>        0.000
     10 H          -4.4291    4.1005    3.9285 H.spc      1 <1>        0.000
     11 H          -4.0689    3.3132    1.7075 H.spc      1 <1>        0.000
     12 H          -1.6557    1.6997    2.8487 H.spc      1 <1>        0.000
     13 H          -2.3121    2.5296   -0.0049 H.spc      1 <1>        0.000
     14 H          -0.8242    0.4455   -0.4183 H.spc      1 <1>        0.000
     15 H           0.5210    1.7302    1.9814 H.spc      1 <1>        0.000
     16 H           2.5213    0.4572    1.4364 H.spc      1 <1>        0.000
     17 H           0.7903   -1.2186   -0.4359 H.spc      1 <1>        0.000
     18 H           2.6037   -1.4535    0.0338 H.spc      1 <1>        0.000
@<TRIPOS>BOND
     1    6    7 1  
     2    7    8 2  
     3    5    6 2  
     4    1    2 2  
     5    2    3 1  
     6    3    4 2  
     7    4    5 1  
     8    1    9 1  
     9    1   10 1  
    10    2   11 1  
    11    3   12 1  
    12    4   13 1  
    13    5   14 1  
    14    6   15 1  
    15    7   16 1  
    16    8   17 1  
    17    8   18 1  
# Name:          frag3-213-7/96164
# Creation time: Sat Jun  5 12:53:12 2010


@<TRIPOS>MOLECULE
frag3-213-7/96164
   18    17     1     1     1
SMALL
USER_CHARGES


@<TRIPOS>ATOM
      1 C4          1.9824   -0.6334    0.5588 C.2        1 <1>        0.000
      2 C6          1.2889    0.2842   -0.1246 C.2        1 <1>        0.000
      3 C8          0.1214    1.0021    0.3824 C.2        1 <1>        0.000
      4 C10        -0.6147    0.6500    1.4530 C.2        1 <1>        0.000
      5 C12        -1.8109    1.3669    1.8785 C.2        1 <1>        0.000
      6 C14        -1.8716    2.7054    1.9608 C.2        1 <1>        0.000
      7 C15        -3.0016    3.5468    2.3491 C.2        1 <1>        0.000
      8 C16        -3.9930    3.2313    3.1953 C.2        1 <1>        0.000
      9 H           1.6869   -0.8946    1.5749 H.spc      1 <1>        0.000
     10 H           2.8429   -1.1198    0.0994 H.spc      1 <1>        0.000
     11 H           1.6202    0.5139   -1.1373 H.spc      1 <1>        0.000
     12 H          -0.1800    1.9021   -0.1536 H.spc      1 <1>        0.000
     13 H          -0.2996   -0.2175    2.0329 H.spc      1 <1>        0.000
     14 H          -2.6969    0.7892    2.1420 H.spc      1 <1>        0.000
     15 H          -0.9549    3.2359    1.7034 H.spc      1 <1>        0.000
     16 H          -3.0432    4.5399    1.9018 H.spc      1 <1>        0.000
     17 H          -4.0088    2.2530    3.6757 H.spc      1 <1>        0.000
     18 H          -4.7830    3.9531    3.4026 H.spc      1 <1>        0.000
@<TRIPOS>BOND
     1    6    7 1  
     2    7    8 2  
     3    5    6 2  
     4    1    2 2  
     5    2    3 1  
     6    3    4 2  
     7    4    5 1  
     8    1    9 1  
     9    1   10 1  
    10    2   11 1  
    11    3   12 1  
    12    4   13 1  
    13    5   14 1  
    14    6   15 1  
    15    7   16 1  
    16    8   17 1  
    17    8   18 1  
# Name:          frag3-213-7/96164
# Creation time: Sat Jun  5 12:53:12 2010


@<TRIPOS>MOLECULE
frag3-213-7/96164
   18    17     1     1     1
SMALL
USER_CHARGES


@<TRIPOS>ATOM
      1 C4         -3.5634    3.4897    3.3997 C.2        1 <1>        0.000
      2 C6         -3.1642    3.4309    2.1208 C.2        1 <1>        0.000
      3 C8         -2.0782    2.5909    1.6287 C.2        1 <1>        0.000
      4 C10        -1.9830    1.2557    1.7721 C.2        1 <1>        0.000
      5 C12        -0.8370    0.4760    1.3240 C.2        1 <1>        0.000
      6 C14         0.3716    1.0256    1.0952 C.2        1 <1>        0.000
      7 C15         1.6038    0.3750    0.6629 C.2        1 <1>        0.000
      8 C16         1.7515   -0.4907   -0.3501 C.2        1 <1>        0.000
      9 H          -3.0654    2.8813    4.1546 H.spc      1 <1>        0.000
     10 H          -4.3859    4.1459    3.6843 H.spc      1 <1>        0.000
     11 H          -3.6887    4.0554    1.3976 H.spc      1 <1>        0.000
     12 H          -1.2691    3.0902    1.0957 H.spc      1 <1>        0.000
     13 H          -2.8091    0.7290    2.2499 H.spc      1 <1>        0.000
     14 H          -0.9624   -0.5954    1.1675 H.spc      1 <1>        0.000
     15 H           0.4378    2.1018    1.2546 H.spc      1 <1>        0.000
     16 H           2.5043    0.6200    1.2261 H.spc      1 <1>        0.000
     17 H           0.8893   -0.7770   -0.9524 H.spc      1 <1>        0.000
     18 H           2.7337   -0.9082   -0.5714 H.spc      1 <1>        0.000
@<TRIPOS>BOND
     1    6    7 1  
     2    7    8 2  
     3    5    6 2  
     4    1    2 2  
     5    2    3 1  
     6    3    4 2  
     7    4    5 1  
     8    1    9 1  
     9    1   10 1  
    10    2   11 1  
    11    3   12 1  
    12    4   13 1  
    13    5   14 1  
    14    6   15 1  
    15    7   16 1  
    16    8   17 1  
    17    8   18 1  
# Name:          frag3-213-7/96164 -- energy: -1.243150
# Creation time: Sat Jun  5 12:53:12 2010


@<TRIPOS>MOLECULE
frag3-213-7/96164 -- energy: -1.243150
   18    17     1     1     1
SMALL
USER_CHARGES


@<TRIPOS>ATOM
      1 C4          2.1228   -0.8857   -0.3559 C.2        1 <1>        0.000
      2 C6          1.6122   -0.0467    0.5538 C.2        1 <1>        0.000
      3 C8          0.2447    0.4862    0.5301 C.2        1 <1>        0.000
      4 C10        -0.2866    1.3241    1.4302 C.2        1 <1>        0.000
      5 C12        -1.6834    1.7666    1.3961 C.2        1 <1>        0.000
      6 C14        -2.2026    2.6033    2.3051 C.2        1 <1>        0.000
      7 C15        -3.5705    3.1283    2.3836 C.2        1 <1>        0.000
      8 C16        -4.1355    3.7772    3.4102 C.2        1 <1>        0.000
      9 H           1.5096   -1.2219   -1.1920 H.spc      1 <1>        0.000
     10 H           3.1517   -1.2326   -0.2605 H.spc      1 <1>        0.000
     11 H           2.2603    0.2639    1.3733 H.spc      1 <1>        0.000
     12 H          -0.3960    0.1719   -0.2938 H.spc      1 <1>        0.000
     13 H           0.3536    1.6964    2.2300 H.spc      1 <1>        0.000
     14 H          -2.3275    1.3994    0.5971 H.spc      1 <1>        0.000
     15 H          -1.5206    2.9369    3.0872 H.spc      1 <1>        0.000
     16 H          -4.1985    2.9725    1.5065 H.spc      1 <1>        0.000
     17 H          -3.5620    3.9658    4.3177 H.spc      1 <1>        0.000
     18 H          -5.1688    4.1167    3.3381 H.spc      1 <1>        0.000
@<TRIPOS>BOND
     1    6    7 1  
     2    7    8 2  
     3    5    6 2  
     4    1    2 2  
     5    2    3 1  
     6    3    4 2  
     7    4    5 1  
     8    1    9 1  
     9    1   10 1  
    10    2   11 1  
    11    3   12 1  
    12    4   13 1  
    13    5   14 1  
    14    6   15 1  
    15    7   16 1  
    16    8   17 1  
    17    8   18 1  
# Name:          frag3-213-7/96164 -- energy: -1.339346
# Creation time: Sat Jun  5 12:53:12 2010


@<TRIPOS>MOLECULE
frag3-213-7/96164 -- energy: -1.339346
   18    17     1     1     1
SMALL
USER_CHARGES


@<TRIPOS>ATOM
      1 C4         -3.8696    3.7584    3.5579 C.2        1 <1>        0.000
      2 C6         -3.4170    3.1698    2.4442 C.2        1 <1>        0.000
      3 C8         -2.1502    2.4400    2.3351 C.2        1 <1>        0.000
      4 C10        -1.7069    1.7898    1.2508 C.2        1 <1>        0.000
      5 C12        -0.4645    1.0173    1.2216 C.2        1 <1>        0.000
      6 C14         0.0952    0.5768    0.0864 C.2        1 <1>        0.000
      7 C15         1.3311   -0.1931   -0.0815 C.2        1 <1>        0.000
      8 C16         2.2830   -0.4059    0.8389 C.2        1 <1>        0.000
      9 H          -3.2818    3.7149    4.4748 H.spc      1 <1>        0.000
     10 H          -4.8260    4.2812    3.5479 H.spc      1 <1>        0.000
     11 H          -4.0374    3.2383    1.5506 H.spc      1 <1>        0.000
     12 H          -1.5101    2.4250    3.2173 H.spc      1 <1>        0.000
     13 H          -2.3045    1.8389    0.3405 H.spc      1 <1>        0.000
     14 H           0.0285    0.7896    2.1667 H.spc      1 <1>        0.000
     15 H          -0.4382    0.8232   -0.8317 H.spc      1 <1>        0.000
     16 H           1.4943   -0.6417   -1.0614 H.spc      1 <1>        0.000
     17 H           2.1786    0.0160    1.8385 H.spc      1 <1>        0.000
     18 H           3.1610   -1.0008    0.5874 H.spc      1 <1>        0.000
@<TRIPOS>BOND
     1    6    7 1  
     2    7    8 2  
     3    5    6 2  
     4    1    2 2  
     5    2    3 1  
     6    3    4 2  
     7    4    5 1  
     8    1    9 1  
     9    1   10 1  
    10    2   11 1  
    11    3   12 1  
    12    4   13 1  
    13    5   14 1  
    14    6   15 1  
    15    7   16 1  
    16    8   17 1  
    17    8   18 1  
# Name:          frag3-213-7/96164 -- energy: -1.432324
# Creation time: Sat Jun  5 12:53:12 2010


@<TRIPOS>MOLECULE
frag3-213-7/96164 -- energy: -1.432324
   18    17     1     1     1
SMALL
USER_CHARGES


@<TRIPOS>ATOM
      1 C4         -3.6793    3.1503    3.5876 C.2        1 <1>        0.000
      2 C6         -3.3519    3.4535    2.3231 C.2        1 <1>        0.000
      3 C8         -2.1533    2.9684    1.6356 C.2        1 <1>        0.000
      4 C10        -1.7078    1.7019    1.6358 C.2        1 <1>        0.000
      5 C12        -0.4643    1.2805    0.9949 C.2        1 <1>        0.000
      6 C14        -0.0292    0.0122    1.0036 C.2        1 <1>        0.000
      7 C15         1.1848   -0.5401    0.3994 C.2        1 <1>        0.000
      8 C16         2.3019    0.1264    0.0734 C.2        1 <1>        0.000
      9 H          -3.0328    2.5001    4.1770 H.spc      1 <1>        0.000
     10 H          -4.5919    3.5540    4.0261 H.spc      1 <1>        0.000
     11 H          -4.0251    4.1068    1.7680 H.spc      1 <1>        0.000
     12 H          -1.5718    3.6998    1.0744 H.spc      1 <1>        0.000
     13 H          -2.3074    0.9457    2.1425 H.spc      1 <1>        0.000
     14 H           0.1382    2.0327    0.4856 H.spc      1 <1>        0.000
     15 H          -0.6628   -0.7018    1.5298 H.spc      1 <1>        0.000
     16 H           1.1800   -1.6101    0.1919 H.spc      1 <1>        0.000
     17 H           2.3695    1.1989    0.2558 H.spc      1 <1>        0.000
     18 H           3.1423   -0.4044   -0.3739 H.spc      1 <1>        0.000
@<TRIPOS>BOND
     1    6    7 1  
     2    7    8 2  
     3    5    6 2  
     4    1    2 2  
     5    2    3 1  
     6    3    4 2  
     7    4    5 1  
     8    1    9 1  
     9    1   10 1  
    10    2   11 1  
    11    3   12 1  
    12    4   13 1  
    13    5   14 1  
    14    6   15 1  
    15    7   16 1  
    16    8   17 1  
    17    8   18 1  
# Name:          frag3-213-7/96164 -- energy: -1.432788
# Creation time: Sat Jun  5 12:53:12 2010


@<TRIPOS>MOLECULE
frag3-213-7/96164 -- energy: -1.432788
   18    17     1     1     1
SMALL
USER_CHARGES


@<TRIPOS>ATOM
      1 C4          1.4129   -0.7092   -0.5343 C.2        1 <1>        0.000
      2 C6          1.6191   -0.0834    0.6288 C.2        1 <1>        0.000
      3 C8          0.5720    0.5168    1.4593 C.2        1 <1>        0.000
      4 C10        -0.3811    1.3592    1.0303 C.2        1 <1>        0.000
      5 C12        -1.3649    1.9848    1.9122 C.2        1 <1>        0.000
      6 C14        -2.4143    2.6844    1.4585 C.2        1 <1>        0.000
      7 C15        -3.4684    3.3496    2.2279 C.2        1 <1>        0.000
      8 C16        -3.8743    3.0510    3.4707 C.2        1 <1>        0.000
      9 H           0.4021   -0.8021   -0.9315 H.spc      1 <1>        0.000
     10 H           2.2556   -1.1265   -1.0855 H.spc      1 <1>        0.000
     11 H           2.6462   -0.0143    0.9872 H.spc      1 <1>        0.000
     12 H           0.5664    0.2567    2.5178 H.spc      1 <1>        0.000
     13 H          -0.4238    1.5894   -0.0343 H.spc      1 <1>        0.000
     14 H          -1.2391    1.8773    2.9896 H.spc      1 <1>        0.000
     15 H          -2.4937    2.7695    0.3747 H.spc      1 <1>        0.000
     16 H          -3.9787    4.1780    1.7365 H.spc      1 <1>        0.000
     17 H          -3.4036    2.2330    4.0160 H.spc      1 <1>        0.000
     18 H          -4.6749    3.6263    3.9355 H.spc      1 <1>        0.000
@<TRIPOS>BOND
     1    6    7 1  
     2    7    8 2  
     3    5    6 2  
     4    1    2 2  
     5    2    3 1  
     6    3    4 2  
     7    4    5 1  
     8    1    9 1  
     9    1   10 1  
    10    2   11 1  
    11    3   12 1  
    12    4   13 1  
    13    5   14 1  
    14    6   15 1  
    15    7   16 1  
    16    8   17 1  
    17    8   18 1  
# Name:          frag3-213-7/96164 -- energy: -1.264115
# Creation time: Sat Jun  5 12:53:12 2010


@<TRIPOS>MOLECULE
frag3-213-7/96164 -- energy: -1.264115
   18    17     1     1     1
SMALL
USER_CHARGES


@<TRIPOS>ATOM
      1 C4         -3.7233    2.8207    3.8293 C.2        1 <1>        0.000
      2 C6         -3.1822    3.0881    2.6352 C.2        1 <1>        0.000
      3 C8         -2.1579    2.2758    1.9752 C.2        1 <1>        0.000
      4 C10        -1.5531    2.5603    0.8115 C.2        1 <1>        0.000
      5 C12        -0.5851    1.6714    0.1692 C.2        1 <1>        0.000
      6 C14         0.2523    0.8861    0.8647 C.2        1 <1>        0.000
      7 C15         1.2497   -0.0586    0.3580 C.2        1 <1>        0.000
      8 C16         1.8007   -1.0904    1.0103 C.2        1 <1>        0.000
      9 H          -3.4050    1.9399    4.3870 H.spc      1 <1>        0.000
     10 H          -4.4824    3.4837    4.2444 H.spc      1 <1>        0.000
     11 H          -3.5307    3.9794    2.1134 H.spc      1 <1>        0.000
     12 H          -1.8590    1.3547    2.4756 H.spc      1 <1>        0.000
     13 H          -1.7957    3.5023    0.3196 H.spc      1 <1>        0.000
     14 H          -0.5420    1.6457   -0.9196 H.spc      1 <1>        0.000
     15 H           0.1804    0.9616    1.9497 H.spc      1 <1>        0.000
     16 H           1.5821    0.0957   -0.6685 H.spc      1 <1>        0.000
     17 H           1.5124   -1.3006    2.0403 H.spc      1 <1>        0.000
     18 H           2.5374   -1.7199    0.5112 H.spc      1 <1>        0.000
@<TRIPOS>BOND
     1    6    7 1  
     2    7    8 2  
     3    5    6 2  
     4    1    2 2  
     5    2    3 1  
     6    3    4 2  
     7    4    5 1  
     8    1    9 1  
     9    1   10 1  
    10    2   11 1  
    11    3   12 1  
    12    4   13 1  
    13    5   14 1  
    14    6   15 1  
    15    7   16 1  
    16    8   17 1  
    17    8   18 1  
# Name:          frag3-213-7/96164 -- energy: -1.446139
# Creation time: Sat Jun  5 12:53:12 2010


@<TRIPOS>MOLECULE
frag3-213-7/96164 -- energy: -1.446139
   18    17     1     1     1
SMALL
USER_CHARGES


@<TRIPOS>ATOM
      1 C4          2.2747    0.2348    0.2901 C.2        1 <1>        0.000
      2 C6          1.2259   -0.4132    0.8171 C.2        1 <1>        0.000
      3 C8         -0.0643    0.2075    1.1291 C.2        1 <1>        0.000
      4 C10        -0.6716    1.1596    0.4003 C.2        1 <1>        0.000
      5 C12        -1.9240    1.8012    0.7995 C.2        1 <1>        0.000
      6 C14        -2.0618    2.4446    1.9727 C.2        1 <1>        0.000
      7 C15        -3.2411    3.1370    2.4982 C.2        1 <1>        0.000
      8 C16        -3.4366    3.5817    3.7463 C.2        1 <1>        0.000
      9 H           2.2006    1.2985    0.0642 H.spc      1 <1>        0.000
     10 H           3.2014   -0.3021    0.0876 H.spc      1 <1>        0.000
     11 H           1.3411   -1.4763    1.0283 H.spc      1 <1>        0.000
     12 H          -0.5756   -0.1322    2.0298 H.spc      1 <1>        0.000
     13 H          -0.2072    1.4694   -0.5359 H.spc      1 <1>        0.000
     14 H          -2.7765    1.7563    0.1217 H.spc      1 <1>        0.000
     15 H          -1.1818    2.4517    2.6159 H.spc      1 <1>        0.000
     16 H          -4.0531    3.3102    1.7919 H.spc      1 <1>        0.000
     17 H          -2.6641    3.4408    4.5023 H.spc      1 <1>        0.000
     18 H          -4.3682    4.0845    4.0061 H.spc      1 <1>        0.000
@<TRIPOS>BOND
     1    6    7 1  
     2    7    8 2  
     3    5    6 2  
     4    1    2 2  
     5    2    3 1  
     6    3    4 2  
     7    4    5 1  
     8    1    9 1  
     9    1   10 1  
    10    2   11 1  
    11    3   12 1  
    12    4   13 1  
    13    5   14 1  
    14    6   15 1  
    15    7   16 1  
    16    8   17 1  
    17    8   18 1  
# Name:          frag3-213-7/96164 -- energy: -1.429089
# Creation time: Sat Jun  5 12:53:13 2010


@<TRIPOS>MOLECULE
frag3-213-7/96164 -- energy: -1.429089
   18    17     1     1     1
SMALL
USER_CHARGES


@<TRIPOS>ATOM
      1 C4         -3.5569    3.4830    3.7140 C.2        1 <1>        0.000
      2 C6         -3.3438    3.0353    2.4724 C.2        1 <1>        0.000
      3 C8         -2.2143    2.2018    2.0588 C.2        1 <1>        0.000
      4 C10        -1.8017    1.9976    0.7980 C.2        1 <1>        0.000
      5 C12        -0.7046    1.0998    0.4452 C.2        1 <1>        0.000
      6 C14         0.4442    1.0449    1.1372 C.2        1 <1>        0.000
      7 C15         1.6070    0.1868    0.9082 C.2        1 <1>        0.000
      8 C16         1.6710   -0.8960    0.1195 C.2        1 <1>        0.000
      9 H          -2.8584    3.2305    4.5118 H.spc      1 <1>        0.000
     10 H          -4.4291    4.1005    3.9285 H.spc      1 <1>        0.000
     11 H          -4.0689    3.3132    1.7075 H.spc      1 <1>        0.000
     12 H          -1.6557    1.6997    2.8487 H.spc      1 <1>        0.000
     13 H          -2.3121    2.5296   -0.0049 H.spc      1 <1>        0.000
     14 H          -0.8242    0.4455   -0.4183 H.spc      1 <1>        0.000
     15 H           0.5210    1.7302    1.9814 H.spc      1 <1>        0.000
     16 H           2.5213    0.4572    1.4364 H.spc      1 <1>        0.000
     17 H           0.7903   -1.2186   -0.4359 H.spc      1 <1>        0.000
     18 H           2.6037   -1.4535    0.0338 H.spc      1 <1>        0.000
@<TRIPOS>BOND
     1    6    7 1  
     2    7    8 2  
     3    5    6 2  
     4    1    2 2  
     5    2    3 1  
     6    3    4 2  
     7    4    5 1  
     8    1    9 1  
     9    1   10 1  
    10    2   11 1  
    11    3   12 1  
    12    4   13 1  
    13    5   14 1  
    14    6   15 1  
    15    7   16 1  
    16    8   17 1  
    17    8   18 1  
# Name:          frag3-213-7/96164 -- energy: -1.449844
# Creation time: Sat Jun  5 12:53:13 2010


@<TRIPOS>MOLECULE
frag3-213-7/96164 -- energy: -1.449844
   18    17     1     1     1
SMALL
USER_CHARGES


@<TRIPOS>ATOM
      1 C4          1.9824   -0.6334    0.5588 C.2        1 <1>        0.000
      2 C6          1.2889    0.2842   -0.1246 C.2        1 <1>        0.000
      3 C8          0.1214    1.0021    0.3824 C.2        1 <1>        0.000
      4 C10        -0.6147    0.6500    1.4530 C.2        1 <1>        0.000
      5 C12        -1.8109    1.3669    1.8785 C.2        1 <1>        0.000
      6 C14        -1.8716    2.7054    1.9608 C.2        1 <1>        0.000
      7 C15        -3.0016    3.5468    2.3491 C.2        1 <1>        0.000
      8 C16        -3.9930    3.2313    3.1953 C.2        1 <1>        0.000
      9 H           1.6869   -0.8946    1.5749 H.spc      1 <1>        0.000
     10 H           2.8429   -1.1198    0.0994 H.spc      1 <1>        0.000
     11 H           1.6202    0.5139   -1.1373 H.spc      1 <1>        0.000
     12 H          -0.1800    1.9021   -0.1536 H.spc      1 <1>        0.000
     13 H          -0.2996   -0.2175    2.0329 H.spc      1 <1>        0.000
     14 H          -2.6969    0.7892    2.1420 H.spc      1 <1>        0.000
     15 H          -0.9549    3.2359    1.7034 H.spc      1 <1>        0.000
     16 H          -3.0432    4.5399    1.9018 H.spc      1 <1>        0.000
     17 H          -4.0088    2.2530    3.6757 H.spc      1 <1>        0.000
     18 H          -4.7830    3.9531    3.4026 H.spc      1 <1>        0.000
@<TRIPOS>BOND
     1    6    7 1  
     2    7    8 2  
     3    5    6 2  
     4    1    2 2  
     5    2    3 1  
     6    3    4 2  
     7    4    5 1  
     8    1    9 1  
     9    1   10 1  
    10    2   11 1  
    11    3   12 1  
    12    4   13 1  
    13    5   14 1  
    14    6   15 1  
    15    7   16 1  
    16    8   17 1  
    17    8   18 1  
# Name:          frag3-213-7/96164 -- energy: -1.164210
# Creation time: Sat Jun  5 12:53:13 2010


@<TRIPOS>MOLECULE
frag3-213-7/96164 -- energy: -1.164210
   18    17     1     1     1
SMALL
USER_CHARGES


@<TRIPOS>ATOM
      1 C4         -3.5634    3.4897    3.3997 C.2        1 <1>        0.000
      2 C6         -3.1642    3.4309    2.1208 C.2        1 <1>        0.000
      3 C8         -2.0782    2.5909    1.6287 C.2        1 <1>        0.000
      4 C10        -1.9830    1.2557    1.7721 C.2        1 <1>        0.000
      5 C12        -0.8370    0.4760    1.3240 C.2        1 <1>        0.000
      6 C14         0.3716    1.0256    1.0952 C.2        1 <1>        0.000
      7 C15         1.6038    0.3750    0.6629 C.2        1 <1>        0.000
      8 C16         1.7515   -0.4907   -0.3501 C.2        1 <1>        0.000
      9 H          -3.0654    2.8813    4.1546 H.spc      1 <1>        0.000
     10 H          -4.3859    4.1459    3.6843 H.spc      1 <1>        0.000
     11 H          -3.6887    4.0554    1.3976 H.spc      1 <1>        0.000
     12 H          -1.2691    3.0902    1.0957 H.spc      1 <1>        0.000
     13 H          -2.8091    0.7290    2.2499 H.spc      1 <1>        0.000
     14 H          -0.9624   -0.5954    1.1675 H.spc      1 <1>        0.000
     15 H           0.4378    2.1018    1.2546 H.spc      1 <1>        0.000
     16 H           2.5043    0.6200    1.2261 H.spc      1 <1>        0.000
     17 H           0.8893   -0.7770   -0.9524 H.spc      1 <1>        0.000
     18 H           2.7337   -0.9082   -0.5714 H.spc      1 <1>        0.000
@<TRIPOS>BOND
     1    6    7 1  
     2    7    8 2  
     3    5    6 2  
     4    1    2 2  
     5    2    3 1  
     6    3    4 2  
     7    4    5 1  
     8    1    9 1  
     9    1   10 1  
    10    2   11 1  
    11    3   12 1  
    12    4   13 1  
    13    5   14 1  
    14    6   15 1  
    15    7   16 1  
    16    8   17 1  
    17    8   18 1  
