#      Rotatable Fragment
#      Build by yxyuan
#
# Name:          frag3-110-87/31924
# Creation time: Sat Jun  5 12:52:00 2010


@<TRIPOS>MOLECULE
frag3-110-87/31924
    9     8     1     1     1
SMALL
USER_CHARGES


@<TRIPOS>ATOM
      1 C29         1.5584    0.0432   -0.1904 C.2        1 <1>        0.000
      2 C30         0.3876   -0.4289    0.2517 C.2        1 <1>        0.000
      3 C32        -0.8697    0.1523   -0.2052 C.2        1 <1>        0.000
      4 O8         -1.9027   -0.4626   -0.4032 O.2        1 <1>        0.000
      5 O9         -0.7592    1.4654   -0.4201 O.3        1 <1>        0.000
      6 H           1.5796    0.8707   -0.8996 H.spc      1 <1>        0.000
      7 H           2.4913   -0.3996    0.1585 H.spc      1 <1>        0.000
      8 H           0.3730   -1.2566    0.9608 H.spc      1 <1>        0.000
      9 H           0.1315    1.7502   -0.2029 H.spc      1 <1>        0.000
@<TRIPOS>BOND
     1    1    2 2  
     2    2    3 1  
     3    3    5 1  
     4    3    4 2  
     5    1    6 1  
     6    1    7 1  
     7    2    8 1  
     8    5    9 1  
# Name:          frag3-110-87/31924
# Creation time: Sat Jun  5 12:52:00 2010


@<TRIPOS>MOLECULE
frag3-110-87/31924
    9     8     1     1     1
SMALL
USER_CHARGES


@<TRIPOS>ATOM
      1 C29         1.3262   -0.8365   -0.0047 C.2        1 <1>        0.000
      2 C30         0.6464    0.3092   -0.0180 C.2        1 <1>        0.000
      3 C32        -0.7973    0.3380   -0.2472 C.2        1 <1>        0.000
      4 O8         -1.5077   -0.6341   -0.4181 O.2        1 <1>        0.000
      5 O9         -1.2531    1.5928   -0.2790 O.3        1 <1>        0.000
      6 H           0.8063   -1.7806   -0.1670 H.spc      1 <1>        0.000
      7 H           2.4023   -0.8297    0.1685 H.spc      1 <1>        0.000
      8 H           1.1786    1.2463    0.1457 H.spc      1 <1>        0.000
      9 H          -0.5267    2.2000   -0.1203 H.spc      1 <1>        0.000
@<TRIPOS>BOND
     1    1    2 2  
     2    2    3 1  
     3    3    5 1  
     4    3    4 2  
     5    1    6 1  
     6    1    7 1  
     7    2    8 1  
     8    5    9 1  
# Name:          frag3-110-87/31924 -- energy: 1.848737
# Creation time: Sat Jun  5 12:52:00 2010


@<TRIPOS>MOLECULE
frag3-110-87/31924 -- energy: 1.848737
    9     8     1     1     1
SMALL
USER_CHARGES


@<TRIPOS>ATOM
      1 C29         1.5584    0.0432   -0.1904 C.2        1 <1>        0.000
      2 C30         0.3876   -0.4289    0.2517 C.2        1 <1>        0.000
      3 C32        -0.8697    0.1523   -0.2052 C.2        1 <1>        0.000
      4 O8         -1.9027   -0.4626   -0.4032 O.2        1 <1>        0.000
      5 O9         -0.7592    1.4654   -0.4201 O.3        1 <1>        0.000
      6 H           1.5796    0.8707   -0.8996 H.spc      1 <1>        0.000
      7 H           2.4913   -0.3996    0.1585 H.spc      1 <1>        0.000
      8 H           0.3730   -1.2566    0.9608 H.spc      1 <1>        0.000
      9 H           0.1315    1.7502   -0.2029 H.spc      1 <1>        0.000
@<TRIPOS>BOND
     1    1    2 2  
     2    2    3 1  
     3    3    5 1  
     4    3    4 2  
     5    1    6 1  
     6    1    7 1  
     7    2    8 1  
     8    5    9 1  
# Name:          frag3-110-87/31924 -- energy: 0.325614
# Creation time: Sat Jun  5 12:52:00 2010


@<TRIPOS>MOLECULE
frag3-110-87/31924 -- energy: 0.325614
    9     8     1     1     1
SMALL
USER_CHARGES


@<TRIPOS>ATOM
      1 C29         1.3262   -0.8365   -0.0047 C.2        1 <1>        0.000
      2 C30         0.6464    0.3092   -0.0180 C.2        1 <1>        0.000
      3 C32        -0.7973    0.3380   -0.2472 C.2        1 <1>        0.000
      4 O8         -1.5077   -0.6341   -0.4181 O.2        1 <1>        0.000
      5 O9         -1.2531    1.5928   -0.2790 O.3        1 <1>        0.000
      6 H           0.8063   -1.7806   -0.1670 H.spc      1 <1>        0.000
      7 H           2.4023   -0.8297    0.1685 H.spc      1 <1>        0.000
      8 H           1.1786    1.2463    0.1457 H.spc      1 <1>        0.000
      9 H          -0.5267    2.2000   -0.1203 H.spc      1 <1>        0.000
@<TRIPOS>BOND
     1    1    2 2  
     2    2    3 1  
     3    3    5 1  
     4    3    4 2  
     5    1    6 1  
     6    1    7 1  
     7    2    8 1  
     8    5    9 1  
