#      Rotatable Fragment
#      Build by yxyuan
#
# Name:          frag3-286-3/96164
# Creation time: Sat Jun  5 12:53:28 2010


@<TRIPOS>MOLECULE
frag3-286-3/96164
   16    15     1     1     1
SMALL
USER_CHARGES


@<TRIPOS>ATOM
      1 C11        -3.4397   -0.4190   -0.0231 C.2        1 <1>        0.000
      2 N2         -2.2602    0.2129   -0.1977 N.am       1 <1>        0.000
      3 O2         -3.5154   -1.5710    0.3746 O.2        1 <1>        0.000
      4 N3         -1.0006   -0.4856   -0.0127 N.am       1 <1>        0.000
      5 C16         0.1698    0.1790   -0.0943 C.2        1 <1>        0.000
      6 N4          0.2302    1.5120    0.1186 N.am       1 <1>        0.000
      7 O3          1.1984   -0.4317   -0.3659 O.2        1 <1>        0.000
      8 N5          1.4854    2.2272    0.0210 N.am       1 <1>        0.000
      9 C17         1.6753    3.3878    0.6810 C.2        1 <1>        0.000
     10 O4          0.7517    4.0063    1.1862 O.2        1 <1>        0.000
     11 H          -4.3606    0.1199   -0.2457 H.spc      1 <1>        0.000
     12 H          -2.2533    1.1975   -0.4640 H.spc      1 <1>        0.000
     13 H          -1.0012   -1.4871    0.1805 H.spc      1 <1>        0.000
     14 H          -0.6216    2.0223    0.3517 H.spc      1 <1>        0.000
     15 H           2.2367    1.8478   -0.5552 H.spc      1 <1>        0.000
     16 H           2.6861    3.7867    0.7662 H.spc      1 <1>        0.000
@<TRIPOS>BOND
     1    8    9 am 
     2    9   10 2  
     3    1    2 am 
     4    2    4 1  
     5    1    3 2  
     6    4    5 am 
     7    5    6 am 
     8    5    7 2  
     9    6    8 1  
    10    1   11 1  
    11    2   12 1  
    12    4   13 1  
    13    6   14 1  
    14    8   15 1  
    15    9   16 1  
# Name:          frag3-286-3/96164
# Creation time: Sat Jun  5 12:53:28 2010


@<TRIPOS>MOLECULE
frag3-286-3/96164
   16    15     1     1     1
SMALL
USER_CHARGES


@<TRIPOS>ATOM
      1 C11         1.4074    3.4027    0.3826 C.2        1 <1>        0.000
      2 N2          0.9542    2.4928   -0.5050 N.am       1 <1>        0.000
      3 O2          1.0233    3.4391    1.5423 O.2        1 <1>        0.000
      4 N3         -0.0303    1.5101   -0.1310 N.am       1 <1>        0.000
      5 C16         0.2881    0.2064    0.0203 C.2        1 <1>        0.000
      6 N4         -0.6424   -0.7146    0.3356 N.am       1 <1>        0.000
      7 O3          1.4595   -0.1403   -0.1413 O.2        1 <1>        0.000
      8 N5         -2.0138   -0.3208    0.5563 N.am       1 <1>        0.000
      9 C17        -3.0300   -0.8913   -0.1225 C.2        1 <1>        0.000
     10 O4         -4.1214   -0.3663   -0.2497 O.2        1 <1>        0.000
     11 H           2.1451    4.1340    0.0522 H.spc      1 <1>        0.000
     12 H           1.3156    2.5011   -1.4588 H.spc      1 <1>        0.000
     13 H          -0.9938    1.8068    0.0237 H.spc      1 <1>        0.000
     14 H          -0.3768   -1.6959    0.4190 H.spc      1 <1>        0.000
     15 H          -2.2190    0.4061    1.2418 H.spc      1 <1>        0.000
     16 H          -2.8668   -1.8678   -0.5785 H.spc      1 <1>        0.000
@<TRIPOS>BOND
     1    8    9 am 
     2    9   10 2  
     3    1    2 am 
     4    2    4 1  
     5    1    3 2  
     6    4    5 am 
     7    5    6 am 
     8    5    7 2  
     9    6    8 1  
    10    1   11 1  
    11    2   12 1  
    12    4   13 1  
    13    6   14 1  
    14    8   15 1  
    15    9   16 1  
# Name:          frag3-286-3/96164
# Creation time: Sat Jun  5 12:53:28 2010


@<TRIPOS>MOLECULE
frag3-286-3/96164
   16    15     1     1     1
SMALL
USER_CHARGES


@<TRIPOS>ATOM
      1 C11         1.8999    3.5778    0.2678 C.2        1 <1>        0.000
      2 N2          1.6436    2.2828   -0.0136 N.am       1 <1>        0.000
      3 O2          1.2624    4.2088    1.0957 O.2        1 <1>        0.000
      4 N3          0.6661    1.5294    0.7521 N.am       1 <1>        0.000
      5 C16        -0.0084    0.5018    0.1926 C.2        1 <1>        0.000
      6 N4         -1.2612    0.1930    0.5930 N.am       1 <1>        0.000
      7 O3          0.5208   -0.1552   -0.6949 O.2        1 <1>        0.000
      8 N5         -2.0292   -0.8269   -0.0960 N.am       1 <1>        0.000
      9 C17        -3.3567   -0.9524    0.1088 C.2        1 <1>        0.000
     10 O4         -4.0426   -1.7415   -0.5180 O.2        1 <1>        0.000
     11 H           2.7076    4.0796   -0.2650 H.spc      1 <1>        0.000
     12 H           2.1443    1.8261   -0.7760 H.spc      1 <1>        0.000
     13 H           0.4868    1.7795    1.7246 H.spc      1 <1>        0.000
     14 H          -1.6716    0.6822    1.3884 H.spc      1 <1>        0.000
     15 H          -1.5587   -1.4581   -0.7446 H.spc      1 <1>        0.000
     16 H          -3.8334   -0.3253    0.8622 H.spc      1 <1>        0.000
@<TRIPOS>BOND
     1    8    9 am 
     2    9   10 2  
     3    1    2 am 
     4    2    4 1  
     5    1    3 2  
     6    4    5 am 
     7    5    6 am 
     8    5    7 2  
     9    6    8 1  
    10    1   11 1  
    11    2   12 1  
    12    4   13 1  
    13    6   14 1  
    14    8   15 1  
    15    9   16 1  
# Name:          frag3-286-3/96164
# Creation time: Sat Jun  5 12:53:28 2010


@<TRIPOS>MOLECULE
frag3-286-3/96164
   16    15     1     1     1
SMALL
USER_CHARGES


@<TRIPOS>ATOM
      1 C11        -3.1414   -1.1217    0.0103 C.2        1 <1>        0.000
      2 N2         -2.1546   -0.2123   -0.1295 N.am       1 <1>        0.000
      3 O2         -4.2264   -0.8683    0.5017 O.2        1 <1>        0.000
      4 N3         -0.8384   -0.5795   -0.5898 N.am       1 <1>        0.000
      5 C16         0.2414    0.1283   -0.2130 C.2        1 <1>        0.000
      6 N4          0.1252    1.3055    0.4375 N.am       1 <1>        0.000
      7 O3          1.3705   -0.2977   -0.4677 O.2        1 <1>        0.000
      8 N5          1.1368    2.3172    0.3605 N.am       1 <1>        0.000
      9 C17         0.9515    3.5526    0.8658 C.2        1 <1>        0.000
     10 O4          1.8300    4.3938    0.9120 O.2        1 <1>        0.000
     11 H          -2.9574   -2.1389   -0.3355 H.spc      1 <1>        0.000
     12 H          -2.3453    0.7638    0.0971 H.spc      1 <1>        0.000
     13 H          -0.7252   -1.3836   -1.2070 H.spc      1 <1>        0.000
     14 H          -0.7073    1.4799    1.0004 H.spc      1 <1>        0.000
     15 H           2.0244    2.0955   -0.0906 H.spc      1 <1>        0.000
     16 H          -0.0342    3.8115    1.2524 H.spc      1 <1>        0.000
@<TRIPOS>BOND
     1    8    9 am 
     2    9   10 2  
     3    1    2 am 
     4    2    4 1  
     5    1    3 2  
     6    4    5 am 
     7    5    6 am 
     8    5    7 2  
     9    6    8 1  
    10    1   11 1  
    11    2   12 1  
    12    4   13 1  
    13    6   14 1  
    14    8   15 1  
    15    9   16 1  
# Name:          frag3-286-3/96164
# Creation time: Sat Jun  5 12:53:28 2010


@<TRIPOS>MOLECULE
frag3-286-3/96164
   16    15     1     1     1
SMALL
USER_CHARGES


@<TRIPOS>ATOM
      1 C11         1.8460    3.5917    0.4870 C.2        1 <1>        0.000
      2 N2          1.3346    2.3429    0.4852 N.am       1 <1>        0.000
      3 O2          2.9955    3.8370    0.8108 O.2        1 <1>        0.000
      4 N3         -0.0854    2.1102    0.3229 N.am       1 <1>        0.000
      5 C16        -0.5700    0.8656    0.1285 C.2        1 <1>        0.000
      6 N4         -1.8451    0.6644   -0.2679 N.am       1 <1>        0.000
      7 O3          0.1645   -0.1006    0.3082 O.2        1 <1>        0.000
      8 N5         -2.2982   -0.6498   -0.6730 N.am       1 <1>        0.000
      9 C17        -2.9037   -1.4769    0.2046 C.2        1 <1>        0.000
     10 O4         -3.3434   -2.5668   -0.1187 O.2        1 <1>        0.000
     11 H           1.2025    4.4182    0.1854 H.spc      1 <1>        0.000
     12 H           1.9613    1.5464    0.6005 H.spc      1 <1>        0.000
     13 H          -0.7301    2.8999    0.3560 H.spc      1 <1>        0.000
     14 H          -2.4975    1.4483   -0.2821 H.spc      1 <1>        0.000
     15 H          -2.1576   -0.9549   -1.6361 H.spc      1 <1>        0.000
     16 H          -3.0034   -1.1582    1.2422 H.spc      1 <1>        0.000
@<TRIPOS>BOND
     1    8    9 am 
     2    9   10 2  
     3    1    2 am 
     4    2    4 1  
     5    1    3 2  
     6    4    5 am 
     7    5    6 am 
     8    5    7 2  
     9    6    8 1  
    10    1   11 1  
    11    2   12 1  
    12    4   13 1  
    13    6   14 1  
    14    8   15 1  
    15    9   16 1  
# Name:          frag3-286-3/96164
# Creation time: Sat Jun  5 12:53:28 2010


@<TRIPOS>MOLECULE
frag3-286-3/96164
   16    15     1     1     1
SMALL
USER_CHARGES


@<TRIPOS>ATOM
      1 C11        -2.9610   -0.1384    0.3580 C.2        1 <1>        0.000
      2 N2         -2.3746    0.2289   -0.8025 N.am       1 <1>        0.000
      3 O2         -2.4658   -0.9590    1.1145 O.2        1 <1>        0.000
      4 N3         -1.0373   -0.2236   -1.1386 N.am       1 <1>        0.000
      5 C16         0.0130    0.1134   -0.3609 C.2        1 <1>        0.000
      6 N4          0.0144    1.2599    0.3534 N.am       1 <1>        0.000
      7 O3          0.9857   -0.6331   -0.2961 O.2        1 <1>        0.000
      8 N5          1.2497    1.8414    0.8320 N.am       1 <1>        0.000
      9 C17         1.3852    3.1771    0.9574 C.2        1 <1>        0.000
     10 O4          0.4854    3.9514    0.6705 O.2        1 <1>        0.000
     11 H          -3.9139    0.3158    0.6297 H.spc      1 <1>        0.000
     12 H          -2.8790    0.8328   -1.4516 H.spc      1 <1>        0.000
     13 H          -0.8903   -0.7997   -1.9674 H.spc      1 <1>        0.000
     14 H          -0.8706    1.7236    0.5589 H.spc      1 <1>        0.000
     15 H           2.0297    1.2319    1.0782 H.spc      1 <1>        0.000
     16 H           2.3287    3.5789    1.3269 H.spc      1 <1>        0.000
@<TRIPOS>BOND
     1    8    9 am 
     2    9   10 2  
     3    1    2 am 
     4    2    4 1  
     5    1    3 2  
     6    4    5 am 
     7    5    6 am 
     8    5    7 2  
     9    6    8 1  
    10    1   11 1  
    11    2   12 1  
    12    4   13 1  
    13    6   14 1  
    14    8   15 1  
    15    9   16 1  
# Name:          frag3-286-3/96164
# Creation time: Sat Jun  5 12:53:28 2010


@<TRIPOS>MOLECULE
frag3-286-3/96164
   16    15     1     1     1
SMALL
USER_CHARGES


@<TRIPOS>ATOM
      1 C11         1.0331    3.1422    0.8408 C.2        1 <1>        0.000
      2 N2          1.6268    2.2125    0.0613 N.am       1 <1>        0.000
      3 O2          1.6614    3.9414    1.5139 O.2        1 <1>        0.000
      4 N3          0.8466    1.3436   -0.7946 N.am       1 <1>        0.000
      5 C16        -0.1568    0.5923   -0.2926 C.2        1 <1>        0.000
      6 N4         -0.8429   -0.2716   -1.0717 N.am       1 <1>        0.000
      7 O3         -0.4471    0.6928    0.8956 O.2        1 <1>        0.000
      8 N5         -1.8688   -1.1239   -0.5087 N.am       1 <1>        0.000
      9 C17        -2.8638   -0.6070    0.2434 C.2        1 <1>        0.000
     10 O4         -3.6939   -1.3044    0.8003 O.2        1 <1>        0.000
     11 H          -0.0559    3.1796    0.8694 H.spc      1 <1>        0.000
     12 H           2.6426    2.1210    0.0759 H.spc      1 <1>        0.000
     13 H           1.0580    1.2983   -1.7914 H.spc      1 <1>        0.000
     14 H          -0.6357   -0.3242   -2.0690 H.spc      1 <1>        0.000
     15 H          -1.8395   -2.1285   -0.6826 H.spc      1 <1>        0.000
     16 H          -2.9272    0.4752    0.3569 H.spc      1 <1>        0.000
@<TRIPOS>BOND
     1    8    9 am 
     2    9   10 2  
     3    1    2 am 
     4    2    4 1  
     5    1    3 2  
     6    4    5 am 
     7    5    6 am 
     8    5    7 2  
     9    6    8 1  
    10    1   11 1  
    11    2   12 1  
    12    4   13 1  
    13    6   14 1  
    14    8   15 1  
    15    9   16 1  
# Name:          frag3-286-3/96164
# Creation time: Sat Jun  5 12:53:28 2010


@<TRIPOS>MOLECULE
frag3-286-3/96164
   16    15     1     1     1
SMALL
USER_CHARGES


@<TRIPOS>ATOM
      1 C11         0.4534    3.2782    0.6324 C.2        1 <1>        0.000
      2 N2          0.9442    2.5848   -0.4176 N.am       1 <1>        0.000
      3 O2          0.2703    2.7705    1.7284 O.2        1 <1>        0.000
      4 N3          1.3778    1.2092   -0.2697 N.am       1 <1>        0.000
      5 C16         0.4719    0.2199   -0.1316 C.2        1 <1>        0.000
      6 N4         -0.8454    0.4869   -0.0030 N.am       1 <1>        0.000
      7 O3          0.8452   -0.9523   -0.1419 O.2        1 <1>        0.000
      8 N5         -1.8447   -0.3272   -0.6514 N.am       1 <1>        0.000
      9 C17        -3.0158   -0.6047   -0.0443 C.2        1 <1>        0.000
     10 O4         -3.3622   -0.0476    0.9862 O.2        1 <1>        0.000
     11 H           0.2111    4.3322    0.4966 H.spc      1 <1>        0.000
     12 H           1.0109    3.0364   -1.3298 H.spc      1 <1>        0.000
     13 H           2.3736    0.9885   -0.2701 H.spc      1 <1>        0.000
     14 H          -1.1404    1.2812    0.5648 H.spc      1 <1>        0.000
     15 H          -1.6621   -0.6985   -1.5837 H.spc      1 <1>        0.000
     16 H          -3.6754   -1.3508   -0.4875 H.spc      1 <1>        0.000
@<TRIPOS>BOND
     1    8    9 am 
     2    9   10 2  
     3    1    2 am 
     4    2    4 1  
     5    1    3 2  
     6    4    5 am 
     7    5    6 am 
     8    5    7 2  
     9    6    8 1  
    10    1   11 1  
    11    2   12 1  
    12    4   13 1  
    13    6   14 1  
    14    8   15 1  
    15    9   16 1  
# Name:          frag3-286-3/96164
# Creation time: Sat Jun  5 12:53:28 2010


@<TRIPOS>MOLECULE
frag3-286-3/96164
   16    15     1     1     1
SMALL
USER_CHARGES


@<TRIPOS>ATOM
      1 C11         0.9102    3.2838    1.0187 C.2        1 <1>        0.000
      2 N2          0.7263    2.5112   -0.0723 N.am       1 <1>        0.000
      3 O2          1.8373    4.0628    1.1470 O.2        1 <1>        0.000
      4 N3         -0.1838    1.4078   -0.0778 N.am       1 <1>        0.000
      5 C16         0.2400    0.1266   -0.1414 C.2        1 <1>        0.000
      6 N4         -0.6220   -0.9051   -0.1771 N.am       1 <1>        0.000
      7 O3          1.4547   -0.0909   -0.1803 O.2        1 <1>        0.000
      8 N5         -2.0043   -0.6843   -0.5159 N.am       1 <1>        0.000
      9 C17        -2.9381   -0.4447    0.4282 C.2        1 <1>        0.000
     10 O4         -4.1256   -0.6494    0.2587 O.2        1 <1>        0.000
     11 H           0.1878    3.2061    1.8313 H.spc      1 <1>        0.000
     12 H           1.2532    2.7208   -0.9202 H.spc      1 <1>        0.000
     13 H          -1.1856    1.5944   -0.0322 H.spc      1 <1>        0.000
     14 H          -0.2956   -1.8475    0.0366 H.spc      1 <1>        0.000
     15 H          -2.2850   -0.7097   -1.4962 H.spc      1 <1>        0.000
     16 H          -2.6127   -0.0483    1.3900 H.spc      1 <1>        0.000
@<TRIPOS>BOND
     1    8    9 am 
     2    9   10 2  
     3    1    2 am 
     4    2    4 1  
     5    1    3 2  
     6    4    5 am 
     7    5    6 am 
     8    5    7 2  
     9    6    8 1  
    10    1   11 1  
    11    2   12 1  
    12    4   13 1  
    13    6   14 1  
    14    8   15 1  
    15    9   16 1  
# Name:          frag3-286-3/96164
# Creation time: Sat Jun  5 12:53:28 2010


@<TRIPOS>MOLECULE
frag3-286-3/96164
   16    15     1     1     1
SMALL
USER_CHARGES


@<TRIPOS>ATOM
      1 C11         1.6761    3.3765    0.4712 C.2        1 <1>        0.000
      2 N2          1.6111    2.0405    0.6499 N.am       1 <1>        0.000
      3 O2          0.6823    4.0860    0.4517 O.2        1 <1>        0.000
      4 N3          0.3377    1.3501    0.6772 N.am       1 <1>        0.000
      5 C16         0.1372    0.2268   -0.0469 C.2        1 <1>        0.000
      6 N4         -0.9840   -0.5074    0.1072 N.am       1 <1>        0.000
      7 O3          0.9877   -0.1237   -0.8576 O.2        1 <1>        0.000
      8 N5         -2.2373    0.1325    0.4656 N.am       1 <1>        0.000
      9 C17        -3.4185   -0.4191    0.1182 C.2        1 <1>        0.000
     10 O4         -3.4977   -1.5442   -0.3487 O.2        1 <1>        0.000
     11 H           2.6536    3.8404    0.3391 H.spc      1 <1>        0.000
     12 H           2.4729    1.5078    0.7677 H.spc      1 <1>        0.000
     13 H          -0.4200    1.7179    1.2525 H.spc      1 <1>        0.000
     14 H          -0.9512   -1.5178   -0.0288 H.spc      1 <1>        0.000
     15 H          -2.2245    1.0095    0.9862 H.spc      1 <1>        0.000
     16 H          -4.3319    0.1588    0.2590 H.spc      1 <1>        0.000
@<TRIPOS>BOND
     1    8    9 am 
     2    9   10 2  
     3    1    2 am 
     4    2    4 1  
     5    1    3 2  
     6    4    5 am 
     7    5    6 am 
     8    5    7 2  
     9    6    8 1  
    10    1   11 1  
    11    2   12 1  
    12    4   13 1  
    13    6   14 1  
    14    8   15 1  
    15    9   16 1  
# Name:          frag3-286-3/96164
# Creation time: Sat Jun  5 12:53:28 2010


@<TRIPOS>MOLECULE
frag3-286-3/96164
   16    15     1     1     1
SMALL
USER_CHARGES


@<TRIPOS>ATOM
      1 C11        -3.1134   -0.5713   -0.0292 C.2        1 <1>        0.000
      2 N2         -1.9029   -0.0094    0.1669 N.am       1 <1>        0.000
      3 O2         -4.1215   -0.2157    0.5546 O.2        1 <1>        0.000
      4 N3         -0.6880   -0.6348   -0.2999 N.am       1 <1>        0.000
      5 C16         0.4922    0.0059   -0.2099 C.2        1 <1>        0.000
      6 N4          0.6640    1.0547    0.6218 N.am       1 <1>        0.000
      7 O3          1.4395   -0.3605   -0.9072 O.2        1 <1>        0.000
      8 N5          1.4654    2.1925    0.2481 N.am       1 <1>        0.000
      9 C17         1.0935    3.4465    0.5759 C.2        1 <1>        0.000
     10 O4         -0.0340    3.7098    0.9666 O.2        1 <1>        0.000
     11 H          -3.1937   -1.3867   -0.7481 H.spc      1 <1>        0.000
     12 H          -1.8441    0.8823    0.6587 H.spc      1 <1>        0.000
     13 H          -0.7246   -1.5715   -0.7019 H.spc      1 <1>        0.000
     14 H           0.2154    1.0417    1.5378 H.spc      1 <1>        0.000
     15 H           2.3296    2.0467   -0.2738 H.spc      1 <1>        0.000
     16 H           1.8228    4.2520    0.4895 H.spc      1 <1>        0.000
@<TRIPOS>BOND
     1    8    9 am 
     2    9   10 2  
     3    1    2 am 
     4    2    4 1  
     5    1    3 2  
     6    4    5 am 
     7    5    6 am 
     8    5    7 2  
     9    6    8 1  
    10    1   11 1  
    11    2   12 1  
    12    4   13 1  
    13    6   14 1  
    14    8   15 1  
    15    9   16 1  
# Name:          frag3-286-3/96164
# Creation time: Sat Jun  5 12:53:28 2010


@<TRIPOS>MOLECULE
frag3-286-3/96164
   16    15     1     1     1
SMALL
USER_CHARGES


@<TRIPOS>ATOM
      1 C11         1.1075    3.2861    0.4214 C.2        1 <1>        0.000
      2 N2          0.8983    2.1166    1.0630 N.am       1 <1>        0.000
      3 O2          1.1798    4.3613    0.9887 O.2        1 <1>        0.000
      4 N3          1.0959    0.8454    0.4119 N.am       1 <1>        0.000
      5 C16         0.0629    0.2136   -0.1753 C.2        1 <1>        0.000
      6 N4         -1.1841    0.7321   -0.1672 N.am       1 <1>        0.000
      7 O3          0.2512   -0.8645   -0.7447 O.2        1 <1>        0.000
      8 N5         -2.2847    0.0730   -0.8154 N.am       1 <1>        0.000
      9 C17        -3.1063   -0.7472   -0.1278 C.2        1 <1>        0.000
     10 O4         -2.7259   -1.3987    0.8330 O.2        1 <1>        0.000
     11 H           1.2176    3.2668   -0.6629 H.spc      1 <1>        0.000
     12 H           0.5918    2.1329    2.0357 H.spc      1 <1>        0.000
     13 H           2.0240    0.4225    0.3963 H.spc      1 <1>        0.000
     14 H          -1.3496    1.6168    0.3127 H.spc      1 <1>        0.000
     15 H          -2.4471    0.2277   -1.8104 H.spc      1 <1>        0.000
     16 H          -4.1469   -0.8315   -0.4409 H.spc      1 <1>        0.000
@<TRIPOS>BOND
     1    8    9 am 
     2    9   10 2  
     3    1    2 am 
     4    2    4 1  
     5    1    3 2  
     6    4    5 am 
     7    5    6 am 
     8    5    7 2  
     9    6    8 1  
    10    1   11 1  
    11    2   12 1  
    12    4   13 1  
    13    6   14 1  
    14    8   15 1  
    15    9   16 1  
# Name:          frag3-286-3/96164
# Creation time: Sat Jun  5 12:53:28 2010


@<TRIPOS>MOLECULE
frag3-286-3/96164
   16    15     1     1     1
SMALL
USER_CHARGES


@<TRIPOS>ATOM
      1 C11         0.9193    3.6043    0.4913 C.2        1 <1>        0.000
      2 N2          0.7898    2.6451   -0.4494 N.am       1 <1>        0.000
      3 O2          1.0003    3.3515    1.6837 O.2        1 <1>        0.000
      4 N3          1.2780    1.3006   -0.2235 N.am       1 <1>        0.000
      5 C16         0.4173    0.2813   -0.0514 C.2        1 <1>        0.000
      6 N4         -0.9132    0.4871    0.0507 N.am       1 <1>        0.000
      7 O3          0.8429   -0.8747    0.0012 O.2        1 <1>        0.000
      8 N5         -1.8567   -0.5878   -0.0551 N.am       1 <1>        0.000
      9 C17        -3.1865   -0.3713   -0.0451 C.2        1 <1>        0.000
     10 O4         -3.9966   -1.2183    0.2853 O.2        1 <1>        0.000
     11 H           0.9530    4.6466    0.1742 H.spc      1 <1>        0.000
     12 H           0.3395    2.8715   -1.3362 H.spc      1 <1>        0.000
     13 H           2.2824    1.1251   -0.1947 H.spc      1 <1>        0.000
     14 H          -1.2572    1.4344    0.2076 H.spc      1 <1>        0.000
     15 H          -1.5111   -1.5437   -0.1404 H.spc      1 <1>        0.000
     16 H          -3.5549    0.6091   -0.3473 H.spc      1 <1>        0.000
@<TRIPOS>BOND
     1    8    9 am 
     2    9   10 2  
     3    1    2 am 
     4    2    4 1  
     5    1    3 2  
     6    4    5 am 
     7    5    6 am 
     8    5    7 2  
     9    6    8 1  
    10    1   11 1  
    11    2   12 1  
    12    4   13 1  
    13    6   14 1  
    14    8   15 1  
    15    9   16 1  
# Name:          frag3-286-3/96164
# Creation time: Sat Jun  5 12:53:28 2010


@<TRIPOS>MOLECULE
frag3-286-3/96164
   16    15     1     1     1
SMALL
USER_CHARGES


@<TRIPOS>ATOM
      1 C11        -2.4908   -0.3162    0.6743 C.2        1 <1>        0.000
      2 N2         -2.1216   -0.1653   -0.6173 N.am       1 <1>        0.000
      3 O2         -3.6527   -0.3364    1.0398 O.2        1 <1>        0.000
      4 N3         -0.7984   -0.5262   -1.0708 N.am       1 <1>        0.000
      5 C16         0.2883    0.0863   -0.5607 C.2        1 <1>        0.000
      6 N4          0.2549    1.3810   -0.1825 N.am       1 <1>        0.000
      7 O3          1.3330   -0.5491   -0.4155 O.2        1 <1>        0.000
      8 N5          1.0812    1.8763    0.8906 N.am       1 <1>        0.000
      9 C17         1.0494    3.1739    1.2539 C.2        1 <1>        0.000
     10 O4          0.3514    3.9935    0.6760 O.2        1 <1>        0.000
     11 H          -1.7096   -0.4253    1.4266 H.spc      1 <1>        0.000
     12 H          -2.7924    0.2119   -1.2867 H.spc      1 <1>        0.000
     13 H          -0.6859   -1.2491   -1.7815 H.spc      1 <1>        0.000
     14 H          -0.3700    2.0251   -0.6674 H.spc      1 <1>        0.000
     15 H           1.7008    1.2332    1.3835 H.spc      1 <1>        0.000
     16 H           1.6663    3.5027    2.0902 H.spc      1 <1>        0.000
@<TRIPOS>BOND
     1    8    9 am 
     2    9   10 2  
     3    1    2 am 
     4    2    4 1  
     5    1    3 2  
     6    4    5 am 
     7    5    6 am 
     8    5    7 2  
     9    6    8 1  
    10    1   11 1  
    11    2   12 1  
    12    4   13 1  
    13    6   14 1  
    14    8   15 1  
    15    9   16 1  
# Name:          frag3-286-3/96164
# Creation time: Sat Jun  5 12:53:28 2010


@<TRIPOS>MOLECULE
frag3-286-3/96164
   16    15     1     1     1
SMALL
USER_CHARGES


@<TRIPOS>ATOM
      1 C11        -3.3217   -0.4028    0.3623 C.2        1 <1>        0.000
      2 N2         -2.0557   -0.2257    0.7943 N.am       1 <1>        0.000
      3 O2         -3.5827   -0.9088   -0.7181 O.2        1 <1>        0.000
      4 N3         -0.9226   -0.6527   -0.0062 N.am       1 <1>        0.000
      5 C16         0.2022    0.0887   -0.0506 C.2        1 <1>        0.000
      6 N4          0.1774    1.4124    0.2193 N.am       1 <1>        0.000
      7 O3          1.2707   -0.4440   -0.3368 O.2        1 <1>        0.000
      8 N5          1.2795    2.2718   -0.1540 N.am       1 <1>        0.000
      9 C17         1.5611    3.3857    0.5516 C.2        1 <1>        0.000
     10 O4          0.6865    4.0934    1.0259 O.2        1 <1>        0.000
     11 H          -4.1434   -0.0818    1.0025 H.spc      1 <1>        0.000
     12 H          -1.8921    0.2159    1.6991 H.spc      1 <1>        0.000
     13 H          -0.9780   -1.5206   -0.5393 H.spc      1 <1>        0.000
     14 H          -0.6319    1.8123    0.6942 H.spc      1 <1>        0.000
     15 H           1.8522    2.0315   -0.9631 H.spc      1 <1>        0.000
     16 H           2.6041    3.6636    0.7036 H.spc      1 <1>        0.000
@<TRIPOS>BOND
     1    8    9 am 
     2    9   10 2  
     3    1    2 am 
     4    2    4 1  
     5    1    3 2  
     6    4    5 am 
     7    5    6 am 
     8    5    7 2  
     9    6    8 1  
    10    1   11 1  
    11    2   12 1  
    12    4   13 1  
    13    6   14 1  
    14    8   15 1  
    15    9   16 1  
# Name:          frag3-286-3/96164
# Creation time: Sat Jun  5 12:53:28 2010


@<TRIPOS>MOLECULE
frag3-286-3/96164
   16    15     1     1     1
SMALL
USER_CHARGES


@<TRIPOS>ATOM
      1 C11         0.5995    2.9891    0.2879 C.2        1 <1>        0.000
      2 N2          0.5295    1.8933    1.0797 N.am       1 <1>        0.000
      3 O2          0.1117    4.0753    0.5505 O.2        1 <1>        0.000
      4 N3          1.0345    0.6267    0.6968 N.am       1 <1>        0.000
      5 C16         0.4375   -0.0814   -0.2903 C.2        1 <1>        0.000
      6 N4         -0.7912    0.2579   -0.7345 N.am       1 <1>        0.000
      7 O3          1.0214   -1.0515   -0.7849 O.2        1 <1>        0.000
      8 N5         -1.7626    0.8228    0.1527 N.am       1 <1>        0.000
      9 C17        -2.8272    0.1073    0.5698 C.2        1 <1>        0.000
     10 O4         -3.0583   -1.0215    0.1600 O.2        1 <1>        0.000
     11 H           1.1333    2.8930   -0.6576 H.spc      1 <1>        0.000
     12 H           0.0918    1.9843    1.9965 H.spc      1 <1>        0.000
     13 H           1.8544    0.2451    1.1685 H.spc      1 <1>        0.000
     14 H          -1.0307    0.1099   -1.7149 H.spc      1 <1>        0.000
     15 H          -1.6475    1.7836    0.4751 H.spc      1 <1>        0.000
     16 H          -3.5058    0.5511    1.2982 H.spc      1 <1>        0.000
@<TRIPOS>BOND
     1    8    9 am 
     2    9   10 2  
     3    1    2 am 
     4    2    4 1  
     5    1    3 2  
     6    4    5 am 
     7    5    6 am 
     8    5    7 2  
     9    6    8 1  
    10    1   11 1  
    11    2   12 1  
    12    4   13 1  
    13    6   14 1  
    14    8   15 1  
    15    9   16 1  
# Name:          frag3-286-3/96164
# Creation time: Sat Jun  5 12:53:28 2010


@<TRIPOS>MOLECULE
frag3-286-3/96164
   16    15     1     1     1
SMALL
USER_CHARGES


@<TRIPOS>ATOM
      1 C11         1.9483    3.4417    0.5202 C.2        1 <1>        0.000
      2 N2          1.5564    2.2202    0.0995 N.am       1 <1>        0.000
      3 O2          1.3131    4.0906    1.3355 O.2        1 <1>        0.000
      4 N3          0.3620    1.5903    0.6406 N.am       1 <1>        0.000
      5 C16        -0.1996    0.5305    0.0169 C.2        1 <1>        0.000
      6 N4         -1.5371    0.4731   -0.1728 N.am       1 <1>        0.000
      7 O3          0.5086   -0.3807   -0.3837 O.2        1 <1>        0.000
      8 N5         -2.1334   -0.6473   -0.8834 N.am       1 <1>        0.000
      9 C17        -3.1600   -1.3370   -0.3438 C.2        1 <1>        0.000
     10 O4         -3.3636   -1.3635    0.8587 O.2        1 <1>        0.000
     11 H           2.8679    3.8648    0.1159 H.spc      1 <1>        0.000
     12 H           2.1057    1.7320   -0.6079 H.spc      1 <1>        0.000
     13 H          -0.0555    1.9515    1.4983 H.spc      1 <1>        0.000
     14 H          -2.1320    1.2205    0.1848 H.spc      1 <1>        0.000
     15 H          -1.7718   -0.9143   -1.7990 H.spc      1 <1>        0.000
     16 H          -3.8293   -1.8886   -1.0040 H.spc      1 <1>        0.000
@<TRIPOS>BOND
     1    8    9 am 
     2    9   10 2  
     3    1    2 am 
     4    2    4 1  
     5    1    3 2  
     6    4    5 am 
     7    5    6 am 
     8    5    7 2  
     9    6    8 1  
    10    1   11 1  
    11    2   12 1  
    12    4   13 1  
    13    6   14 1  
    14    8   15 1  
    15    9   16 1  
# Name:          frag3-286-3/96164
# Creation time: Sat Jun  5 12:53:29 2010


@<TRIPOS>MOLECULE
frag3-286-3/96164
   16    15     1     1     1
SMALL
USER_CHARGES


@<TRIPOS>ATOM
      1 C11        -2.5944   -1.0015    0.2616 C.2        1 <1>        0.000
      2 N2         -2.3346    0.2193   -0.2578 N.am       1 <1>        0.000
      3 O2         -3.4558   -1.7491   -0.1649 O.2        1 <1>        0.000
      4 N3         -1.1935    0.9784    0.1432 N.am       1 <1>        0.000
      5 C16         0.0557    0.4596    0.1120 C.2        1 <1>        0.000
      6 N4          1.1086    1.1745   -0.3212 N.am       1 <1>        0.000
      7 O3          0.2193   -0.7087    0.4808 O.2        1 <1>        0.000
      8 N5          0.9749    2.5925   -0.5673 N.am       1 <1>        0.000
      9 C17         1.1986    3.4911    0.4152 C.2        1 <1>        0.000
     10 O4          1.3160    3.1617    1.5862 O.2        1 <1>        0.000
     11 H          -1.9986   -1.3358    1.1109 H.spc      1 <1>        0.000
     12 H          -2.9702    0.6083   -0.9543 H.spc      1 <1>        0.000
     13 H          -1.3238    1.9385    0.4620 H.spc      1 <1>        0.000
     14 H           2.0055    0.7143   -0.4768 H.spc      1 <1>        0.000
     15 H           0.7079    2.9188   -1.4961 H.spc      1 <1>        0.000
     16 H           1.2772    4.5467    0.1550 H.spc      1 <1>        0.000
@<TRIPOS>BOND
     1    8    9 am 
     2    9   10 2  
     3    1    2 am 
     4    2    4 1  
     5    1    3 2  
     6    4    5 am 
     7    5    6 am 
     8    5    7 2  
     9    6    8 1  
    10    1   11 1  
    11    2   12 1  
    12    4   13 1  
    13    6   14 1  
    14    8   15 1  
    15    9   16 1  
# Name:          frag3-286-3/96164
# Creation time: Sat Jun  5 12:53:29 2010


@<TRIPOS>MOLECULE
frag3-286-3/96164
   16    15     1     1     1
SMALL
USER_CHARGES


@<TRIPOS>ATOM
      1 C11         1.3721    3.5488    0.3800 C.2        1 <1>        0.000
      2 N2          0.9635    2.3440    0.8275 N.am       1 <1>        0.000
      3 O2          2.3441    4.1359    0.8205 O.2        1 <1>        0.000
      4 N3         -0.0919    1.6131    0.1843 N.am       1 <1>        0.000
      5 C16         0.0066    0.2878   -0.0602 C.2        1 <1>        0.000
      6 N4         -1.0757   -0.5105   -0.0433 N.am       1 <1>        0.000
      7 O3          1.1160   -0.1909   -0.2983 O.2        1 <1>        0.000
      8 N5         -2.4071    0.0594   -0.0206 N.am       1 <1>        0.000
      9 C17        -3.5006   -0.7262   -0.0890 C.2        1 <1>        0.000
     10 O4         -3.4322   -1.9436   -0.0133 O.2        1 <1>        0.000
     11 H           0.8018    4.0227   -0.4189 H.spc      1 <1>        0.000
     12 H           1.4174    1.9402    1.6468 H.spc      1 <1>        0.000
     13 H          -0.9389    2.1077   -0.0956 H.spc      1 <1>        0.000
     14 H          -0.9582   -1.5237   -0.0465 H.spc      1 <1>        0.000
     15 H          -2.5191    1.0709    0.0482 H.spc      1 <1>        0.000
     16 H          -4.4776   -0.2599   -0.2160 H.spc      1 <1>        0.000
@<TRIPOS>BOND
     1    8    9 am 
     2    9   10 2  
     3    1    2 am 
     4    2    4 1  
     5    1    3 2  
     6    4    5 am 
     7    5    6 am 
     8    5    7 2  
     9    6    8 1  
    10    1   11 1  
    11    2   12 1  
    12    4   13 1  
    13    6   14 1  
    14    8   15 1  
    15    9   16 1  
# Name:          frag3-286-3/96164
# Creation time: Sat Jun  5 12:53:29 2010


@<TRIPOS>MOLECULE
frag3-286-3/96164
   16    15     1     1     1
SMALL
USER_CHARGES


@<TRIPOS>ATOM
      1 C11        -2.8906   -0.2580    0.6550 C.2        1 <1>        0.000
      2 N2         -1.9065   -0.0669   -0.2481 N.am       1 <1>        0.000
      3 O2         -4.0755   -0.1656    0.3868 O.2        1 <1>        0.000
      4 N3         -0.5957   -0.6474   -0.0813 N.am       1 <1>        0.000
      5 C16         0.5102    0.0876   -0.2984 C.2        1 <1>        0.000
      6 N4          0.4361    1.3843   -0.6689 N.am       1 <1>        0.000
      7 O3          1.6218   -0.4231   -0.1470 O.2        1 <1>        0.000
      8 N5          1.3450    2.3710   -0.1448 N.am       1 <1>        0.000
      9 C17         0.9645    3.2179    0.8348 C.2        1 <1>        0.000
     10 O4         -0.1146    3.1181    1.3996 O.2        1 <1>        0.000
     11 H          -2.6108   -0.5082    1.6783 H.spc      1 <1>        0.000
     12 H          -2.0943    0.5041   -1.0722 H.spc      1 <1>        0.000
     13 H          -0.5070   -1.6228    0.2035 H.spc      1 <1>        0.000
     14 H          -0.2804    1.6716   -1.3356 H.spc      1 <1>        0.000
     15 H           2.2916    2.4307   -0.5200 H.spc      1 <1>        0.000
     16 H           1.6426    4.0178    1.1322 H.spc      1 <1>        0.000
@<TRIPOS>BOND
     1    8    9 am 
     2    9   10 2  
     3    1    2 am 
     4    2    4 1  
     5    1    3 2  
     6    4    5 am 
     7    5    6 am 
     8    5    7 2  
     9    6    8 1  
    10    1   11 1  
    11    2   12 1  
    12    4   13 1  
    13    6   14 1  
    14    8   15 1  
    15    9   16 1  
# Name:          frag3-286-3/96164
# Creation time: Sat Jun  5 12:53:29 2010


@<TRIPOS>MOLECULE
frag3-286-3/96164
   16    15     1     1     1
SMALL
USER_CHARGES


@<TRIPOS>ATOM
      1 C11        -2.9661   -0.8369    0.3582 C.2        1 <1>        0.000
      2 N2         -2.2243    0.1928    0.8196 N.am       1 <1>        0.000
      3 O2         -2.7691   -1.3555   -0.7308 O.2        1 <1>        0.000
      4 N3         -1.2033    0.7966    0.0062 N.am       1 <1>        0.000
      5 C16         0.0326    0.2617   -0.1010 C.2        1 <1>        0.000
      6 N4          1.0779    0.9812   -0.5550 N.am       1 <1>        0.000
      7 O3          0.2044   -0.9087    0.2478 O.2        1 <1>        0.000
      8 N5          1.1226    2.4066   -0.3466 N.am       1 <1>        0.000
      9 C17         1.0330    2.9406    0.8917 C.2        1 <1>        0.000
     10 O4          0.9869    4.1395    1.0974 O.2        1 <1>        0.000
     11 H          -3.7731   -1.2210    0.9821 H.spc      1 <1>        0.000
     12 H          -2.3909    0.5484    1.7610 H.spc      1 <1>        0.000
     13 H          -1.4185    1.6531   -0.5043 H.spc      1 <1>        0.000
     14 H           1.8399    0.5154   -1.0477 H.spc      1 <1>        0.000
     15 H           1.2240    3.0256   -1.1509 H.spc      1 <1>        0.000
     16 H           1.0005    2.2656    1.7469 H.spc      1 <1>        0.000
@<TRIPOS>BOND
     1    8    9 am 
     2    9   10 2  
     3    1    2 am 
     4    2    4 1  
     5    1    3 2  
     6    4    5 am 
     7    5    6 am 
     8    5    7 2  
     9    6    8 1  
    10    1   11 1  
    11    2   12 1  
    12    4   13 1  
    13    6   14 1  
    14    8   15 1  
    15    9   16 1  
# Name:          frag3-286-3/96164
# Creation time: Sat Jun  5 12:53:29 2010


@<TRIPOS>MOLECULE
frag3-286-3/96164
   16    15     1     1     1
SMALL
USER_CHARGES


@<TRIPOS>ATOM
      1 C11        -3.3309   -0.9749    0.0088 C.2        1 <1>        0.000
      2 N2         -1.9945   -0.8275    0.1286 N.am       1 <1>        0.000
      3 O2         -3.8507   -2.0175   -0.3517 O.2        1 <1>        0.000
      4 N3         -1.4071    0.4583    0.4576 N.am       1 <1>        0.000
      5 C16        -0.1409    0.7544    0.0917 C.2        1 <1>        0.000
      6 N4          0.1829    1.9899   -0.3499 N.am       1 <1>        0.000
      7 O3          0.7253   -0.1076    0.1634 O.2        1 <1>        0.000
      8 N5          1.5708    2.4131   -0.4117 N.am       1 <1>        0.000
      9 C17         2.1123    3.1478    0.5824 C.2        1 <1>        0.000
     10 O4          1.4274    3.7818    1.3684 O.2        1 <1>        0.000
     11 H          -3.9727   -0.1260    0.2443 H.spc      1 <1>        0.000
     12 H          -1.3867   -1.6340   -0.0146 H.spc      1 <1>        0.000
     13 H          -1.9571    1.1467    0.9714 H.spc      1 <1>        0.000
     14 H          -0.5544    2.6312   -0.6425 H.spc      1 <1>        0.000
     15 H           2.1425    2.1522   -1.2151 H.spc      1 <1>        0.000
     16 H           3.1969    3.1758    0.6866 H.spc      1 <1>        0.000
@<TRIPOS>BOND
     1    8    9 am 
     2    9   10 2  
     3    1    2 am 
     4    2    4 1  
     5    1    3 2  
     6    4    5 am 
     7    5    6 am 
     8    5    7 2  
     9    6    8 1  
    10    1   11 1  
    11    2   12 1  
    12    4   13 1  
    13    6   14 1  
    14    8   15 1  
    15    9   16 1  
# Name:          frag3-286-3/96164
# Creation time: Sat Jun  5 12:53:29 2010


@<TRIPOS>MOLECULE
frag3-286-3/96164
   16    15     1     1     1
SMALL
USER_CHARGES


@<TRIPOS>ATOM
      1 C11         0.2293    3.1357    0.5927 C.2        1 <1>        0.000
      2 N2          0.4652    1.8137    0.6921 N.am       1 <1>        0.000
      3 O2         -0.4739    3.7750    1.3513 O.2        1 <1>        0.000
      4 N3          1.0609    1.0425   -0.3480 N.am       1 <1>        0.000
      5 C16         0.7511   -0.2588   -0.5173 C.2        1 <1>        0.000
      6 N4         -0.4986   -0.7112   -0.3008 N.am       1 <1>        0.000
      7 O3          1.6344   -1.0497   -0.8691 O.2        1 <1>        0.000
      8 N5         -1.5962    0.1936   -0.1980 N.am       1 <1>        0.000
      9 C17        -2.6900   -0.0595    0.5436 C.2        1 <1>        0.000
     10 O4         -3.5875    0.7364    0.7411 O.2        1 <1>        0.000
     11 H           0.7039    3.6726   -0.2287 H.spc      1 <1>        0.000
     12 H           0.2040    1.3396    1.5566 H.spc      1 <1>        0.000
     13 H           1.7337    1.4829   -0.9756 H.spc      1 <1>        0.000
     14 H          -0.6623   -1.7138   -0.2092 H.spc      1 <1>        0.000
     15 H          -1.5498    1.0741   -0.7108 H.spc      1 <1>        0.000
     16 H          -2.7774   -1.0461    0.9986 H.spc      1 <1>        0.000
@<TRIPOS>BOND
     1    8    9 am 
     2    9   10 2  
     3    1    2 am 
     4    2    4 1  
     5    1    3 2  
     6    4    5 am 
     7    5    6 am 
     8    5    7 2  
     9    6    8 1  
    10    1   11 1  
    11    2   12 1  
    12    4   13 1  
    13    6   14 1  
    14    8   15 1  
    15    9   16 1  
# Name:          frag3-286-3/96164
# Creation time: Sat Jun  5 12:53:29 2010


@<TRIPOS>MOLECULE
frag3-286-3/96164
   16    15     1     1     1
SMALL
USER_CHARGES


@<TRIPOS>ATOM
      1 C11        -2.9872   -0.4767   -0.2349 C.2        1 <1>        0.000
      2 N2         -1.9011   -0.8481    0.4761 N.am       1 <1>        0.000
      3 O2         -4.1129   -0.8791   -0.0076 O.2        1 <1>        0.000
      4 N3         -0.5748   -0.8205   -0.0823 N.am       1 <1>        0.000
      5 C16         0.1469    0.3127   -0.0644 C.2        1 <1>        0.000
      6 N4         -0.4346    1.5317    0.0031 N.am       1 <1>        0.000
      7 O3          1.3810    0.2497   -0.0992 O.2        1 <1>        0.000
      8 N5          0.3359    2.7341   -0.0041 N.am       1 <1>        0.000
      9 C17         1.4218    2.8808    0.7879 C.2        1 <1>        0.000
     10 O4          2.0198    3.9334    0.9131 O.2        1 <1>        0.000
     11 H          -2.8478    0.2230   -1.0589 H.spc      1 <1>        0.000
     12 H          -2.0245   -1.1582    1.4400 H.spc      1 <1>        0.000
     13 H          -0.1804   -1.6663   -0.4941 H.spc      1 <1>        0.000
     14 H          -1.4511    1.5941    0.0607 H.spc      1 <1>        0.000
     15 H           0.0609    3.4990   -0.6203 H.spc      1 <1>        0.000
     16 H           1.7796    2.0130    1.3420 H.spc      1 <1>        0.000
@<TRIPOS>BOND
     1    8    9 am 
     2    9   10 2  
     3    1    2 am 
     4    2    4 1  
     5    1    3 2  
     6    4    5 am 
     7    5    6 am 
     8    5    7 2  
     9    6    8 1  
    10    1   11 1  
    11    2   12 1  
    12    4   13 1  
    13    6   14 1  
    14    8   15 1  
    15    9   16 1  
# Name:          frag3-286-3/96164
# Creation time: Sat Jun  5 12:53:29 2010


@<TRIPOS>MOLECULE
frag3-286-3/96164
   16    15     1     1     1
SMALL
USER_CHARGES


@<TRIPOS>ATOM
      1 C11        -3.0038   -0.2887    0.0052 C.2        1 <1>        0.000
      2 N2         -2.1638   -0.5804   -1.0135 N.am       1 <1>        0.000
      3 O2         -2.7320   -0.5256    1.1725 O.2        1 <1>        0.000
      4 N3         -0.7477   -0.7675   -0.7838 N.am       1 <1>        0.000
      5 C16        -0.0080    0.2292   -0.2615 C.2        1 <1>        0.000
      6 N4         -0.4545    1.5051   -0.2275 N.am       1 <1>        0.000
      7 O3          1.1038   -0.0210    0.2137 O.2        1 <1>        0.000
      8 N5          0.0831    2.4650    0.6865 N.am       1 <1>        0.000
      9 C17         1.3868    2.8161    0.6541 C.2        1 <1>        0.000
     10 O4          1.8308    3.7856    1.2422 O.2        1 <1>        0.000
     11 H          -3.9623    0.1767   -0.2244 H.spc      1 <1>        0.000
     12 H          -2.5347   -0.6700   -1.9595 H.spc      1 <1>        0.000
     13 H          -0.3081   -1.6575   -1.0183 H.spc      1 <1>        0.000
     14 H          -1.1935    1.7903   -0.8701 H.spc      1 <1>        0.000
     15 H          -0.5318    2.8939    1.3781 H.spc      1 <1>        0.000
     16 H           2.0750    2.2019    0.0734 H.spc      1 <1>        0.000
@<TRIPOS>BOND
     1    8    9 am 
     2    9   10 2  
     3    1    2 am 
     4    2    4 1  
     5    1    3 2  
     6    4    5 am 
     7    5    6 am 
     8    5    7 2  
     9    6    8 1  
    10    1   11 1  
    11    2   12 1  
    12    4   13 1  
    13    6   14 1  
    14    8   15 1  
    15    9   16 1  
# Name:          frag3-286-3/96164
# Creation time: Sat Jun  5 12:53:29 2010


@<TRIPOS>MOLECULE
frag3-286-3/96164
   16    15     1     1     1
SMALL
USER_CHARGES


@<TRIPOS>ATOM
      1 C11        -3.3654   -0.9235   -0.0469 C.2        1 <1>        0.000
      2 N2         -2.0297   -0.7893    0.0884 N.am       1 <1>        0.000
      3 O2         -3.9684   -1.9299    0.2844 O.2        1 <1>        0.000
      4 N3         -1.3397    0.3956   -0.3743 N.am       1 <1>        0.000
      5 C16        -0.0037    0.5261   -0.2330 C.2        1 <1>        0.000
      6 N4          0.6441    1.6252   -0.6740 N.am       1 <1>        0.000
      7 O3          0.6323   -0.3688    0.3155 O.2        1 <1>        0.000
      8 N5          1.5520    2.3483    0.1909 N.am       1 <1>        0.000
      9 C17         1.2349    3.5696    0.6695 C.2        1 <1>        0.000
     10 O4          1.9384    4.1646    1.4672 O.2        1 <1>        0.000
     11 H          -3.9311   -0.0943   -0.4718 H.spc      1 <1>        0.000
     12 H          -1.4947   -1.5392    0.5263 H.spc      1 <1>        0.000
     13 H          -1.8724    1.1455   -0.8151 H.spc      1 <1>        0.000
     14 H           0.4919    1.9503   -1.6288 H.spc      1 <1>        0.000
     15 H           2.4464    1.9277    0.4429 H.spc      1 <1>        0.000
     16 H           0.3136    4.0424    0.3293 H.spc      1 <1>        0.000
@<TRIPOS>BOND
     1    8    9 am 
     2    9   10 2  
     3    1    2 am 
     4    2    4 1  
     5    1    3 2  
     6    4    5 am 
     7    5    6 am 
     8    5    7 2  
     9    6    8 1  
    10    1   11 1  
    11    2   12 1  
    12    4   13 1  
    13    6   14 1  
    14    8   15 1  
    15    9   16 1  
# Name:          frag3-286-3/96164
# Creation time: Sat Jun  5 12:53:29 2010


@<TRIPOS>MOLECULE
frag3-286-3/96164
   16    15     1     1     1
SMALL
USER_CHARGES


@<TRIPOS>ATOM
      1 C11         0.9453    3.1337    0.7135 C.2        1 <1>        0.000
      2 N2          1.0562    2.3770   -0.4002 N.am       1 <1>        0.000
      3 O2         -0.0584    3.1358    1.4118 O.2        1 <1>        0.000
      4 N3          0.1703    1.2716   -0.6467 N.am       1 <1>        0.000
      5 C16         0.4359    0.0327   -0.1771 C.2        1 <1>        0.000
      6 N4         -0.4308   -0.6255    0.6160 N.am       1 <1>        0.000
      7 O3          1.5080   -0.4974   -0.4827 O.2        1 <1>        0.000
      8 N5         -1.7643   -0.1178    0.8074 N.am       1 <1>        0.000
      9 C17        -2.7048   -0.2159   -0.1564 C.2        1 <1>        0.000
     10 O4         -3.8627    0.1234    0.0022 O.2        1 <1>        0.000
     11 H           1.7841    3.7677    1.0010 H.spc      1 <1>        0.000
     12 H           1.7841    2.5945   -1.0809 H.spc      1 <1>        0.000
     13 H          -0.6794    1.4264   -1.1893 H.spc      1 <1>        0.000
     14 H          -0.1419   -1.4856    1.0821 H.spc      1 <1>        0.000
     15 H          -2.0046    0.3271    1.6932 H.spc      1 <1>        0.000
     16 H          -2.4121   -0.6195   -1.1257 H.spc      1 <1>        0.000
@<TRIPOS>BOND
     1    8    9 am 
     2    9   10 2  
     3    1    2 am 
     4    2    4 1  
     5    1    3 2  
     6    4    5 am 
     7    5    6 am 
     8    5    7 2  
     9    6    8 1  
    10    1   11 1  
    11    2   12 1  
    12    4   13 1  
    13    6   14 1  
    14    8   15 1  
    15    9   16 1  
# Name:          frag3-286-3/96164
# Creation time: Sat Jun  5 12:53:29 2010


@<TRIPOS>MOLECULE
frag3-286-3/96164
   16    15     1     1     1
SMALL
USER_CHARGES


@<TRIPOS>ATOM
      1 C11        -3.2080   -0.3600    0.1407 C.2        1 <1>        0.000
      2 N2         -2.2901    0.3920   -0.5036 N.am       1 <1>        0.000
      3 O2         -2.9230   -1.4006    0.7144 O.2        1 <1>        0.000
      4 N3         -1.0181   -0.1644   -0.9106 N.am       1 <1>        0.000
      5 C16         0.0948    0.0810   -0.1956 C.2        1 <1>        0.000
      6 N4          0.1084    0.9893    0.8046 N.am       1 <1>        0.000
      7 O3          1.1366   -0.5241   -0.4598 O.2        1 <1>        0.000
      8 N5          1.0802    2.0403    0.8523 N.am       1 <1>        0.000
      9 C17         0.7535    3.3266    0.6089 C.2        1 <1>        0.000
     10 O4          1.5603    4.2378    0.6365 O.2        1 <1>        0.000
     11 H          -4.2453   -0.0253    0.1494 H.spc      1 <1>        0.000
     12 H          -2.4972    1.3698   -0.7070 H.spc      1 <1>        0.000
     13 H          -0.9647   -0.7472   -1.7460 H.spc      1 <1>        0.000
     14 H          -0.5910    0.9249    1.5443 H.spc      1 <1>        0.000
     15 H           2.0480    1.8095    1.0769 H.spc      1 <1>        0.000
     16 H          -0.2850    3.5617    0.3758 H.spc      1 <1>        0.000
@<TRIPOS>BOND
     1    8    9 am 
     2    9   10 2  
     3    1    2 am 
     4    2    4 1  
     5    1    3 2  
     6    4    5 am 
     7    5    6 am 
     8    5    7 2  
     9    6    8 1  
    10    1   11 1  
    11    2   12 1  
    12    4   13 1  
    13    6   14 1  
    14    8   15 1  
    15    9   16 1  
# Name:          frag3-286-3/96164
# Creation time: Sat Jun  5 12:53:29 2010


@<TRIPOS>MOLECULE
frag3-286-3/96164
   16    15     1     1     1
SMALL
USER_CHARGES


@<TRIPOS>ATOM
      1 C11        -3.2021   -0.0244    0.4526 C.2        1 <1>        0.000
      2 N2         -1.8849    0.1395    0.6924 N.am       1 <1>        0.000
      3 O2         -3.6271   -0.8315   -0.3602 O.2        1 <1>        0.000
      4 N3         -0.8862   -0.3039   -0.2604 N.am       1 <1>        0.000
      5 C16         0.4025    0.0603   -0.1200 C.2        1 <1>        0.000
      6 N4          0.7761    0.9787    0.7980 N.am       1 <1>        0.000
      7 O3          1.2613   -0.4466   -0.8396 O.2        1 <1>        0.000
      8 N5          1.5743    2.1242    0.4289 N.am       1 <1>        0.000
      9 C17         1.0416    3.3637    0.4013 C.2        1 <1>        0.000
     10 O4         -0.1608    3.5578    0.4948 O.2        1 <1>        0.000
     11 H          -3.9152    0.5871    1.0055 H.spc      1 <1>        0.000
     12 H          -1.5858    0.5838    1.5605 H.spc      1 <1>        0.000
     13 H          -1.1620   -0.8965   -1.0434 H.spc      1 <1>        0.000
     14 H           0.4890    0.8607    1.7696 H.spc      1 <1>        0.000
     15 H           2.5562    1.9943    0.1852 H.spc      1 <1>        0.000
     16 H           1.7065    4.2205    0.2919 H.spc      1 <1>        0.000
@<TRIPOS>BOND
     1    8    9 am 
     2    9   10 2  
     3    1    2 am 
     4    2    4 1  
     5    1    3 2  
     6    4    5 am 
     7    5    6 am 
     8    5    7 2  
     9    6    8 1  
    10    1   11 1  
    11    2   12 1  
    12    4   13 1  
    13    6   14 1  
    14    8   15 1  
    15    9   16 1  
# Name:          frag3-286-3/96164
# Creation time: Sat Jun  5 12:53:29 2010


@<TRIPOS>MOLECULE
frag3-286-3/96164
   16    15     1     1     1
SMALL
USER_CHARGES


@<TRIPOS>ATOM
      1 C11        -3.1083   -1.0505    0.2377 C.2        1 <1>        0.000
      2 N2         -2.0216   -0.4195   -0.2524 N.am       1 <1>        0.000
      3 O2         -4.2211   -0.9477   -0.2467 O.2        1 <1>        0.000
      4 N3         -0.7700   -0.3874    0.4640 N.am       1 <1>        0.000
      5 C16         0.1686    0.5300    0.1678 C.2        1 <1>        0.000
      6 N4         -0.1603    1.7600   -0.2863 N.am       1 <1>        0.000
      7 O3          1.3607    0.2462    0.3031 O.2        1 <1>        0.000
      8 N5          0.8454    2.7418   -0.5989 N.am       1 <1>        0.000
      9 C17         1.6215    3.2700    0.3720 C.2        1 <1>        0.000
     10 O4          1.5798    2.8750    1.5274 O.2        1 <1>        0.000
     11 H          -2.9840   -1.6865    1.1142 H.spc      1 <1>        0.000
     12 H          -2.0868    0.0488   -1.1562 H.spc      1 <1>        0.000
     13 H          -0.5946   -1.0678    1.2034 H.spc      1 <1>        0.000
     14 H          -1.1443    1.9982   -0.4104 H.spc      1 <1>        0.000
     15 H           0.9733    3.0420   -1.5653 H.spc      1 <1>        0.000
     16 H           2.3087    4.0764    0.1160 H.spc      1 <1>        0.000
@<TRIPOS>BOND
     1    8    9 am 
     2    9   10 2  
     3    1    2 am 
     4    2    4 1  
     5    1    3 2  
     6    4    5 am 
     7    5    6 am 
     8    5    7 2  
     9    6    8 1  
    10    1   11 1  
    11    2   12 1  
    12    4   13 1  
    13    6   14 1  
    14    8   15 1  
    15    9   16 1  
# Name:          frag3-286-3/96164
# Creation time: Sat Jun  5 12:53:29 2010


@<TRIPOS>MOLECULE
frag3-286-3/96164
   16    15     1     1     1
SMALL
USER_CHARGES


@<TRIPOS>ATOM
      1 C11         0.6587    3.3741    0.9186 C.2        1 <1>        0.000
      2 N2          1.0278    2.1770    0.4182 N.am       1 <1>        0.000
      3 O2          1.4496    4.1939    1.3502 O.2        1 <1>        0.000
      4 N3          0.1210    1.3541   -0.3343 N.am       1 <1>        0.000
      5 C16         0.2162    0.0069   -0.3322 C.2        1 <1>        0.000
      6 N4         -0.8781   -0.7757   -0.3989 N.am       1 <1>        0.000
      7 O3          1.3322   -0.5090   -0.2679 O.2        1 <1>        0.000
      8 N5         -2.1550   -0.2125   -0.7869 N.am       1 <1>        0.000
      9 C17        -3.1641   -0.1003    0.1011 C.2        1 <1>        0.000
     10 O4         -3.3135   -0.8905    1.0198 O.2        1 <1>        0.000
     11 H          -0.4029    3.6208    0.9377 H.spc      1 <1>        0.000
     12 H           1.9791    1.8458    0.5787 H.spc      1 <1>        0.000
     13 H          -0.6137    1.7992   -0.8843 H.spc      1 <1>        0.000
     14 H          -0.8073   -1.7684   -0.1754 H.spc      1 <1>        0.000
     15 H          -2.2932    0.1042   -1.7466 H.spc      1 <1>        0.000
     16 H          -3.8699    0.7235   -0.0050 H.spc      1 <1>        0.000
@<TRIPOS>BOND
     1    8    9 am 
     2    9   10 2  
     3    1    2 am 
     4    2    4 1  
     5    1    3 2  
     6    4    5 am 
     7    5    6 am 
     8    5    7 2  
     9    6    8 1  
    10    1   11 1  
    11    2   12 1  
    12    4   13 1  
    13    6   14 1  
    14    8   15 1  
    15    9   16 1  
# Name:          frag3-286-3/96164
# Creation time: Sat Jun  5 12:53:29 2010


@<TRIPOS>MOLECULE
frag3-286-3/96164
   16    15     1     1     1
SMALL
USER_CHARGES


@<TRIPOS>ATOM
      1 C11        -2.8523   -0.2305    0.1952 C.2        1 <1>        0.000
      2 N2         -1.6270    0.2912   -0.0080 N.am       1 <1>        0.000
      3 O2         -3.6938    0.2450    0.9338 O.2        1 <1>        0.000
      4 N3         -0.5998   -0.3900   -0.7294 N.am       1 <1>        0.000
      5 C16         0.6964   -0.2285   -0.4046 C.2        1 <1>        0.000
      6 N4          1.0993    0.7927    0.3779 N.am       1 <1>        0.000
      7 O3          1.5397   -1.0193   -0.8446 O.2        1 <1>        0.000
      8 N5          0.6589    2.1252    0.1317 N.am       1 <1>        0.000
      9 C17         0.1562    2.9249    1.0923 C.2        1 <1>        0.000
     10 O4         -0.0829    4.1071    0.9436 O.2        1 <1>        0.000
     11 H          -3.1081   -1.1445   -0.3408 H.spc      1 <1>        0.000
     12 H          -1.4234    1.2160    0.3711 H.spc      1 <1>        0.000
     13 H          -0.8519   -1.0073   -1.5013 H.spc      1 <1>        0.000
     14 H           1.7294    0.6085    1.1586 H.spc      1 <1>        0.000
     15 H           0.7276    2.4914   -0.8178 H.spc      1 <1>        0.000
     16 H          -0.0496    2.4825    2.0670 H.spc      1 <1>        0.000
@<TRIPOS>BOND
     1    8    9 am 
     2    9   10 2  
     3    1    2 am 
     4    2    4 1  
     5    1    3 2  
     6    4    5 am 
     7    5    6 am 
     8    5    7 2  
     9    6    8 1  
    10    1   11 1  
    11    2   12 1  
    12    4   13 1  
    13    6   14 1  
    14    8   15 1  
    15    9   16 1  
# Name:          frag3-286-3/96164
# Creation time: Sat Jun  5 12:53:29 2010


@<TRIPOS>MOLECULE
frag3-286-3/96164
   16    15     1     1     1
SMALL
USER_CHARGES


@<TRIPOS>ATOM
      1 C11        -3.2951   -0.7237   -0.3217 C.2        1 <1>        0.000
      2 N2         -2.1296   -0.1168   -0.6322 N.am       1 <1>        0.000
      3 O2         -3.5608   -1.0958    0.8094 O.2        1 <1>        0.000
      4 N3         -0.9705   -0.2332    0.2414 N.am       1 <1>        0.000
      5 C16         0.1446    0.4940    0.0014 C.2        1 <1>        0.000
      6 N4          0.9600    0.8526    1.0197 N.am       1 <1>        0.000
      7 O3          0.4186    0.8243   -1.1405 O.2        1 <1>        0.000
      8 N5          1.9015    1.9510    0.8549 N.am       1 <1>        0.000
      9 C17         1.4902    3.1432    0.3747 C.2        1 <1>        0.000
     10 O4          0.3358    3.5222    0.4806 O.2        1 <1>        0.000
     11 H          -4.0272   -0.8876   -1.1125 H.spc      1 <1>        0.000
     12 H          -2.0602    0.4305   -1.4901 H.spc      1 <1>        0.000
     13 H          -0.9996   -0.8674    1.0398 H.spc      1 <1>        0.000
     14 H           0.9150    0.3512    1.9068 H.spc      1 <1>        0.000
     15 H           2.8814    1.8181    1.1048 H.spc      1 <1>        0.000
     16 H           2.2133    3.7885   -0.1241 H.spc      1 <1>        0.000
@<TRIPOS>BOND
     1    8    9 am 
     2    9   10 2  
     3    1    2 am 
     4    2    4 1  
     5    1    3 2  
     6    4    5 am 
     7    5    6 am 
     8    5    7 2  
     9    6    8 1  
    10    1   11 1  
    11    2   12 1  
    12    4   13 1  
    13    6   14 1  
    14    8   15 1  
    15    9   16 1  
# Name:          frag3-286-3/96164 -- energy: -1.114073
# Creation time: Sat Jun  5 12:53:29 2010


@<TRIPOS>MOLECULE
frag3-286-3/96164 -- energy: -1.114073
   16    15     1     1     1
SMALL
USER_CHARGES


@<TRIPOS>ATOM
      1 C11        -3.4397   -0.4190   -0.0231 C.2        1 <1>        0.000
      2 N2         -2.2602    0.2129   -0.1977 N.am       1 <1>        0.000
      3 O2         -3.5154   -1.5710    0.3746 O.2        1 <1>        0.000
      4 N3         -1.0006   -0.4856   -0.0127 N.am       1 <1>        0.000
      5 C16         0.1698    0.1790   -0.0943 C.2        1 <1>        0.000
      6 N4          0.2302    1.5120    0.1186 N.am       1 <1>        0.000
      7 O3          1.1984   -0.4317   -0.3659 O.2        1 <1>        0.000
      8 N5          1.4854    2.2272    0.0210 N.am       1 <1>        0.000
      9 C17         1.6753    3.3878    0.6810 C.2        1 <1>        0.000
     10 O4          0.7517    4.0063    1.1862 O.2        1 <1>        0.000
     11 H          -4.3606    0.1199   -0.2457 H.spc      1 <1>        0.000
     12 H          -2.2533    1.1975   -0.4640 H.spc      1 <1>        0.000
     13 H          -1.0012   -1.4871    0.1805 H.spc      1 <1>        0.000
     14 H          -0.6216    2.0223    0.3517 H.spc      1 <1>        0.000
     15 H           2.2367    1.8478   -0.5552 H.spc      1 <1>        0.000
     16 H           2.6861    3.7867    0.7662 H.spc      1 <1>        0.000
@<TRIPOS>BOND
     1    8    9 am 
     2    9   10 2  
     3    1    2 am 
     4    2    4 1  
     5    1    3 2  
     6    4    5 am 
     7    5    6 am 
     8    5    7 2  
     9    6    8 1  
    10    1   11 1  
    11    2   12 1  
    12    4   13 1  
    13    6   14 1  
    14    8   15 1  
    15    9   16 1  
# Name:          frag3-286-3/96164 -- energy: -1.473933
# Creation time: Sat Jun  5 12:53:29 2010


@<TRIPOS>MOLECULE
frag3-286-3/96164 -- energy: -1.473933
   16    15     1     1     1
SMALL
USER_CHARGES


@<TRIPOS>ATOM
      1 C11         1.4074    3.4027    0.3826 C.2        1 <1>        0.000
      2 N2          0.9542    2.4928   -0.5050 N.am       1 <1>        0.000
      3 O2          1.0233    3.4391    1.5423 O.2        1 <1>        0.000
      4 N3         -0.0303    1.5101   -0.1310 N.am       1 <1>        0.000
      5 C16         0.2881    0.2064    0.0203 C.2        1 <1>        0.000
      6 N4         -0.6424   -0.7146    0.3356 N.am       1 <1>        0.000
      7 O3          1.4595   -0.1403   -0.1413 O.2        1 <1>        0.000
      8 N5         -2.0138   -0.3208    0.5563 N.am       1 <1>        0.000
      9 C17        -3.0300   -0.8913   -0.1225 C.2        1 <1>        0.000
     10 O4         -4.1214   -0.3663   -0.2497 O.2        1 <1>        0.000
     11 H           2.1451    4.1340    0.0522 H.spc      1 <1>        0.000
     12 H           1.3156    2.5011   -1.4588 H.spc      1 <1>        0.000
     13 H          -0.9938    1.8068    0.0237 H.spc      1 <1>        0.000
     14 H          -0.3768   -1.6959    0.4190 H.spc      1 <1>        0.000
     15 H          -2.2190    0.4061    1.2418 H.spc      1 <1>        0.000
     16 H          -2.8668   -1.8678   -0.5785 H.spc      1 <1>        0.000
@<TRIPOS>BOND
     1    8    9 am 
     2    9   10 2  
     3    1    2 am 
     4    2    4 1  
     5    1    3 2  
     6    4    5 am 
     7    5    6 am 
     8    5    7 2  
     9    6    8 1  
    10    1   11 1  
    11    2   12 1  
    12    4   13 1  
    13    6   14 1  
    14    8   15 1  
    15    9   16 1  
# Name:          frag3-286-3/96164 -- energy: -1.196384
# Creation time: Sat Jun  5 12:53:29 2010


@<TRIPOS>MOLECULE
frag3-286-3/96164 -- energy: -1.196384
   16    15     1     1     1
SMALL
USER_CHARGES


@<TRIPOS>ATOM
      1 C11         1.8999    3.5778    0.2678 C.2        1 <1>        0.000
      2 N2          1.6436    2.2828   -0.0136 N.am       1 <1>        0.000
      3 O2          1.2624    4.2088    1.0957 O.2        1 <1>        0.000
      4 N3          0.6661    1.5294    0.7521 N.am       1 <1>        0.000
      5 C16        -0.0084    0.5018    0.1926 C.2        1 <1>        0.000
      6 N4         -1.2612    0.1930    0.5930 N.am       1 <1>        0.000
      7 O3          0.5208   -0.1552   -0.6949 O.2        1 <1>        0.000
      8 N5         -2.0292   -0.8269   -0.0960 N.am       1 <1>        0.000
      9 C17        -3.3567   -0.9524    0.1088 C.2        1 <1>        0.000
     10 O4         -4.0426   -1.7415   -0.5180 O.2        1 <1>        0.000
     11 H           2.7076    4.0796   -0.2650 H.spc      1 <1>        0.000
     12 H           2.1443    1.8261   -0.7760 H.spc      1 <1>        0.000
     13 H           0.4868    1.7795    1.7246 H.spc      1 <1>        0.000
     14 H          -1.6716    0.6822    1.3884 H.spc      1 <1>        0.000
     15 H          -1.5587   -1.4581   -0.7446 H.spc      1 <1>        0.000
     16 H          -3.8334   -0.3253    0.8622 H.spc      1 <1>        0.000
@<TRIPOS>BOND
     1    8    9 am 
     2    9   10 2  
     3    1    2 am 
     4    2    4 1  
     5    1    3 2  
     6    4    5 am 
     7    5    6 am 
     8    5    7 2  
     9    6    8 1  
    10    1   11 1  
    11    2   12 1  
    12    4   13 1  
    13    6   14 1  
    14    8   15 1  
    15    9   16 1  
# Name:          frag3-286-3/96164 -- energy: -1.140030
# Creation time: Sat Jun  5 12:53:29 2010


@<TRIPOS>MOLECULE
frag3-286-3/96164 -- energy: -1.140030
   16    15     1     1     1
SMALL
USER_CHARGES


@<TRIPOS>ATOM
      1 C11        -3.1414   -1.1217    0.0103 C.2        1 <1>        0.000
      2 N2         -2.1546   -0.2123   -0.1295 N.am       1 <1>        0.000
      3 O2         -4.2264   -0.8683    0.5017 O.2        1 <1>        0.000
      4 N3         -0.8384   -0.5795   -0.5898 N.am       1 <1>        0.000
      5 C16         0.2414    0.1283   -0.2130 C.2        1 <1>        0.000
      6 N4          0.1252    1.3055    0.4375 N.am       1 <1>        0.000
      7 O3          1.3705   -0.2977   -0.4677 O.2        1 <1>        0.000
      8 N5          1.1368    2.3172    0.3605 N.am       1 <1>        0.000
      9 C17         0.9515    3.5526    0.8658 C.2        1 <1>        0.000
     10 O4          1.8300    4.3938    0.9120 O.2        1 <1>        0.000
     11 H          -2.9574   -2.1389   -0.3355 H.spc      1 <1>        0.000
     12 H          -2.3453    0.7638    0.0971 H.spc      1 <1>        0.000
     13 H          -0.7252   -1.3836   -1.2070 H.spc      1 <1>        0.000
     14 H          -0.7073    1.4799    1.0004 H.spc      1 <1>        0.000
     15 H           2.0244    2.0955   -0.0906 H.spc      1 <1>        0.000
     16 H          -0.0342    3.8115    1.2524 H.spc      1 <1>        0.000
@<TRIPOS>BOND
     1    8    9 am 
     2    9   10 2  
     3    1    2 am 
     4    2    4 1  
     5    1    3 2  
     6    4    5 am 
     7    5    6 am 
     8    5    7 2  
     9    6    8 1  
    10    1   11 1  
    11    2   12 1  
    12    4   13 1  
    13    6   14 1  
    14    8   15 1  
    15    9   16 1  
# Name:          frag3-286-3/96164 -- energy: -1.257894
# Creation time: Sat Jun  5 12:53:29 2010


@<TRIPOS>MOLECULE
frag3-286-3/96164 -- energy: -1.257894
   16    15     1     1     1
SMALL
USER_CHARGES


@<TRIPOS>ATOM
      1 C11         1.8460    3.5917    0.4870 C.2        1 <1>        0.000
      2 N2          1.3346    2.3429    0.4852 N.am       1 <1>        0.000
      3 O2          2.9955    3.8370    0.8108 O.2        1 <1>        0.000
      4 N3         -0.0854    2.1102    0.3229 N.am       1 <1>        0.000
      5 C16        -0.5700    0.8656    0.1285 C.2        1 <1>        0.000
      6 N4         -1.8451    0.6644   -0.2679 N.am       1 <1>        0.000
      7 O3          0.1645   -0.1006    0.3082 O.2        1 <1>        0.000
      8 N5         -2.2982   -0.6498   -0.6730 N.am       1 <1>        0.000
      9 C17        -2.9037   -1.4769    0.2046 C.2        1 <1>        0.000
     10 O4         -3.3434   -2.5668   -0.1187 O.2        1 <1>        0.000
     11 H           1.2025    4.4182    0.1854 H.spc      1 <1>        0.000
     12 H           1.9613    1.5464    0.6005 H.spc      1 <1>        0.000
     13 H          -0.7301    2.8999    0.3560 H.spc      1 <1>        0.000
     14 H          -2.4975    1.4483   -0.2821 H.spc      1 <1>        0.000
     15 H          -2.1576   -0.9549   -1.6361 H.spc      1 <1>        0.000
     16 H          -3.0034   -1.1582    1.2422 H.spc      1 <1>        0.000
@<TRIPOS>BOND
     1    8    9 am 
     2    9   10 2  
     3    1    2 am 
     4    2    4 1  
     5    1    3 2  
     6    4    5 am 
     7    5    6 am 
     8    5    7 2  
     9    6    8 1  
    10    1   11 1  
    11    2   12 1  
    12    4   13 1  
    13    6   14 1  
    14    8   15 1  
    15    9   16 1  
# Name:          frag3-286-3/96164 -- energy: -1.659265
# Creation time: Sat Jun  5 12:53:29 2010


@<TRIPOS>MOLECULE
frag3-286-3/96164 -- energy: -1.659265
   16    15     1     1     1
SMALL
USER_CHARGES


@<TRIPOS>ATOM
      1 C11        -2.9610   -0.1384    0.3580 C.2        1 <1>        0.000
      2 N2         -2.3746    0.2289   -0.8025 N.am       1 <1>        0.000
      3 O2         -2.4658   -0.9590    1.1145 O.2        1 <1>        0.000
      4 N3         -1.0373   -0.2236   -1.1386 N.am       1 <1>        0.000
      5 C16         0.0130    0.1134   -0.3609 C.2        1 <1>        0.000
      6 N4          0.0144    1.2599    0.3534 N.am       1 <1>        0.000
      7 O3          0.9857   -0.6331   -0.2961 O.2        1 <1>        0.000
      8 N5          1.2497    1.8414    0.8320 N.am       1 <1>        0.000
      9 C17         1.3852    3.1771    0.9574 C.2        1 <1>        0.000
     10 O4          0.4854    3.9514    0.6705 O.2        1 <1>        0.000
     11 H          -3.9139    0.3158    0.6297 H.spc      1 <1>        0.000
     12 H          -2.8790    0.8328   -1.4516 H.spc      1 <1>        0.000
     13 H          -0.8903   -0.7997   -1.9674 H.spc      1 <1>        0.000
     14 H          -0.8706    1.7236    0.5589 H.spc      1 <1>        0.000
     15 H           2.0297    1.2319    1.0782 H.spc      1 <1>        0.000
     16 H           2.3287    3.5789    1.3269 H.spc      1 <1>        0.000
@<TRIPOS>BOND
     1    8    9 am 
     2    9   10 2  
     3    1    2 am 
     4    2    4 1  
     5    1    3 2  
     6    4    5 am 
     7    5    6 am 
     8    5    7 2  
     9    6    8 1  
    10    1   11 1  
    11    2   12 1  
    12    4   13 1  
    13    6   14 1  
    14    8   15 1  
    15    9   16 1  
# Name:          frag3-286-3/96164 -- energy: -1.179231
# Creation time: Sat Jun  5 12:53:29 2010


@<TRIPOS>MOLECULE
frag3-286-3/96164 -- energy: -1.179231
   16    15     1     1     1
SMALL
USER_CHARGES


@<TRIPOS>ATOM
      1 C11         1.0331    3.1422    0.8408 C.2        1 <1>        0.000
      2 N2          1.6268    2.2125    0.0613 N.am       1 <1>        0.000
      3 O2          1.6614    3.9414    1.5139 O.2        1 <1>        0.000
      4 N3          0.8466    1.3436   -0.7946 N.am       1 <1>        0.000
      5 C16        -0.1568    0.5923   -0.2926 C.2        1 <1>        0.000
      6 N4         -0.8429   -0.2716   -1.0717 N.am       1 <1>        0.000
      7 O3         -0.4471    0.6928    0.8956 O.2        1 <1>        0.000
      8 N5         -1.8688   -1.1239   -0.5087 N.am       1 <1>        0.000
      9 C17        -2.8638   -0.6070    0.2434 C.2        1 <1>        0.000
     10 O4         -3.6939   -1.3044    0.8003 O.2        1 <1>        0.000
     11 H          -0.0559    3.1796    0.8694 H.spc      1 <1>        0.000
     12 H           2.6426    2.1210    0.0759 H.spc      1 <1>        0.000
     13 H           1.0580    1.2983   -1.7914 H.spc      1 <1>        0.000
     14 H          -0.6357   -0.3242   -2.0690 H.spc      1 <1>        0.000
     15 H          -1.8395   -2.1285   -0.6826 H.spc      1 <1>        0.000
     16 H          -2.9272    0.4752    0.3569 H.spc      1 <1>        0.000
@<TRIPOS>BOND
     1    8    9 am 
     2    9   10 2  
     3    1    2 am 
     4    2    4 1  
     5    1    3 2  
     6    4    5 am 
     7    5    6 am 
     8    5    7 2  
     9    6    8 1  
    10    1   11 1  
    11    2   12 1  
    12    4   13 1  
    13    6   14 1  
    14    8   15 1  
    15    9   16 1  
# Name:          frag3-286-3/96164 -- energy: -1.596748
# Creation time: Sat Jun  5 12:53:29 2010


@<TRIPOS>MOLECULE
frag3-286-3/96164 -- energy: -1.596748
   16    15     1     1     1
SMALL
USER_CHARGES


@<TRIPOS>ATOM
      1 C11         0.4534    3.2782    0.6324 C.2        1 <1>        0.000
      2 N2          0.9442    2.5848   -0.4176 N.am       1 <1>        0.000
      3 O2          0.2703    2.7705    1.7284 O.2        1 <1>        0.000
      4 N3          1.3778    1.2092   -0.2697 N.am       1 <1>        0.000
      5 C16         0.4719    0.2199   -0.1316 C.2        1 <1>        0.000
      6 N4         -0.8454    0.4869   -0.0030 N.am       1 <1>        0.000
      7 O3          0.8452   -0.9523   -0.1419 O.2        1 <1>        0.000
      8 N5         -1.8447   -0.3272   -0.6514 N.am       1 <1>        0.000
      9 C17        -3.0158   -0.6047   -0.0443 C.2        1 <1>        0.000
     10 O4         -3.3622   -0.0476    0.9862 O.2        1 <1>        0.000
     11 H           0.2111    4.3322    0.4966 H.spc      1 <1>        0.000
     12 H           1.0109    3.0364   -1.3298 H.spc      1 <1>        0.000
     13 H           2.3736    0.9885   -0.2701 H.spc      1 <1>        0.000
     14 H          -1.1404    1.2812    0.5648 H.spc      1 <1>        0.000
     15 H          -1.6621   -0.6985   -1.5837 H.spc      1 <1>        0.000
     16 H          -3.6754   -1.3508   -0.4875 H.spc      1 <1>        0.000
@<TRIPOS>BOND
     1    8    9 am 
     2    9   10 2  
     3    1    2 am 
     4    2    4 1  
     5    1    3 2  
     6    4    5 am 
     7    5    6 am 
     8    5    7 2  
     9    6    8 1  
    10    1   11 1  
    11    2   12 1  
    12    4   13 1  
    13    6   14 1  
    14    8   15 1  
    15    9   16 1  
# Name:          frag3-286-3/96164 -- energy: -1.583975
# Creation time: Sat Jun  5 12:53:29 2010


@<TRIPOS>MOLECULE
frag3-286-3/96164 -- energy: -1.583975
   16    15     1     1     1
SMALL
USER_CHARGES


@<TRIPOS>ATOM
      1 C11         0.9102    3.2838    1.0187 C.2        1 <1>        0.000
      2 N2          0.7263    2.5112   -0.0723 N.am       1 <1>        0.000
      3 O2          1.8373    4.0628    1.1470 O.2        1 <1>        0.000
      4 N3         -0.1838    1.4078   -0.0778 N.am       1 <1>        0.000
      5 C16         0.2400    0.1266   -0.1414 C.2        1 <1>        0.000
      6 N4         -0.6220   -0.9051   -0.1771 N.am       1 <1>        0.000
      7 O3          1.4547   -0.0909   -0.1803 O.2        1 <1>        0.000
      8 N5         -2.0043   -0.6843   -0.5159 N.am       1 <1>        0.000
      9 C17        -2.9381   -0.4447    0.4282 C.2        1 <1>        0.000
     10 O4         -4.1256   -0.6494    0.2587 O.2        1 <1>        0.000
     11 H           0.1878    3.2061    1.8313 H.spc      1 <1>        0.000
     12 H           1.2532    2.7208   -0.9202 H.spc      1 <1>        0.000
     13 H          -1.1856    1.5944   -0.0322 H.spc      1 <1>        0.000
     14 H          -0.2956   -1.8475    0.0366 H.spc      1 <1>        0.000
     15 H          -2.2850   -0.7097   -1.4962 H.spc      1 <1>        0.000
     16 H          -2.6127   -0.0483    1.3900 H.spc      1 <1>        0.000
@<TRIPOS>BOND
     1    8    9 am 
     2    9   10 2  
     3    1    2 am 
     4    2    4 1  
     5    1    3 2  
     6    4    5 am 
     7    5    6 am 
     8    5    7 2  
     9    6    8 1  
    10    1   11 1  
    11    2   12 1  
    12    4   13 1  
    13    6   14 1  
    14    8   15 1  
    15    9   16 1  
# Name:          frag3-286-3/96164 -- energy: -1.189371
# Creation time: Sat Jun  5 12:53:29 2010


@<TRIPOS>MOLECULE
frag3-286-3/96164 -- energy: -1.189371
   16    15     1     1     1
SMALL
USER_CHARGES


@<TRIPOS>ATOM
      1 C11         1.6761    3.3765    0.4712 C.2        1 <1>        0.000
      2 N2          1.6111    2.0405    0.6499 N.am       1 <1>        0.000
      3 O2          0.6823    4.0860    0.4517 O.2        1 <1>        0.000
      4 N3          0.3377    1.3501    0.6772 N.am       1 <1>        0.000
      5 C16         0.1372    0.2268   -0.0469 C.2        1 <1>        0.000
      6 N4         -0.9840   -0.5074    0.1072 N.am       1 <1>        0.000
      7 O3          0.9877   -0.1237   -0.8576 O.2        1 <1>        0.000
      8 N5         -2.2373    0.1325    0.4656 N.am       1 <1>        0.000
      9 C17        -3.4185   -0.4191    0.1182 C.2        1 <1>        0.000
     10 O4         -3.4977   -1.5442   -0.3487 O.2        1 <1>        0.000
     11 H           2.6536    3.8404    0.3391 H.spc      1 <1>        0.000
     12 H           2.4729    1.5078    0.7677 H.spc      1 <1>        0.000
     13 H          -0.4200    1.7179    1.2525 H.spc      1 <1>        0.000
     14 H          -0.9512   -1.5178   -0.0288 H.spc      1 <1>        0.000
     15 H          -2.2245    1.0095    0.9862 H.spc      1 <1>        0.000
     16 H          -4.3319    0.1588    0.2590 H.spc      1 <1>        0.000
@<TRIPOS>BOND
     1    8    9 am 
     2    9   10 2  
     3    1    2 am 
     4    2    4 1  
     5    1    3 2  
     6    4    5 am 
     7    5    6 am 
     8    5    7 2  
     9    6    8 1  
    10    1   11 1  
    11    2   12 1  
    12    4   13 1  
    13    6   14 1  
    14    8   15 1  
    15    9   16 1  
# Name:          frag3-286-3/96164 -- energy: -1.509512
# Creation time: Sat Jun  5 12:53:29 2010


@<TRIPOS>MOLECULE
frag3-286-3/96164 -- energy: -1.509512
   16    15     1     1     1
SMALL
USER_CHARGES


@<TRIPOS>ATOM
      1 C11        -3.1134   -0.5713   -0.0292 C.2        1 <1>        0.000
      2 N2         -1.9029   -0.0094    0.1669 N.am       1 <1>        0.000
      3 O2         -4.1215   -0.2157    0.5546 O.2        1 <1>        0.000
      4 N3         -0.6880   -0.6348   -0.2999 N.am       1 <1>        0.000
      5 C16         0.4922    0.0059   -0.2099 C.2        1 <1>        0.000
      6 N4          0.6640    1.0547    0.6218 N.am       1 <1>        0.000
      7 O3          1.4395   -0.3605   -0.9072 O.2        1 <1>        0.000
      8 N5          1.4654    2.1925    0.2481 N.am       1 <1>        0.000
      9 C17         1.0935    3.4465    0.5759 C.2        1 <1>        0.000
     10 O4         -0.0340    3.7098    0.9666 O.2        1 <1>        0.000
     11 H          -3.1937   -1.3867   -0.7481 H.spc      1 <1>        0.000
     12 H          -1.8441    0.8823    0.6587 H.spc      1 <1>        0.000
     13 H          -0.7246   -1.5715   -0.7019 H.spc      1 <1>        0.000
     14 H           0.2154    1.0417    1.5378 H.spc      1 <1>        0.000
     15 H           2.3296    2.0467   -0.2738 H.spc      1 <1>        0.000
     16 H           1.8228    4.2520    0.4895 H.spc      1 <1>        0.000
@<TRIPOS>BOND
     1    8    9 am 
     2    9   10 2  
     3    1    2 am 
     4    2    4 1  
     5    1    3 2  
     6    4    5 am 
     7    5    6 am 
     8    5    7 2  
     9    6    8 1  
    10    1   11 1  
    11    2   12 1  
    12    4   13 1  
    13    6   14 1  
    14    8   15 1  
    15    9   16 1  
# Name:          frag3-286-3/96164 -- energy: -1.642632
# Creation time: Sat Jun  5 12:53:29 2010


@<TRIPOS>MOLECULE
frag3-286-3/96164 -- energy: -1.642632
   16    15     1     1     1
SMALL
USER_CHARGES


@<TRIPOS>ATOM
      1 C11         1.1075    3.2861    0.4214 C.2        1 <1>        0.000
      2 N2          0.8983    2.1166    1.0630 N.am       1 <1>        0.000
      3 O2          1.1798    4.3613    0.9887 O.2        1 <1>        0.000
      4 N3          1.0959    0.8454    0.4119 N.am       1 <1>        0.000
      5 C16         0.0629    0.2136   -0.1753 C.2        1 <1>        0.000
      6 N4         -1.1841    0.7321   -0.1672 N.am       1 <1>        0.000
      7 O3          0.2512   -0.8645   -0.7447 O.2        1 <1>        0.000
      8 N5         -2.2847    0.0730   -0.8154 N.am       1 <1>        0.000
      9 C17        -3.1063   -0.7472   -0.1278 C.2        1 <1>        0.000
     10 O4         -2.7259   -1.3987    0.8330 O.2        1 <1>        0.000
     11 H           1.2176    3.2668   -0.6629 H.spc      1 <1>        0.000
     12 H           0.5918    2.1329    2.0357 H.spc      1 <1>        0.000
     13 H           2.0240    0.4225    0.3963 H.spc      1 <1>        0.000
     14 H          -1.3496    1.6168    0.3127 H.spc      1 <1>        0.000
     15 H          -2.4471    0.2277   -1.8104 H.spc      1 <1>        0.000
     16 H          -4.1469   -0.8315   -0.4409 H.spc      1 <1>        0.000
@<TRIPOS>BOND
     1    8    9 am 
     2    9   10 2  
     3    1    2 am 
     4    2    4 1  
     5    1    3 2  
     6    4    5 am 
     7    5    6 am 
     8    5    7 2  
     9    6    8 1  
    10    1   11 1  
    11    2   12 1  
    12    4   13 1  
    13    6   14 1  
    14    8   15 1  
    15    9   16 1  
# Name:          frag3-286-3/96164 -- energy: -1.463203
# Creation time: Sat Jun  5 12:53:29 2010


@<TRIPOS>MOLECULE
frag3-286-3/96164 -- energy: -1.463203
   16    15     1     1     1
SMALL
USER_CHARGES


@<TRIPOS>ATOM
      1 C11         0.9193    3.6043    0.4913 C.2        1 <1>        0.000
      2 N2          0.7898    2.6451   -0.4494 N.am       1 <1>        0.000
      3 O2          1.0003    3.3515    1.6837 O.2        1 <1>        0.000
      4 N3          1.2780    1.3006   -0.2235 N.am       1 <1>        0.000
      5 C16         0.4173    0.2813   -0.0514 C.2        1 <1>        0.000
      6 N4         -0.9132    0.4871    0.0507 N.am       1 <1>        0.000
      7 O3          0.8429   -0.8747    0.0012 O.2        1 <1>        0.000
      8 N5         -1.8567   -0.5878   -0.0551 N.am       1 <1>        0.000
      9 C17        -3.1865   -0.3713   -0.0451 C.2        1 <1>        0.000
     10 O4         -3.9966   -1.2183    0.2853 O.2        1 <1>        0.000
     11 H           0.9530    4.6466    0.1742 H.spc      1 <1>        0.000
     12 H           0.3395    2.8715   -1.3362 H.spc      1 <1>        0.000
     13 H           2.2824    1.1251   -0.1947 H.spc      1 <1>        0.000
     14 H          -1.2572    1.4344    0.2076 H.spc      1 <1>        0.000
     15 H          -1.5111   -1.5437   -0.1404 H.spc      1 <1>        0.000
     16 H          -3.5549    0.6091   -0.3473 H.spc      1 <1>        0.000
@<TRIPOS>BOND
     1    8    9 am 
     2    9   10 2  
     3    1    2 am 
     4    2    4 1  
     5    1    3 2  
     6    4    5 am 
     7    5    6 am 
     8    5    7 2  
     9    6    8 1  
    10    1   11 1  
    11    2   12 1  
    12    4   13 1  
    13    6   14 1  
    14    8   15 1  
    15    9   16 1  
# Name:          frag3-286-3/96164 -- energy: -1.607978
# Creation time: Sat Jun  5 12:53:29 2010


@<TRIPOS>MOLECULE
frag3-286-3/96164 -- energy: -1.607978
   16    15     1     1     1
SMALL
USER_CHARGES


@<TRIPOS>ATOM
      1 C11        -2.4908   -0.3162    0.6743 C.2        1 <1>        0.000
      2 N2         -2.1216   -0.1653   -0.6173 N.am       1 <1>        0.000
      3 O2         -3.6527   -0.3364    1.0398 O.2        1 <1>        0.000
      4 N3         -0.7984   -0.5262   -1.0708 N.am       1 <1>        0.000
      5 C16         0.2883    0.0863   -0.5607 C.2        1 <1>        0.000
      6 N4          0.2549    1.3810   -0.1825 N.am       1 <1>        0.000
      7 O3          1.3330   -0.5491   -0.4155 O.2        1 <1>        0.000
      8 N5          1.0812    1.8763    0.8906 N.am       1 <1>        0.000
      9 C17         1.0494    3.1739    1.2539 C.2        1 <1>        0.000
     10 O4          0.3514    3.9935    0.6760 O.2        1 <1>        0.000
     11 H          -1.7096   -0.4253    1.4266 H.spc      1 <1>        0.000
     12 H          -2.7924    0.2119   -1.2867 H.spc      1 <1>        0.000
     13 H          -0.6859   -1.2491   -1.7815 H.spc      1 <1>        0.000
     14 H          -0.3700    2.0251   -0.6674 H.spc      1 <1>        0.000
     15 H           1.7008    1.2332    1.3835 H.spc      1 <1>        0.000
     16 H           1.6663    3.5027    2.0902 H.spc      1 <1>        0.000
@<TRIPOS>BOND
     1    8    9 am 
     2    9   10 2  
     3    1    2 am 
     4    2    4 1  
     5    1    3 2  
     6    4    5 am 
     7    5    6 am 
     8    5    7 2  
     9    6    8 1  
    10    1   11 1  
    11    2   12 1  
    12    4   13 1  
    13    6   14 1  
    14    8   15 1  
    15    9   16 1  
# Name:          frag3-286-3/96164 -- energy: -1.442951
# Creation time: Sat Jun  5 12:53:29 2010


@<TRIPOS>MOLECULE
frag3-286-3/96164 -- energy: -1.442951
   16    15     1     1     1
SMALL
USER_CHARGES


@<TRIPOS>ATOM
      1 C11        -3.3217   -0.4028    0.3623 C.2        1 <1>        0.000
      2 N2         -2.0557   -0.2257    0.7943 N.am       1 <1>        0.000
      3 O2         -3.5827   -0.9088   -0.7181 O.2        1 <1>        0.000
      4 N3         -0.9226   -0.6527   -0.0062 N.am       1 <1>        0.000
      5 C16         0.2022    0.0887   -0.0506 C.2        1 <1>        0.000
      6 N4          0.1774    1.4124    0.2193 N.am       1 <1>        0.000
      7 O3          1.2707   -0.4440   -0.3368 O.2        1 <1>        0.000
      8 N5          1.2795    2.2718   -0.1540 N.am       1 <1>        0.000
      9 C17         1.5611    3.3857    0.5516 C.2        1 <1>        0.000
     10 O4          0.6865    4.0934    1.0259 O.2        1 <1>        0.000
     11 H          -4.1434   -0.0818    1.0025 H.spc      1 <1>        0.000
     12 H          -1.8921    0.2159    1.6991 H.spc      1 <1>        0.000
     13 H          -0.9780   -1.5206   -0.5393 H.spc      1 <1>        0.000
     14 H          -0.6319    1.8123    0.6942 H.spc      1 <1>        0.000
     15 H           1.8522    2.0315   -0.9631 H.spc      1 <1>        0.000
     16 H           2.6041    3.6636    0.7036 H.spc      1 <1>        0.000
@<TRIPOS>BOND
     1    8    9 am 
     2    9   10 2  
     3    1    2 am 
     4    2    4 1  
     5    1    3 2  
     6    4    5 am 
     7    5    6 am 
     8    5    7 2  
     9    6    8 1  
    10    1   11 1  
    11    2   12 1  
    12    4   13 1  
    13    6   14 1  
    14    8   15 1  
    15    9   16 1  
# Name:          frag3-286-3/96164 -- energy: -1.672627
# Creation time: Sat Jun  5 12:53:29 2010


@<TRIPOS>MOLECULE
frag3-286-3/96164 -- energy: -1.672627
   16    15     1     1     1
SMALL
USER_CHARGES


@<TRIPOS>ATOM
      1 C11         0.5995    2.9891    0.2879 C.2        1 <1>        0.000
      2 N2          0.5295    1.8933    1.0797 N.am       1 <1>        0.000
      3 O2          0.1117    4.0753    0.5505 O.2        1 <1>        0.000
      4 N3          1.0345    0.6267    0.6968 N.am       1 <1>        0.000
      5 C16         0.4375   -0.0814   -0.2903 C.2        1 <1>        0.000
      6 N4         -0.7912    0.2579   -0.7345 N.am       1 <1>        0.000
      7 O3          1.0214   -1.0515   -0.7849 O.2        1 <1>        0.000
      8 N5         -1.7626    0.8228    0.1527 N.am       1 <1>        0.000
      9 C17        -2.8272    0.1073    0.5698 C.2        1 <1>        0.000
     10 O4         -3.0583   -1.0215    0.1600 O.2        1 <1>        0.000
     11 H           1.1333    2.8930   -0.6576 H.spc      1 <1>        0.000
     12 H           0.0918    1.9843    1.9965 H.spc      1 <1>        0.000
     13 H           1.8544    0.2451    1.1685 H.spc      1 <1>        0.000
     14 H          -1.0307    0.1099   -1.7149 H.spc      1 <1>        0.000
     15 H          -1.6475    1.7836    0.4751 H.spc      1 <1>        0.000
     16 H          -3.5058    0.5511    1.2982 H.spc      1 <1>        0.000
@<TRIPOS>BOND
     1    8    9 am 
     2    9   10 2  
     3    1    2 am 
     4    2    4 1  
     5    1    3 2  
     6    4    5 am 
     7    5    6 am 
     8    5    7 2  
     9    6    8 1  
    10    1   11 1  
    11    2   12 1  
    12    4   13 1  
    13    6   14 1  
    14    8   15 1  
    15    9   16 1  
# Name:          frag3-286-3/96164 -- energy: -1.363667
# Creation time: Sat Jun  5 12:53:29 2010


@<TRIPOS>MOLECULE
frag3-286-3/96164 -- energy: -1.363667
   16    15     1     1     1
SMALL
USER_CHARGES


@<TRIPOS>ATOM
      1 C11         1.9483    3.4417    0.5202 C.2        1 <1>        0.000
      2 N2          1.5564    2.2202    0.0995 N.am       1 <1>        0.000
      3 O2          1.3131    4.0906    1.3355 O.2        1 <1>        0.000
      4 N3          0.3620    1.5903    0.6406 N.am       1 <1>        0.000
      5 C16        -0.1996    0.5305    0.0169 C.2        1 <1>        0.000
      6 N4         -1.5371    0.4731   -0.1728 N.am       1 <1>        0.000
      7 O3          0.5086   -0.3807   -0.3837 O.2        1 <1>        0.000
      8 N5         -2.1334   -0.6473   -0.8834 N.am       1 <1>        0.000
      9 C17        -3.1600   -1.3370   -0.3438 C.2        1 <1>        0.000
     10 O4         -3.3636   -1.3635    0.8587 O.2        1 <1>        0.000
     11 H           2.8679    3.8648    0.1159 H.spc      1 <1>        0.000
     12 H           2.1057    1.7320   -0.6079 H.spc      1 <1>        0.000
     13 H          -0.0555    1.9515    1.4983 H.spc      1 <1>        0.000
     14 H          -2.1320    1.2205    0.1848 H.spc      1 <1>        0.000
     15 H          -1.7718   -0.9143   -1.7990 H.spc      1 <1>        0.000
     16 H          -3.8293   -1.8886   -1.0040 H.spc      1 <1>        0.000
@<TRIPOS>BOND
     1    8    9 am 
     2    9   10 2  
     3    1    2 am 
     4    2    4 1  
     5    1    3 2  
     6    4    5 am 
     7    5    6 am 
     8    5    7 2  
     9    6    8 1  
    10    1   11 1  
    11    2   12 1  
    12    4   13 1  
    13    6   14 1  
    14    8   15 1  
    15    9   16 1  
# Name:          frag3-286-3/96164 -- energy: -1.551924
# Creation time: Sat Jun  5 12:53:29 2010


@<TRIPOS>MOLECULE
frag3-286-3/96164 -- energy: -1.551924
   16    15     1     1     1
SMALL
USER_CHARGES


@<TRIPOS>ATOM
      1 C11        -2.5944   -1.0015    0.2616 C.2        1 <1>        0.000
      2 N2         -2.3346    0.2193   -0.2578 N.am       1 <1>        0.000
      3 O2         -3.4558   -1.7491   -0.1649 O.2        1 <1>        0.000
      4 N3         -1.1935    0.9784    0.1432 N.am       1 <1>        0.000
      5 C16         0.0557    0.4596    0.1120 C.2        1 <1>        0.000
      6 N4          1.1086    1.1745   -0.3212 N.am       1 <1>        0.000
      7 O3          0.2193   -0.7087    0.4808 O.2        1 <1>        0.000
      8 N5          0.9749    2.5925   -0.5673 N.am       1 <1>        0.000
      9 C17         1.1986    3.4911    0.4152 C.2        1 <1>        0.000
     10 O4          1.3160    3.1617    1.5862 O.2        1 <1>        0.000
     11 H          -1.9986   -1.3358    1.1109 H.spc      1 <1>        0.000
     12 H          -2.9702    0.6083   -0.9543 H.spc      1 <1>        0.000
     13 H          -1.3238    1.9385    0.4620 H.spc      1 <1>        0.000
     14 H           2.0055    0.7143   -0.4768 H.spc      1 <1>        0.000
     15 H           0.7079    2.9188   -1.4961 H.spc      1 <1>        0.000
     16 H           1.2772    4.5467    0.1550 H.spc      1 <1>        0.000
@<TRIPOS>BOND
     1    8    9 am 
     2    9   10 2  
     3    1    2 am 
     4    2    4 1  
     5    1    3 2  
     6    4    5 am 
     7    5    6 am 
     8    5    7 2  
     9    6    8 1  
    10    1   11 1  
    11    2   12 1  
    12    4   13 1  
    13    6   14 1  
    14    8   15 1  
    15    9   16 1  
# Name:          frag3-286-3/96164 -- energy: -0.917833
# Creation time: Sat Jun  5 12:53:29 2010


@<TRIPOS>MOLECULE
frag3-286-3/96164 -- energy: -0.917833
   16    15     1     1     1
SMALL
USER_CHARGES


@<TRIPOS>ATOM
      1 C11         1.3721    3.5488    0.3800 C.2        1 <1>        0.000
      2 N2          0.9635    2.3440    0.8275 N.am       1 <1>        0.000
      3 O2          2.3441    4.1359    0.8205 O.2        1 <1>        0.000
      4 N3         -0.0919    1.6131    0.1843 N.am       1 <1>        0.000
      5 C16         0.0066    0.2878   -0.0602 C.2        1 <1>        0.000
      6 N4         -1.0757   -0.5105   -0.0433 N.am       1 <1>        0.000
      7 O3          1.1160   -0.1909   -0.2983 O.2        1 <1>        0.000
      8 N5         -2.4071    0.0594   -0.0206 N.am       1 <1>        0.000
      9 C17        -3.5006   -0.7262   -0.0890 C.2        1 <1>        0.000
     10 O4         -3.4322   -1.9436   -0.0133 O.2        1 <1>        0.000
     11 H           0.8018    4.0227   -0.4189 H.spc      1 <1>        0.000
     12 H           1.4174    1.9402    1.6468 H.spc      1 <1>        0.000
     13 H          -0.9389    2.1077   -0.0956 H.spc      1 <1>        0.000
     14 H          -0.9582   -1.5237   -0.0465 H.spc      1 <1>        0.000
     15 H          -2.5191    1.0709    0.0482 H.spc      1 <1>        0.000
     16 H          -4.4776   -0.2599   -0.2160 H.spc      1 <1>        0.000
@<TRIPOS>BOND
     1    8    9 am 
     2    9   10 2  
     3    1    2 am 
     4    2    4 1  
     5    1    3 2  
     6    4    5 am 
     7    5    6 am 
     8    5    7 2  
     9    6    8 1  
    10    1   11 1  
    11    2   12 1  
    12    4   13 1  
    13    6   14 1  
    14    8   15 1  
    15    9   16 1  
# Name:          frag3-286-3/96164 -- energy: -1.649930
# Creation time: Sat Jun  5 12:53:29 2010


@<TRIPOS>MOLECULE
frag3-286-3/96164 -- energy: -1.649930
   16    15     1     1     1
SMALL
USER_CHARGES


@<TRIPOS>ATOM
      1 C11        -2.8906   -0.2580    0.6550 C.2        1 <1>        0.000
      2 N2         -1.9065   -0.0669   -0.2481 N.am       1 <1>        0.000
      3 O2         -4.0755   -0.1656    0.3868 O.2        1 <1>        0.000
      4 N3         -0.5957   -0.6474   -0.0813 N.am       1 <1>        0.000
      5 C16         0.5102    0.0876   -0.2984 C.2        1 <1>        0.000
      6 N4          0.4361    1.3843   -0.6689 N.am       1 <1>        0.000
      7 O3          1.6218   -0.4231   -0.1470 O.2        1 <1>        0.000
      8 N5          1.3450    2.3710   -0.1448 N.am       1 <1>        0.000
      9 C17         0.9645    3.2179    0.8348 C.2        1 <1>        0.000
     10 O4         -0.1146    3.1181    1.3996 O.2        1 <1>        0.000
     11 H          -2.6108   -0.5082    1.6783 H.spc      1 <1>        0.000
     12 H          -2.0943    0.5041   -1.0722 H.spc      1 <1>        0.000
     13 H          -0.5070   -1.6228    0.2035 H.spc      1 <1>        0.000
     14 H          -0.2804    1.6716   -1.3356 H.spc      1 <1>        0.000
     15 H           2.2916    2.4307   -0.5200 H.spc      1 <1>        0.000
     16 H           1.6426    4.0178    1.1322 H.spc      1 <1>        0.000
@<TRIPOS>BOND
     1    8    9 am 
     2    9   10 2  
     3    1    2 am 
     4    2    4 1  
     5    1    3 2  
     6    4    5 am 
     7    5    6 am 
     8    5    7 2  
     9    6    8 1  
    10    1   11 1  
    11    2   12 1  
    12    4   13 1  
    13    6   14 1  
    14    8   15 1  
    15    9   16 1  
# Name:          frag3-286-3/96164 -- energy: -1.814893
# Creation time: Sat Jun  5 12:53:29 2010


@<TRIPOS>MOLECULE
frag3-286-3/96164 -- energy: -1.814893
   16    15     1     1     1
SMALL
USER_CHARGES


@<TRIPOS>ATOM
      1 C11        -2.9661   -0.8369    0.3582 C.2        1 <1>        0.000
      2 N2         -2.2243    0.1928    0.8196 N.am       1 <1>        0.000
      3 O2         -2.7691   -1.3555   -0.7308 O.2        1 <1>        0.000
      4 N3         -1.2033    0.7966    0.0062 N.am       1 <1>        0.000
      5 C16         0.0326    0.2617   -0.1010 C.2        1 <1>        0.000
      6 N4          1.0779    0.9812   -0.5550 N.am       1 <1>        0.000
      7 O3          0.2044   -0.9087    0.2478 O.2        1 <1>        0.000
      8 N5          1.1226    2.4066   -0.3466 N.am       1 <1>        0.000
      9 C17         1.0330    2.9406    0.8917 C.2        1 <1>        0.000
     10 O4          0.9869    4.1395    1.0974 O.2        1 <1>        0.000
     11 H          -3.7731   -1.2210    0.9821 H.spc      1 <1>        0.000
     12 H          -2.3909    0.5484    1.7610 H.spc      1 <1>        0.000
     13 H          -1.4185    1.6531   -0.5043 H.spc      1 <1>        0.000
     14 H           1.8399    0.5154   -1.0477 H.spc      1 <1>        0.000
     15 H           1.2240    3.0256   -1.1509 H.spc      1 <1>        0.000
     16 H           1.0005    2.2656    1.7469 H.spc      1 <1>        0.000
@<TRIPOS>BOND
     1    8    9 am 
     2    9   10 2  
     3    1    2 am 
     4    2    4 1  
     5    1    3 2  
     6    4    5 am 
     7    5    6 am 
     8    5    7 2  
     9    6    8 1  
    10    1   11 1  
    11    2   12 1  
    12    4   13 1  
    13    6   14 1  
    14    8   15 1  
    15    9   16 1  
# Name:          frag3-286-3/96164 -- energy: -1.411201
# Creation time: Sat Jun  5 12:53:29 2010


@<TRIPOS>MOLECULE
frag3-286-3/96164 -- energy: -1.411201
   16    15     1     1     1
SMALL
USER_CHARGES


@<TRIPOS>ATOM
      1 C11        -3.3309   -0.9749    0.0088 C.2        1 <1>        0.000
      2 N2         -1.9945   -0.8275    0.1286 N.am       1 <1>        0.000
      3 O2         -3.8507   -2.0175   -0.3517 O.2        1 <1>        0.000
      4 N3         -1.4071    0.4583    0.4576 N.am       1 <1>        0.000
      5 C16        -0.1409    0.7544    0.0917 C.2        1 <1>        0.000
      6 N4          0.1829    1.9899   -0.3499 N.am       1 <1>        0.000
      7 O3          0.7253   -0.1076    0.1634 O.2        1 <1>        0.000
      8 N5          1.5708    2.4131   -0.4117 N.am       1 <1>        0.000
      9 C17         2.1123    3.1478    0.5824 C.2        1 <1>        0.000
     10 O4          1.4274    3.7818    1.3684 O.2        1 <1>        0.000
     11 H          -3.9727   -0.1260    0.2443 H.spc      1 <1>        0.000
     12 H          -1.3867   -1.6340   -0.0146 H.spc      1 <1>        0.000
     13 H          -1.9571    1.1467    0.9714 H.spc      1 <1>        0.000
     14 H          -0.5544    2.6312   -0.6425 H.spc      1 <1>        0.000
     15 H           2.1425    2.1522   -1.2151 H.spc      1 <1>        0.000
     16 H           3.1969    3.1758    0.6866 H.spc      1 <1>        0.000
@<TRIPOS>BOND
     1    8    9 am 
     2    9   10 2  
     3    1    2 am 
     4    2    4 1  
     5    1    3 2  
     6    4    5 am 
     7    5    6 am 
     8    5    7 2  
     9    6    8 1  
    10    1   11 1  
    11    2   12 1  
    12    4   13 1  
    13    6   14 1  
    14    8   15 1  
    15    9   16 1  
# Name:          frag3-286-3/96164 -- energy: -1.910196
# Creation time: Sat Jun  5 12:53:29 2010


@<TRIPOS>MOLECULE
frag3-286-3/96164 -- energy: -1.910196
   16    15     1     1     1
SMALL
USER_CHARGES


@<TRIPOS>ATOM
      1 C11         0.2293    3.1357    0.5927 C.2        1 <1>        0.000
      2 N2          0.4652    1.8137    0.6921 N.am       1 <1>        0.000
      3 O2         -0.4739    3.7750    1.3513 O.2        1 <1>        0.000
      4 N3          1.0609    1.0425   -0.3480 N.am       1 <1>        0.000
      5 C16         0.7511   -0.2588   -0.5173 C.2        1 <1>        0.000
      6 N4         -0.4986   -0.7112   -0.3008 N.am       1 <1>        0.000
      7 O3          1.6344   -1.0497   -0.8691 O.2        1 <1>        0.000
      8 N5         -1.5962    0.1936   -0.1980 N.am       1 <1>        0.000
      9 C17        -2.6900   -0.0595    0.5436 C.2        1 <1>        0.000
     10 O4         -3.5875    0.7364    0.7411 O.2        1 <1>        0.000
     11 H           0.7039    3.6726   -0.2287 H.spc      1 <1>        0.000
     12 H           0.2040    1.3396    1.5566 H.spc      1 <1>        0.000
     13 H           1.7337    1.4829   -0.9756 H.spc      1 <1>        0.000
     14 H          -0.6623   -1.7138   -0.2092 H.spc      1 <1>        0.000
     15 H          -1.5498    1.0741   -0.7108 H.spc      1 <1>        0.000
     16 H          -2.7774   -1.0461    0.9986 H.spc      1 <1>        0.000
@<TRIPOS>BOND
     1    8    9 am 
     2    9   10 2  
     3    1    2 am 
     4    2    4 1  
     5    1    3 2  
     6    4    5 am 
     7    5    6 am 
     8    5    7 2  
     9    6    8 1  
    10    1   11 1  
    11    2   12 1  
    12    4   13 1  
    13    6   14 1  
    14    8   15 1  
    15    9   16 1  
# Name:          frag3-286-3/96164 -- energy: -1.189266
# Creation time: Sat Jun  5 12:53:29 2010


@<TRIPOS>MOLECULE
frag3-286-3/96164 -- energy: -1.189266
   16    15     1     1     1
SMALL
USER_CHARGES


@<TRIPOS>ATOM
      1 C11        -2.9872   -0.4767   -0.2349 C.2        1 <1>        0.000
      2 N2         -1.9011   -0.8481    0.4761 N.am       1 <1>        0.000
      3 O2         -4.1129   -0.8791   -0.0076 O.2        1 <1>        0.000
      4 N3         -0.5748   -0.8205   -0.0823 N.am       1 <1>        0.000
      5 C16         0.1469    0.3127   -0.0644 C.2        1 <1>        0.000
      6 N4         -0.4346    1.5317    0.0031 N.am       1 <1>        0.000
      7 O3          1.3810    0.2497   -0.0992 O.2        1 <1>        0.000
      8 N5          0.3359    2.7341   -0.0041 N.am       1 <1>        0.000
      9 C17         1.4218    2.8808    0.7879 C.2        1 <1>        0.000
     10 O4          2.0198    3.9334    0.9131 O.2        1 <1>        0.000
     11 H          -2.8478    0.2230   -1.0589 H.spc      1 <1>        0.000
     12 H          -2.0245   -1.1582    1.4400 H.spc      1 <1>        0.000
     13 H          -0.1804   -1.6663   -0.4941 H.spc      1 <1>        0.000
     14 H          -1.4511    1.5941    0.0607 H.spc      1 <1>        0.000
     15 H           0.0609    3.4990   -0.6203 H.spc      1 <1>        0.000
     16 H           1.7796    2.0130    1.3420 H.spc      1 <1>        0.000
@<TRIPOS>BOND
     1    8    9 am 
     2    9   10 2  
     3    1    2 am 
     4    2    4 1  
     5    1    3 2  
     6    4    5 am 
     7    5    6 am 
     8    5    7 2  
     9    6    8 1  
    10    1   11 1  
    11    2   12 1  
    12    4   13 1  
    13    6   14 1  
    14    8   15 1  
    15    9   16 1  
# Name:          frag3-286-3/96164 -- energy: -1.660975
# Creation time: Sat Jun  5 12:53:29 2010


@<TRIPOS>MOLECULE
frag3-286-3/96164 -- energy: -1.660975
   16    15     1     1     1
SMALL
USER_CHARGES


@<TRIPOS>ATOM
      1 C11        -3.0038   -0.2887    0.0052 C.2        1 <1>        0.000
      2 N2         -2.1638   -0.5804   -1.0135 N.am       1 <1>        0.000
      3 O2         -2.7320   -0.5256    1.1725 O.2        1 <1>        0.000
      4 N3         -0.7477   -0.7675   -0.7838 N.am       1 <1>        0.000
      5 C16        -0.0080    0.2292   -0.2615 C.2        1 <1>        0.000
      6 N4         -0.4545    1.5051   -0.2275 N.am       1 <1>        0.000
      7 O3          1.1038   -0.0210    0.2137 O.2        1 <1>        0.000
      8 N5          0.0831    2.4650    0.6865 N.am       1 <1>        0.000
      9 C17         1.3868    2.8161    0.6541 C.2        1 <1>        0.000
     10 O4          1.8308    3.7856    1.2422 O.2        1 <1>        0.000
     11 H          -3.9623    0.1767   -0.2244 H.spc      1 <1>        0.000
     12 H          -2.5347   -0.6700   -1.9595 H.spc      1 <1>        0.000
     13 H          -0.3081   -1.6575   -1.0183 H.spc      1 <1>        0.000
     14 H          -1.1935    1.7903   -0.8701 H.spc      1 <1>        0.000
     15 H          -0.5318    2.8939    1.3781 H.spc      1 <1>        0.000
     16 H           2.0750    2.2019    0.0734 H.spc      1 <1>        0.000
@<TRIPOS>BOND
     1    8    9 am 
     2    9   10 2  
     3    1    2 am 
     4    2    4 1  
     5    1    3 2  
     6    4    5 am 
     7    5    6 am 
     8    5    7 2  
     9    6    8 1  
    10    1   11 1  
    11    2   12 1  
    12    4   13 1  
    13    6   14 1  
    14    8   15 1  
    15    9   16 1  
# Name:          frag3-286-3/96164 -- energy: -1.269363
# Creation time: Sat Jun  5 12:53:29 2010


@<TRIPOS>MOLECULE
frag3-286-3/96164 -- energy: -1.269363
   16    15     1     1     1
SMALL
USER_CHARGES


@<TRIPOS>ATOM
      1 C11        -3.3654   -0.9235   -0.0469 C.2        1 <1>        0.000
      2 N2         -2.0297   -0.7893    0.0884 N.am       1 <1>        0.000
      3 O2         -3.9684   -1.9299    0.2844 O.2        1 <1>        0.000
      4 N3         -1.3397    0.3956   -0.3743 N.am       1 <1>        0.000
      5 C16        -0.0037    0.5261   -0.2330 C.2        1 <1>        0.000
      6 N4          0.6441    1.6252   -0.6740 N.am       1 <1>        0.000
      7 O3          0.6323   -0.3688    0.3155 O.2        1 <1>        0.000
      8 N5          1.5520    2.3483    0.1909 N.am       1 <1>        0.000
      9 C17         1.2349    3.5696    0.6695 C.2        1 <1>        0.000
     10 O4          1.9384    4.1646    1.4672 O.2        1 <1>        0.000
     11 H          -3.9311   -0.0943   -0.4718 H.spc      1 <1>        0.000
     12 H          -1.4947   -1.5392    0.5263 H.spc      1 <1>        0.000
     13 H          -1.8724    1.1455   -0.8151 H.spc      1 <1>        0.000
     14 H           0.4919    1.9503   -1.6288 H.spc      1 <1>        0.000
     15 H           2.4464    1.9277    0.4429 H.spc      1 <1>        0.000
     16 H           0.3136    4.0424    0.3293 H.spc      1 <1>        0.000
@<TRIPOS>BOND
     1    8    9 am 
     2    9   10 2  
     3    1    2 am 
     4    2    4 1  
     5    1    3 2  
     6    4    5 am 
     7    5    6 am 
     8    5    7 2  
     9    6    8 1  
    10    1   11 1  
    11    2   12 1  
    12    4   13 1  
    13    6   14 1  
    14    8   15 1  
    15    9   16 1  
# Name:          frag3-286-3/96164 -- energy: -1.950413
# Creation time: Sat Jun  5 12:53:29 2010


@<TRIPOS>MOLECULE
frag3-286-3/96164 -- energy: -1.950413
   16    15     1     1     1
SMALL
USER_CHARGES


@<TRIPOS>ATOM
      1 C11         0.9453    3.1337    0.7135 C.2        1 <1>        0.000
      2 N2          1.0562    2.3770   -0.4002 N.am       1 <1>        0.000
      3 O2         -0.0584    3.1358    1.4118 O.2        1 <1>        0.000
      4 N3          0.1703    1.2716   -0.6467 N.am       1 <1>        0.000
      5 C16         0.4359    0.0327   -0.1771 C.2        1 <1>        0.000
      6 N4         -0.4308   -0.6255    0.6160 N.am       1 <1>        0.000
      7 O3          1.5080   -0.4974   -0.4827 O.2        1 <1>        0.000
      8 N5         -1.7643   -0.1178    0.8074 N.am       1 <1>        0.000
      9 C17        -2.7048   -0.2159   -0.1564 C.2        1 <1>        0.000
     10 O4         -3.8627    0.1234    0.0022 O.2        1 <1>        0.000
     11 H           1.7841    3.7677    1.0010 H.spc      1 <1>        0.000
     12 H           1.7841    2.5945   -1.0809 H.spc      1 <1>        0.000
     13 H          -0.6794    1.4264   -1.1893 H.spc      1 <1>        0.000
     14 H          -0.1419   -1.4856    1.0821 H.spc      1 <1>        0.000
     15 H          -2.0046    0.3271    1.6932 H.spc      1 <1>        0.000
     16 H          -2.4121   -0.6195   -1.1257 H.spc      1 <1>        0.000
@<TRIPOS>BOND
     1    8    9 am 
     2    9   10 2  
     3    1    2 am 
     4    2    4 1  
     5    1    3 2  
     6    4    5 am 
     7    5    6 am 
     8    5    7 2  
     9    6    8 1  
    10    1   11 1  
    11    2   12 1  
    12    4   13 1  
    13    6   14 1  
    14    8   15 1  
    15    9   16 1  
# Name:          frag3-286-3/96164 -- energy: -1.753188
# Creation time: Sat Jun  5 12:53:29 2010


@<TRIPOS>MOLECULE
frag3-286-3/96164 -- energy: -1.753188
   16    15     1     1     1
SMALL
USER_CHARGES


@<TRIPOS>ATOM
      1 C11        -3.2080   -0.3600    0.1407 C.2        1 <1>        0.000
      2 N2         -2.2901    0.3920   -0.5036 N.am       1 <1>        0.000
      3 O2         -2.9230   -1.4006    0.7144 O.2        1 <1>        0.000
      4 N3         -1.0181   -0.1644   -0.9106 N.am       1 <1>        0.000
      5 C16         0.0948    0.0810   -0.1956 C.2        1 <1>        0.000
      6 N4          0.1084    0.9893    0.8046 N.am       1 <1>        0.000
      7 O3          1.1366   -0.5241   -0.4598 O.2        1 <1>        0.000
      8 N5          1.0802    2.0403    0.8523 N.am       1 <1>        0.000
      9 C17         0.7535    3.3266    0.6089 C.2        1 <1>        0.000
     10 O4          1.5603    4.2378    0.6365 O.2        1 <1>        0.000
     11 H          -4.2453   -0.0253    0.1494 H.spc      1 <1>        0.000
     12 H          -2.4972    1.3698   -0.7070 H.spc      1 <1>        0.000
     13 H          -0.9647   -0.7472   -1.7460 H.spc      1 <1>        0.000
     14 H          -0.5910    0.9249    1.5443 H.spc      1 <1>        0.000
     15 H           2.0480    1.8095    1.0769 H.spc      1 <1>        0.000
     16 H          -0.2850    3.5617    0.3758 H.spc      1 <1>        0.000
@<TRIPOS>BOND
     1    8    9 am 
     2    9   10 2  
     3    1    2 am 
     4    2    4 1  
     5    1    3 2  
     6    4    5 am 
     7    5    6 am 
     8    5    7 2  
     9    6    8 1  
    10    1   11 1  
    11    2   12 1  
    12    4   13 1  
    13    6   14 1  
    14    8   15 1  
    15    9   16 1  
# Name:          frag3-286-3/96164 -- energy: -1.585584
# Creation time: Sat Jun  5 12:53:29 2010


@<TRIPOS>MOLECULE
frag3-286-3/96164 -- energy: -1.585584
   16    15     1     1     1
SMALL
USER_CHARGES


@<TRIPOS>ATOM
      1 C11        -3.2021   -0.0244    0.4526 C.2        1 <1>        0.000
      2 N2         -1.8849    0.1395    0.6924 N.am       1 <1>        0.000
      3 O2         -3.6271   -0.8315   -0.3602 O.2        1 <1>        0.000
      4 N3         -0.8862   -0.3039   -0.2604 N.am       1 <1>        0.000
      5 C16         0.4025    0.0603   -0.1200 C.2        1 <1>        0.000
      6 N4          0.7761    0.9787    0.7980 N.am       1 <1>        0.000
      7 O3          1.2613   -0.4466   -0.8396 O.2        1 <1>        0.000
      8 N5          1.5743    2.1242    0.4289 N.am       1 <1>        0.000
      9 C17         1.0416    3.3637    0.4013 C.2        1 <1>        0.000
     10 O4         -0.1608    3.5578    0.4948 O.2        1 <1>        0.000
     11 H          -3.9152    0.5871    1.0055 H.spc      1 <1>        0.000
     12 H          -1.5858    0.5838    1.5605 H.spc      1 <1>        0.000
     13 H          -1.1620   -0.8965   -1.0434 H.spc      1 <1>        0.000
     14 H           0.4890    0.8607    1.7696 H.spc      1 <1>        0.000
     15 H           2.5562    1.9943    0.1852 H.spc      1 <1>        0.000
     16 H           1.7065    4.2205    0.2919 H.spc      1 <1>        0.000
@<TRIPOS>BOND
     1    8    9 am 
     2    9   10 2  
     3    1    2 am 
     4    2    4 1  
     5    1    3 2  
     6    4    5 am 
     7    5    6 am 
     8    5    7 2  
     9    6    8 1  
    10    1   11 1  
    11    2   12 1  
    12    4   13 1  
    13    6   14 1  
    14    8   15 1  
    15    9   16 1  
# Name:          frag3-286-3/96164 -- energy: -1.517195
# Creation time: Sat Jun  5 12:53:29 2010


@<TRIPOS>MOLECULE
frag3-286-3/96164 -- energy: -1.517195
   16    15     1     1     1
SMALL
USER_CHARGES


@<TRIPOS>ATOM
      1 C11        -3.1083   -1.0505    0.2377 C.2        1 <1>        0.000
      2 N2         -2.0216   -0.4195   -0.2524 N.am       1 <1>        0.000
      3 O2         -4.2211   -0.9477   -0.2467 O.2        1 <1>        0.000
      4 N3         -0.7700   -0.3874    0.4640 N.am       1 <1>        0.000
      5 C16         0.1686    0.5300    0.1678 C.2        1 <1>        0.000
      6 N4         -0.1603    1.7600   -0.2863 N.am       1 <1>        0.000
      7 O3          1.3607    0.2462    0.3031 O.2        1 <1>        0.000
      8 N5          0.8454    2.7418   -0.5989 N.am       1 <1>        0.000
      9 C17         1.6215    3.2700    0.3720 C.2        1 <1>        0.000
     10 O4          1.5798    2.8750    1.5274 O.2        1 <1>        0.000
     11 H          -2.9840   -1.6865    1.1142 H.spc      1 <1>        0.000
     12 H          -2.0868    0.0488   -1.1562 H.spc      1 <1>        0.000
     13 H          -0.5946   -1.0678    1.2034 H.spc      1 <1>        0.000
     14 H          -1.1443    1.9982   -0.4104 H.spc      1 <1>        0.000
     15 H           0.9733    3.0420   -1.5653 H.spc      1 <1>        0.000
     16 H           2.3087    4.0764    0.1160 H.spc      1 <1>        0.000
@<TRIPOS>BOND
     1    8    9 am 
     2    9   10 2  
     3    1    2 am 
     4    2    4 1  
     5    1    3 2  
     6    4    5 am 
     7    5    6 am 
     8    5    7 2  
     9    6    8 1  
    10    1   11 1  
    11    2   12 1  
    12    4   13 1  
    13    6   14 1  
    14    8   15 1  
    15    9   16 1  
# Name:          frag3-286-3/96164 -- energy: -1.555712
# Creation time: Sat Jun  5 12:53:29 2010


@<TRIPOS>MOLECULE
frag3-286-3/96164 -- energy: -1.555712
   16    15     1     1     1
SMALL
USER_CHARGES


@<TRIPOS>ATOM
      1 C11         0.6587    3.3741    0.9186 C.2        1 <1>        0.000
      2 N2          1.0278    2.1770    0.4182 N.am       1 <1>        0.000
      3 O2          1.4496    4.1939    1.3502 O.2        1 <1>        0.000
      4 N3          0.1210    1.3541   -0.3343 N.am       1 <1>        0.000
      5 C16         0.2162    0.0069   -0.3322 C.2        1 <1>        0.000
      6 N4         -0.8781   -0.7757   -0.3989 N.am       1 <1>        0.000
      7 O3          1.3322   -0.5090   -0.2679 O.2        1 <1>        0.000
      8 N5         -2.1550   -0.2125   -0.7869 N.am       1 <1>        0.000
      9 C17        -3.1641   -0.1003    0.1011 C.2        1 <1>        0.000
     10 O4         -3.3135   -0.8905    1.0198 O.2        1 <1>        0.000
     11 H          -0.4029    3.6208    0.9377 H.spc      1 <1>        0.000
     12 H           1.9791    1.8458    0.5787 H.spc      1 <1>        0.000
     13 H          -0.6137    1.7992   -0.8843 H.spc      1 <1>        0.000
     14 H          -0.8073   -1.7684   -0.1754 H.spc      1 <1>        0.000
     15 H          -2.2932    0.1042   -1.7466 H.spc      1 <1>        0.000
     16 H          -3.8699    0.7235   -0.0050 H.spc      1 <1>        0.000
@<TRIPOS>BOND
     1    8    9 am 
     2    9   10 2  
     3    1    2 am 
     4    2    4 1  
     5    1    3 2  
     6    4    5 am 
     7    5    6 am 
     8    5    7 2  
     9    6    8 1  
    10    1   11 1  
    11    2   12 1  
    12    4   13 1  
    13    6   14 1  
    14    8   15 1  
    15    9   16 1  
# Name:          frag3-286-3/96164 -- energy: -1.443229
# Creation time: Sat Jun  5 12:53:29 2010


@<TRIPOS>MOLECULE
frag3-286-3/96164 -- energy: -1.443229
   16    15     1     1     1
SMALL
USER_CHARGES


@<TRIPOS>ATOM
      1 C11        -2.8523   -0.2305    0.1952 C.2        1 <1>        0.000
      2 N2         -1.6270    0.2912   -0.0080 N.am       1 <1>        0.000
      3 O2         -3.6938    0.2450    0.9338 O.2        1 <1>        0.000
      4 N3         -0.5998   -0.3900   -0.7294 N.am       1 <1>        0.000
      5 C16         0.6964   -0.2285   -0.4046 C.2        1 <1>        0.000
      6 N4          1.0993    0.7927    0.3779 N.am       1 <1>        0.000
      7 O3          1.5397   -1.0193   -0.8446 O.2        1 <1>        0.000
      8 N5          0.6589    2.1252    0.1317 N.am       1 <1>        0.000
      9 C17         0.1562    2.9249    1.0923 C.2        1 <1>        0.000
     10 O4         -0.0829    4.1071    0.9436 O.2        1 <1>        0.000
     11 H          -3.1081   -1.1445   -0.3408 H.spc      1 <1>        0.000
     12 H          -1.4234    1.2160    0.3711 H.spc      1 <1>        0.000
     13 H          -0.8519   -1.0073   -1.5013 H.spc      1 <1>        0.000
     14 H           1.7294    0.6085    1.1586 H.spc      1 <1>        0.000
     15 H           0.7276    2.4914   -0.8178 H.spc      1 <1>        0.000
     16 H          -0.0496    2.4825    2.0670 H.spc      1 <1>        0.000
@<TRIPOS>BOND
     1    8    9 am 
     2    9   10 2  
     3    1    2 am 
     4    2    4 1  
     5    1    3 2  
     6    4    5 am 
     7    5    6 am 
     8    5    7 2  
     9    6    8 1  
    10    1   11 1  
    11    2   12 1  
    12    4   13 1  
    13    6   14 1  
    14    8   15 1  
    15    9   16 1  
# Name:          frag3-286-3/96164 -- energy: -1.425542
# Creation time: Sat Jun  5 12:53:29 2010


@<TRIPOS>MOLECULE
frag3-286-3/96164 -- energy: -1.425542
   16    15     1     1     1
SMALL
USER_CHARGES


@<TRIPOS>ATOM
      1 C11        -3.2951   -0.7237   -0.3217 C.2        1 <1>        0.000
      2 N2         -2.1296   -0.1168   -0.6322 N.am       1 <1>        0.000
      3 O2         -3.5608   -1.0958    0.8094 O.2        1 <1>        0.000
      4 N3         -0.9705   -0.2332    0.2414 N.am       1 <1>        0.000
      5 C16         0.1446    0.4940    0.0014 C.2        1 <1>        0.000
      6 N4          0.9600    0.8526    1.0197 N.am       1 <1>        0.000
      7 O3          0.4186    0.8243   -1.1405 O.2        1 <1>        0.000
      8 N5          1.9015    1.9510    0.8549 N.am       1 <1>        0.000
      9 C17         1.4902    3.1432    0.3747 C.2        1 <1>        0.000
     10 O4          0.3358    3.5222    0.4806 O.2        1 <1>        0.000
     11 H          -4.0272   -0.8876   -1.1125 H.spc      1 <1>        0.000
     12 H          -2.0602    0.4305   -1.4901 H.spc      1 <1>        0.000
     13 H          -0.9996   -0.8674    1.0398 H.spc      1 <1>        0.000
     14 H           0.9150    0.3512    1.9068 H.spc      1 <1>        0.000
     15 H           2.8814    1.8181    1.1048 H.spc      1 <1>        0.000
     16 H           2.2133    3.7885   -0.1241 H.spc      1 <1>        0.000
@<TRIPOS>BOND
     1    8    9 am 
     2    9   10 2  
     3    1    2 am 
     4    2    4 1  
     5    1    3 2  
     6    4    5 am 
     7    5    6 am 
     8    5    7 2  
     9    6    8 1  
    10    1   11 1  
    11    2   12 1  
    12    4   13 1  
    13    6   14 1  
    14    8   15 1  
    15    9   16 1  
