#      Rotatable Fragment
#      Build by yxyuan
#
# Name:          frag3-233-3/31924
# Creation time: Sat Jun  5 12:52:25 2010


@<TRIPOS>MOLECULE
frag3-233-3/31924
    9     8     1     1     1
SMALL
USER_CHARGES


@<TRIPOS>ATOM
      1 C2         -1.4309    0.2217   -0.0876 C.2        1 <1>        0.000
      2 O1         -1.6694    1.0990   -0.9171 O.2        1 <1>        0.000
      3 N1         -0.3460   -0.3777    0.4334 N.am       1 <1>        0.000
      4 C3          0.7740    0.2259   -0.0264 C.2        1 <1>        0.000
      5 O2          0.9747    1.3641   -0.4049 O.2        1 <1>        0.000
      6 O3          1.7829   -0.6411    0.0486 O.3        1 <1>        0.000
      7 H          -2.3495   -0.1784    0.3417 H.spc      1 <1>        0.000
      8 H          -0.3646   -1.1681    1.0779 H.spc      1 <1>        0.000
      9 H           1.4541   -1.4866    0.3627 H.spc      1 <1>        0.000
@<TRIPOS>BOND
     1    1    2 2  
     2    1    3 am 
     3    3    4 am 
     4    4    5 2  
     5    4    6 1  
     6    1    7 1  
     7    3    8 1  
     8    6    9 1  
# Name:          frag3-233-3/31924
# Creation time: Sat Jun  5 12:52:25 2010


@<TRIPOS>MOLECULE
frag3-233-3/31924
    9     8     1     1     1
SMALL
USER_CHARGES


@<TRIPOS>ATOM
      1 C2         -1.1704    0.3346   -0.6457 C.2        1 <1>        0.000
      2 O1         -2.3167   -0.0701   -0.5833 O.2        1 <1>        0.000
      3 N1         -0.3441    0.7749    0.3381 N.am       1 <1>        0.000
      4 C3          0.9519    0.4631    0.0751 C.2        1 <1>        0.000
      5 O2          1.9218    1.1512    0.3300 O.2        1 <1>        0.000
      6 O3          1.0429   -0.7618   -0.4683 O.3        1 <1>        0.000
      7 H          -0.7401    0.3453   -1.6471 H.spc      1 <1>        0.000
      8 H          -0.6570    1.2763    1.1694 H.spc      1 <1>        0.000
      9 H           0.1620   -1.1252   -0.5847 H.spc      1 <1>        0.000
@<TRIPOS>BOND
     1    1    2 2  
     2    1    3 am 
     3    3    4 am 
     4    4    5 2  
     5    4    6 1  
     6    1    7 1  
     7    3    8 1  
     8    6    9 1  
# Name:          frag3-233-3/31924
# Creation time: Sat Jun  5 12:52:25 2010


@<TRIPOS>MOLECULE
frag3-233-3/31924
    9     8     1     1     1
SMALL
USER_CHARGES


@<TRIPOS>ATOM
      1 C2         -1.1852    0.3710   -0.0042 C.2        1 <1>        0.000
      2 O1         -2.3539    0.5799   -0.2604 O.2        1 <1>        0.000
      3 N1         -0.1832   -0.0372   -0.8362 N.am       1 <1>        0.000
      4 C3          0.9554    0.3036   -0.1893 C.2        1 <1>        0.000
      5 O2          1.6582    1.2615   -0.4480 O.2        1 <1>        0.000
      6 O3          1.1941   -0.5870    0.7841 O.3        1 <1>        0.000
      7 H          -0.8964    0.5319    1.0345 H.spc      1 <1>        0.000
      8 H          -0.2726   -0.4963   -1.7426 H.spc      1 <1>        0.000
      9 H           0.4980   -1.2481    0.7892 H.spc      1 <1>        0.000
@<TRIPOS>BOND
     1    1    2 2  
     2    1    3 am 
     3    3    4 am 
     4    4    5 2  
     5    4    6 1  
     6    1    7 1  
     7    3    8 1  
     8    6    9 1  
# Name:          frag3-233-3/31924
# Creation time: Sat Jun  5 12:52:25 2010


@<TRIPOS>MOLECULE
frag3-233-3/31924
    9     8     1     1     1
SMALL
USER_CHARGES


@<TRIPOS>ATOM
      1 C2         -1.1687    0.6574   -0.4337 C.2        1 <1>        0.000
      2 O1         -2.3579    0.5160   -0.7210 O.2        1 <1>        0.000
      3 N1         -0.3437   -0.1075    0.3080 N.am       1 <1>        0.000
      4 C3          0.9181    0.2716    0.0228 C.2        1 <1>        0.000
      5 O2          1.3801    1.3939   -0.1364 O.2        1 <1>        0.000
      6 O3          1.6574   -0.8395    0.0062 O.3        1 <1>        0.000
      7 H          -0.7054    1.5521   -0.8495 H.spc      1 <1>        0.000
      8 H          -0.6222   -0.8377    0.9635 H.spc      1 <1>        0.000
      9 H           1.0914   -1.6013    0.1510 H.spc      1 <1>        0.000
@<TRIPOS>BOND
     1    1    2 2  
     2    1    3 am 
     3    3    4 am 
     4    4    5 2  
     5    4    6 1  
     6    1    7 1  
     7    3    8 1  
     8    6    9 1  
# Name:          frag3-233-3/31924
# Creation time: Sat Jun  5 12:52:25 2010


@<TRIPOS>MOLECULE
frag3-233-3/31924
    9     8     1     1     1
SMALL
USER_CHARGES


@<TRIPOS>ATOM
      1 C2         -1.4010    0.1663   -0.0550 C.2        1 <1>        0.000
      2 O1         -1.6314    0.3413   -1.2477 O.2        1 <1>        0.000
      3 N1         -0.3096    0.2100    0.7661 N.am       1 <1>        0.000
      4 C3          0.8189    0.4250    0.0667 C.2        1 <1>        0.000
      5 O2          1.5718    1.3691    0.2568 O.2        1 <1>        0.000
      6 O3          1.0366   -0.6198   -0.7410 O.3        1 <1>        0.000
      7 H          -2.3061   -0.0923    0.4945 H.spc      1 <1>        0.000
      8 H          -0.3461    0.0945    1.7789 H.spc      1 <1>        0.000
      9 H           0.2841   -1.2147   -0.7027 H.spc      1 <1>        0.000
@<TRIPOS>BOND
     1    1    2 2  
     2    1    3 am 
     3    3    4 am 
     4    4    5 2  
     5    4    6 1  
     6    1    7 1  
     7    3    8 1  
     8    6    9 1  
# Name:          frag3-233-3/31924
# Creation time: Sat Jun  5 12:52:25 2010


@<TRIPOS>MOLECULE
frag3-233-3/31924
    9     8     1     1     1
SMALL
USER_CHARGES


@<TRIPOS>ATOM
      1 C2         -1.3618    0.0202   -0.3193 C.2        1 <1>        0.000
      2 O1         -1.7311    1.0045    0.3194 O.2        1 <1>        0.000
      3 N1         -0.1810   -0.4559   -0.7896 N.am       1 <1>        0.000
      4 C3          0.8561    0.2527   -0.2836 C.2        1 <1>        0.000
      5 O2          1.7315    0.7809   -0.9314 O.2        1 <1>        0.000
      6 O3          0.7716    0.2894    1.0504 O.3        1 <1>        0.000
      7 H          -2.1944   -0.6365   -0.5717 H.spc      1 <1>        0.000
      8 H          -0.0876   -1.2398   -1.4355 H.spc      1 <1>        0.000
      9 H          -0.0046   -0.1990    1.3343 H.spc      1 <1>        0.000
@<TRIPOS>BOND
     1    1    2 2  
     2    1    3 am 
     3    3    4 am 
     4    4    5 2  
     5    4    6 1  
     6    1    7 1  
     7    3    8 1  
     8    6    9 1  
# Name:          frag3-233-3/31924
# Creation time: Sat Jun  5 12:52:25 2010


@<TRIPOS>MOLECULE
frag3-233-3/31924
    9     8     1     1     1
SMALL
USER_CHARGES


@<TRIPOS>ATOM
      1 C2         -1.3931    0.1645   -0.3707 C.2        1 <1>        0.000
      2 O1         -1.7405    1.3145   -0.1234 O.2        1 <1>        0.000
      3 N1         -0.3085   -0.6151   -0.1632 N.am       1 <1>        0.000
      4 C3          0.8046    0.1603   -0.1941 C.2        1 <1>        0.000
      5 O2          1.1161    1.0948   -0.9031 O.2        1 <1>        0.000
      6 O3          1.6067   -0.2271    0.8004 O.3        1 <1>        0.000
      7 H          -2.1734   -0.3779   -0.9045 H.spc      1 <1>        0.000
      8 H          -0.3243   -1.6232   -0.0084 H.spc      1 <1>        0.000
      9 H           1.2114   -0.9736    1.2565 H.spc      1 <1>        0.000
@<TRIPOS>BOND
     1    1    2 2  
     2    1    3 am 
     3    3    4 am 
     4    4    5 2  
     5    4    6 1  
     6    1    7 1  
     7    3    8 1  
     8    6    9 1  
# Name:          frag3-233-3/31924 -- energy: 0.543553
# Creation time: Sat Jun  5 12:52:25 2010


@<TRIPOS>MOLECULE
frag3-233-3/31924 -- energy: 0.543553
    9     8     1     1     1
SMALL
USER_CHARGES


@<TRIPOS>ATOM
      1 C2         -1.4309    0.2217   -0.0876 C.2        1 <1>        0.000
      2 O1         -1.6694    1.0990   -0.9171 O.2        1 <1>        0.000
      3 N1         -0.3460   -0.3777    0.4334 N.am       1 <1>        0.000
      4 C3          0.7740    0.2259   -0.0264 C.2        1 <1>        0.000
      5 O2          0.9747    1.3641   -0.4049 O.2        1 <1>        0.000
      6 O3          1.7829   -0.6411    0.0486 O.3        1 <1>        0.000
      7 H          -2.3495   -0.1784    0.3417 H.spc      1 <1>        0.000
      8 H          -0.3646   -1.1681    1.0779 H.spc      1 <1>        0.000
      9 H           1.4541   -1.4866    0.3627 H.spc      1 <1>        0.000
@<TRIPOS>BOND
     1    1    2 2  
     2    1    3 am 
     3    3    4 am 
     4    4    5 2  
     5    4    6 1  
     6    1    7 1  
     7    3    8 1  
     8    6    9 1  
# Name:          frag3-233-3/31924 -- energy: 0.669126
# Creation time: Sat Jun  5 12:52:25 2010


@<TRIPOS>MOLECULE
frag3-233-3/31924 -- energy: 0.669126
    9     8     1     1     1
SMALL
USER_CHARGES


@<TRIPOS>ATOM
      1 C2         -1.1852    0.3710   -0.0042 C.2        1 <1>        0.000
      2 O1         -2.3539    0.5799   -0.2604 O.2        1 <1>        0.000
      3 N1         -0.1832   -0.0372   -0.8362 N.am       1 <1>        0.000
      4 C3          0.9554    0.3036   -0.1893 C.2        1 <1>        0.000
      5 O2          1.6582    1.2615   -0.4480 O.2        1 <1>        0.000
      6 O3          1.1941   -0.5870    0.7841 O.3        1 <1>        0.000
      7 H          -0.8964    0.5319    1.0345 H.spc      1 <1>        0.000
      8 H          -0.2726   -0.4963   -1.7426 H.spc      1 <1>        0.000
      9 H           0.4980   -1.2481    0.7892 H.spc      1 <1>        0.000
@<TRIPOS>BOND
     1    1    2 2  
     2    1    3 am 
     3    3    4 am 
     4    4    5 2  
     5    4    6 1  
     6    1    7 1  
     7    3    8 1  
     8    6    9 1  
# Name:          frag3-233-3/31924 -- energy: 1.215928
# Creation time: Sat Jun  5 12:52:25 2010


@<TRIPOS>MOLECULE
frag3-233-3/31924 -- energy: 1.215928
    9     8     1     1     1
SMALL
USER_CHARGES


@<TRIPOS>ATOM
      1 C2         -1.1687    0.6574   -0.4337 C.2        1 <1>        0.000
      2 O1         -2.3579    0.5160   -0.7210 O.2        1 <1>        0.000
      3 N1         -0.3437   -0.1075    0.3080 N.am       1 <1>        0.000
      4 C3          0.9181    0.2716    0.0228 C.2        1 <1>        0.000
      5 O2          1.3801    1.3939   -0.1364 O.2        1 <1>        0.000
      6 O3          1.6574   -0.8395    0.0062 O.3        1 <1>        0.000
      7 H          -0.7054    1.5521   -0.8495 H.spc      1 <1>        0.000
      8 H          -0.6222   -0.8377    0.9635 H.spc      1 <1>        0.000
      9 H           1.0914   -1.6013    0.1510 H.spc      1 <1>        0.000
@<TRIPOS>BOND
     1    1    2 2  
     2    1    3 am 
     3    3    4 am 
     4    4    5 2  
     5    4    6 1  
     6    1    7 1  
     7    3    8 1  
     8    6    9 1  
# Name:          frag3-233-3/31924 -- energy: 0.825994
# Creation time: Sat Jun  5 12:52:25 2010


@<TRIPOS>MOLECULE
frag3-233-3/31924 -- energy: 0.825994
    9     8     1     1     1
SMALL
USER_CHARGES


@<TRIPOS>ATOM
      1 C2         -1.4010    0.1663   -0.0550 C.2        1 <1>        0.000
      2 O1         -1.6314    0.3413   -1.2477 O.2        1 <1>        0.000
      3 N1         -0.3096    0.2100    0.7661 N.am       1 <1>        0.000
      4 C3          0.8189    0.4250    0.0667 C.2        1 <1>        0.000
      5 O2          1.5718    1.3691    0.2568 O.2        1 <1>        0.000
      6 O3          1.0366   -0.6198   -0.7410 O.3        1 <1>        0.000
      7 H          -2.3061   -0.0923    0.4945 H.spc      1 <1>        0.000
      8 H          -0.3461    0.0945    1.7789 H.spc      1 <1>        0.000
      9 H           0.2841   -1.2147   -0.7027 H.spc      1 <1>        0.000
@<TRIPOS>BOND
     1    1    2 2  
     2    1    3 am 
     3    3    4 am 
     4    4    5 2  
     5    4    6 1  
     6    1    7 1  
     7    3    8 1  
     8    6    9 1  
# Name:          frag3-233-3/31924 -- energy: 2.233444
# Creation time: Sat Jun  5 12:52:25 2010


@<TRIPOS>MOLECULE
frag3-233-3/31924 -- energy: 2.233444
    9     8     1     1     1
SMALL
USER_CHARGES


@<TRIPOS>ATOM
      1 C2         -1.3618    0.0202   -0.3193 C.2        1 <1>        0.000
      2 O1         -1.7311    1.0045    0.3194 O.2        1 <1>        0.000
      3 N1         -0.1810   -0.4559   -0.7896 N.am       1 <1>        0.000
      4 C3          0.8561    0.2527   -0.2836 C.2        1 <1>        0.000
      5 O2          1.7315    0.7809   -0.9314 O.2        1 <1>        0.000
      6 O3          0.7716    0.2894    1.0504 O.3        1 <1>        0.000
      7 H          -2.1944   -0.6365   -0.5717 H.spc      1 <1>        0.000
      8 H          -0.0876   -1.2398   -1.4355 H.spc      1 <1>        0.000
      9 H          -0.0046   -0.1990    1.3343 H.spc      1 <1>        0.000
@<TRIPOS>BOND
     1    1    2 2  
     2    1    3 am 
     3    3    4 am 
     4    4    5 2  
     5    4    6 1  
     6    1    7 1  
     7    3    8 1  
     8    6    9 1  
# Name:          frag3-233-3/31924 -- energy: 0.158626
# Creation time: Sat Jun  5 12:52:25 2010


@<TRIPOS>MOLECULE
frag3-233-3/31924 -- energy: 0.158626
    9     8     1     1     1
SMALL
USER_CHARGES


@<TRIPOS>ATOM
      1 C2         -1.3931    0.1645   -0.3707 C.2        1 <1>        0.000
      2 O1         -1.7405    1.3145   -0.1234 O.2        1 <1>        0.000
      3 N1         -0.3085   -0.6151   -0.1632 N.am       1 <1>        0.000
      4 C3          0.8046    0.1603   -0.1941 C.2        1 <1>        0.000
      5 O2          1.1161    1.0948   -0.9031 O.2        1 <1>        0.000
      6 O3          1.6067   -0.2271    0.8004 O.3        1 <1>        0.000
      7 H          -2.1734   -0.3779   -0.9045 H.spc      1 <1>        0.000
      8 H          -0.3243   -1.6232   -0.0084 H.spc      1 <1>        0.000
      9 H           1.2114   -0.9736    1.2565 H.spc      1 <1>        0.000
@<TRIPOS>BOND
     1    1    2 2  
     2    1    3 am 
     3    3    4 am 
     4    4    5 2  
     5    4    6 1  
     6    1    7 1  
     7    3    8 1  
     8    6    9 1  
