#      Rotatable Fragment
#      Build by yxyuan
#
# Name:          frag5-536-235/138278
# Creation time: Sat Jun  5 12:53:41 2010


@<TRIPOS>MOLECULE
frag5-536-235/138278
   37    40     1     1     1
SMALL
USER_CHARGES


@<TRIPOS>ATOM
      1 C1          1.9209    1.7357    0.0333 C.ar       1 <1>        0.000
      2 C2          1.9275    0.3476    0.2224 C.ar       1 <1>        0.000
      3 C3          0.7092    2.4248   -0.0473 C.ar       1 <1>        0.000
      4 C4          3.2328    2.5259   -0.0895 C.3        1 <1>        0.000
      5 C5          3.2317   -0.4708    0.2374 C.3        1 <1>        0.000
      6 C6          0.7197   -0.3253    0.4097 C.ar       1 <1>        0.000
      7 C7         -0.5064    1.7463    0.1076 C.ar       1 <1>        0.000
      8 O1          0.7428    3.8091   -0.2917 O.3        1 <1>        0.000
      9 C14        -1.8088   -0.3467    0.6074 C.2        1 <1>        0.000
     10 C8          4.5517    1.7899    0.2619 C.3        1 <1>        0.000
     11 C9          4.2120    0.4667    0.9897 C.3        1 <1>        0.000
     12 C10        -0.4980    0.3645    0.3711 C.ar       1 <1>        0.000
     13 O3          0.7463   -1.7076    0.6409 O.3        1 <1>        0.000
     14 C11        -1.8426    2.4450    0.0030 C.2        1 <1>        0.000
     15 C15        -3.1382    1.6665   -0.0388 C.ar       1 <1>        0.000
     16 O5         -1.8767    3.6673   -0.0569 O.2        1 <1>        0.000
     17 C18        -3.1309    0.2915    0.2524 C.ar       1 <1>        0.000
     18 O8         -1.8052   -1.4707    1.0929 O.2        1 <1>        0.000
     19 C19        -4.3366    2.3020   -0.3718 C.ar       1 <1>        0.000
     20 C22        -4.3298   -0.4340    0.1988 C.ar       1 <1>        0.000
     21 C23        -5.5229    1.5723   -0.4475 C.ar       1 <1>        0.000
     22 C26        -5.5150    0.2031   -0.1600 C.ar       1 <1>        0.000
     23 O10        -4.3753   -1.8064    0.4940 O.3        1 <1>        0.000
     24 H           3.1519    3.3401    0.6306 H.spc      1 <1>        0.000
     25 H           3.3174    2.7896   -1.1437 H.spc      1 <1>        0.000
     26 H           3.5788   -0.7370   -0.7610 H.spc      1 <1>        0.000
     27 H           3.1189   -1.4427    0.7177 H.spc      1 <1>        0.000
     28 H           1.6553    4.0972   -0.3691 H.spc      1 <1>        0.000
     29 H           5.1625    2.4191    0.9093 H.spc      1 <1>        0.000
     30 H           5.1072    1.5751   -0.6510 H.spc      1 <1>        0.000
     31 H           5.1486   -0.0809    1.0951 H.spc      1 <1>        0.000
     32 H           3.7251    0.7413    1.9255 H.spc      1 <1>        0.000
     33 H          -0.1513   -2.0300    0.7502 H.spc      1 <1>        0.000
     34 H          -4.3448    3.3732   -0.5734 H.spc      1 <1>        0.000
     35 H          -6.4524    2.0668   -0.7295 H.spc      1 <1>        0.000
     36 H          -6.4416   -0.3681   -0.2172 H.spc      1 <1>        0.000
     37 H          -3.4949   -2.1125    0.7236 H.spc      1 <1>        0.000
@<TRIPOS>BOND
     1    2    5 1  
     2    3    8 1  
     3    5   11 1  
     4    1    2 ar 
     5    7   14 1  
     6    1    4 1  
     7    6   13 1  
     8    4   10 1  
     9    2    6 ar 
    10    3    7 ar 
    11    1    3 ar 
    12    6   12 ar 
    13    7   12 ar 
    14   21   22 ar 
    15   20   23 1  
    16   20   22 ar 
    17   19   21 ar 
    18   17   20 ar 
    19   15   17 ar 
    20   15   19 ar 
    21    9   17 1  
    22    9   18 2  
    23   14   16 2  
    24   14   15 1  
    25   12    9 1  
    26   10   11 1  
    27    4   24 1  
    28    4   25 1  
    29    5   26 1  
    30    5   27 1  
    31    8   28 1  
    32   10   29 1  
    33   10   30 1  
    34   11   31 1  
    35   11   32 1  
    36   13   33 1  
    37   19   34 1  
    38   21   35 1  
    39   22   36 1  
    40   23   37 1  
