#      Rotatable Fragment
#      Build by yxyuan
#
# Name:          frag3-237-5/96164
# Creation time: Sat Jun  5 12:53:15 2010


@<TRIPOS>MOLECULE
frag3-237-5/96164
   13    12     1     1     1
SMALL
USER_CHARGES


@<TRIPOS>ATOM
      1 N3         -0.1228   -0.3910   -0.5230 N.am       1 <1>        0.000
      2 C15        -1.1885    0.3694   -0.3107 C.2        1 <1>        0.000
      3 N4         -1.1566    1.4973    0.3850 N.am       1 <1>        0.000
      4 O4         -2.2392   -0.0173   -0.8060 O.2        1 <1>        0.000
      5 N6          0.0213    2.0834    0.8275 N.am       1 <1>        0.000
      6 C24         0.0453    3.2580    1.5124 C.2        1 <1>        0.000
      7 O6          1.2390    3.8507    1.6306 O.3        1 <1>        0.000
      8 O7         -0.9761    3.7756    1.9502 O.2        1 <1>        0.000
      9 H          -0.2075   -1.2455   -1.0734 H.spc      1 <1>        0.000
     10 H           0.7815   -0.1213   -0.1358 H.spc      1 <1>        0.000
     11 H          -2.0402    1.9566    0.6058 H.spc      1 <1>        0.000
     12 H           0.9052    1.6138    0.6309 H.spc      1 <1>        0.000
     13 H           1.9118    3.2956    1.2296 H.spc      1 <1>        0.000
@<TRIPOS>BOND
     1    1    2 am 
     2    2    4 2  
     3    2    3 am 
     4    3    5 1  
     5    5    6 am 
     6    6    7 1  
     7    6    8 2  
     8    1    9 1  
     9    1   10 1  
    10    3   11 1  
    11    5   12 1  
    12    7   13 1  
# Name:          frag3-237-5/96164
# Creation time: Sat Jun  5 12:53:15 2010


@<TRIPOS>MOLECULE
frag3-237-5/96164
   13    12     1     1     1
SMALL
USER_CHARGES


@<TRIPOS>ATOM
      1 N3         -0.2837   -0.8612   -0.7054 N.am       1 <1>        0.000
      2 C15        -0.8863    0.2941   -0.3817 C.2        1 <1>        0.000
      3 N4         -0.2246    1.2971    0.2256 N.am       1 <1>        0.000
      4 O4         -2.0850    0.4524   -0.6362 O.2        1 <1>        0.000
      5 N6         -0.8922    2.2408    1.0763 N.am       1 <1>        0.000
      6 C24        -0.2487    3.3311    1.5667 C.2        1 <1>        0.000
      7 O6          1.0295    3.5463    1.2129 O.3        1 <1>        0.000
      8 O7         -0.7866    4.1254    2.3078 O.2        1 <1>        0.000
      9 H          -0.8153   -1.6039   -1.1595 H.spc      1 <1>        0.000
     10 H           0.7057   -0.9962   -0.4972 H.spc      1 <1>        0.000
     11 H           0.7803    1.3890    0.0768 H.spc      1 <1>        0.000
     12 H          -1.8715    2.0890    1.3177 H.spc      1 <1>        0.000
     13 H           1.3213    2.8429    0.6284 H.spc      1 <1>        0.000
@<TRIPOS>BOND
     1    1    2 am 
     2    2    4 2  
     3    2    3 am 
     4    3    5 1  
     5    5    6 am 
     6    6    7 1  
     7    6    8 2  
     8    1    9 1  
     9    1   10 1  
    10    3   11 1  
    11    5   12 1  
    12    7   13 1  
# Name:          frag3-237-5/96164
# Creation time: Sat Jun  5 12:53:15 2010


@<TRIPOS>MOLECULE
frag3-237-5/96164
   13    12     1     1     1
SMALL
USER_CHARGES


@<TRIPOS>ATOM
      1 N3         -0.2930    1.0975   -1.1077 N.am       1 <1>        0.000
      2 C15        -1.0117    0.5007   -0.1484 C.2        1 <1>        0.000
      3 N4         -1.5017    1.1866    0.9017 N.am       1 <1>        0.000
      4 O4         -1.2322   -0.7153   -0.2305 O.2        1 <1>        0.000
      5 N6         -1.2981    2.5926    0.9959 N.am       1 <1>        0.000
      6 C24        -0.0792    3.1384    1.2998 C.2        1 <1>        0.000
      7 O6          0.7716    2.3925    2.0250 O.3        1 <1>        0.000
      8 O7          0.2667    4.2330    0.9302 O.2        1 <1>        0.000
      9 H           0.0642    0.5514   -1.8917 H.spc      1 <1>        0.000
     10 H          -0.1028    2.0982   -1.0545 H.spc      1 <1>        0.000
     11 H          -2.0201    0.6976    1.6315 H.spc      1 <1>        0.000
     12 H          -2.0885    3.2159    0.8311 H.spc      1 <1>        0.000
     13 H           0.3559    1.5548    2.2421 H.spc      1 <1>        0.000
@<TRIPOS>BOND
     1    1    2 am 
     2    2    4 2  
     3    2    3 am 
     4    3    5 1  
     5    5    6 am 
     6    6    7 1  
     7    6    8 2  
     8    1    9 1  
     9    1   10 1  
    10    3   11 1  
    11    5   12 1  
    12    7   13 1  
# Name:          frag3-237-5/96164
# Creation time: Sat Jun  5 12:53:15 2010


@<TRIPOS>MOLECULE
frag3-237-5/96164
   13    12     1     1     1
SMALL
USER_CHARGES


@<TRIPOS>ATOM
      1 N3         -0.0782   -0.6716   -0.6481 N.am       1 <1>        0.000
      2 C15        -0.8615    0.3687   -0.3156 C.2        1 <1>        0.000
      3 N4         -0.3950    1.6337   -0.3074 N.am       1 <1>        0.000
      4 O4         -2.0402    0.1757   -0.0061 O.2        1 <1>        0.000
      5 N6         -0.9865    2.6487    0.5210 N.am       1 <1>        0.000
      6 C24        -0.2741    3.2527    1.5074 C.2        1 <1>        0.000
      7 O6          1.0271    2.9541    1.6533 O.3        1 <1>        0.000
      8 O7         -0.7694    4.0641    2.2614 O.2        1 <1>        0.000
      9 H          -0.4585   -1.6181   -0.6442 H.spc      1 <1>        0.000
     10 H           0.8965   -0.5147   -0.9043 H.spc      1 <1>        0.000
     11 H           0.3965    1.8763   -0.9032 H.spc      1 <1>        0.000
     12 H          -1.9574    2.9199    0.3655 H.spc      1 <1>        0.000
     13 H           1.2808    2.3035    0.9945 H.spc      1 <1>        0.000
@<TRIPOS>BOND
     1    1    2 am 
     2    2    4 2  
     3    2    3 am 
     4    3    5 1  
     5    5    6 am 
     6    6    7 1  
     7    6    8 2  
     8    1    9 1  
     9    1   10 1  
    10    3   11 1  
    11    5   12 1  
    12    7   13 1  
# Name:          frag3-237-5/96164
# Creation time: Sat Jun  5 12:53:15 2010


@<TRIPOS>MOLECULE
frag3-237-5/96164
   13    12     1     1     1
SMALL
USER_CHARGES


@<TRIPOS>ATOM
      1 N3         -0.7248   -0.6432    0.3054 N.am       1 <1>        0.000
      2 C15        -1.1120    0.4053   -0.4292 C.2        1 <1>        0.000
      3 N4         -0.8852    1.6629   -0.0328 N.am       1 <1>        0.000
      4 O4         -1.6926    0.1989   -1.5039 O.2        1 <1>        0.000
      5 N6         -0.2909    1.9451    1.2146 N.am       1 <1>        0.000
      6 C24         0.0223    3.2027    1.6350 C.2        1 <1>        0.000
      7 O6         -0.0424    4.1757    0.7070 O.3        1 <1>        0.000
      8 O7          0.3478    3.4785    2.7699 O.2        1 <1>        0.000
      9 H          -0.9090   -1.5914   -0.0223 H.spc      1 <1>        0.000
     10 H          -0.2453   -0.4946    1.1933 H.spc      1 <1>        0.000
     11 H          -1.1479    2.4344   -0.6462 H.spc      1 <1>        0.000
     12 H          -0.0839    1.1639    1.8370 H.spc      1 <1>        0.000
     13 H          -0.3126    3.7977   -0.1331 H.spc      1 <1>        0.000
@<TRIPOS>BOND
     1    1    2 am 
     2    2    4 2  
     3    2    3 am 
     4    3    5 1  
     5    5    6 am 
     6    6    7 1  
     7    6    8 2  
     8    1    9 1  
     9    1   10 1  
    10    3   11 1  
    11    5   12 1  
    12    7   13 1  
# Name:          frag3-237-5/96164
# Creation time: Sat Jun  5 12:53:15 2010


@<TRIPOS>MOLECULE
frag3-237-5/96164
   13    12     1     1     1
SMALL
USER_CHARGES


@<TRIPOS>ATOM
      1 N3          0.1995    0.2291    0.1910 N.am       1 <1>        0.000
      2 C15        -0.9909    0.6167   -0.2849 C.2        1 <1>        0.000
      3 N4         -1.7032    1.5986    0.2927 N.am       1 <1>        0.000
      4 O4         -1.4477    0.0431   -1.2851 O.2        1 <1>        0.000
      5 N6         -1.2225    2.2257    1.4661 N.am       1 <1>        0.000
      6 C24        -0.1021    3.0132    1.4833 C.2        1 <1>        0.000
      7 O6          0.6749    2.9894    0.3839 O.3        1 <1>        0.000
      8 O7          0.2144    3.7102    2.4187 O.2        1 <1>        0.000
      9 H           0.7116   -0.5241   -0.2681 H.spc      1 <1>        0.000
     10 H           0.5940    0.6872    1.0126 H.spc      1 <1>        0.000
     11 H          -2.5909    1.8920   -0.1150 H.spc      1 <1>        0.000
     12 H          -1.7329    2.0851    2.3379 H.spc      1 <1>        0.000
     13 H           0.2923    2.3934   -0.2642 H.spc      1 <1>        0.000
@<TRIPOS>BOND
     1    1    2 am 
     2    2    4 2  
     3    2    3 am 
     4    3    5 1  
     5    5    6 am 
     6    6    7 1  
     7    6    8 2  
     8    1    9 1  
     9    1   10 1  
    10    3   11 1  
    11    5   12 1  
    12    7   13 1  
# Name:          frag3-237-5/96164
# Creation time: Sat Jun  5 12:53:15 2010


@<TRIPOS>MOLECULE
frag3-237-5/96164
   13    12     1     1     1
SMALL
USER_CHARGES


@<TRIPOS>ATOM
      1 N3         -0.4306   -0.2157    0.5844 N.am       1 <1>        0.000
      2 C15        -1.0444    0.5273   -0.3446 C.2        1 <1>        0.000
      3 N4         -1.2910    1.8373   -0.1610 N.am       1 <1>        0.000
      4 O4         -1.4038   -0.0109   -1.4023 O.2        1 <1>        0.000
      5 N6         -1.1728    2.4212    1.1317 N.am       1 <1>        0.000
      6 C24        -0.0423    3.0687    1.5479 C.2        1 <1>        0.000
      7 O6          0.6595    3.7430    0.6210 O.3        1 <1>        0.000
      8 O7          0.3477    3.0553    2.6888 O.2        1 <1>        0.000
      9 H          -0.2653   -1.2081    0.4164 H.spc      1 <1>        0.000
     10 H          -0.1282    0.2105    1.4603 H.spc      1 <1>        0.000
     11 H          -1.5649    2.4166   -0.9546 H.spc      1 <1>        0.000
     12 H          -1.9628    2.3540    1.7733 H.spc      1 <1>        0.000
     13 H           0.2250    3.6597   -0.2310 H.spc      1 <1>        0.000
@<TRIPOS>BOND
     1    1    2 am 
     2    2    4 2  
     3    2    3 am 
     4    3    5 1  
     5    5    6 am 
     6    6    7 1  
     7    6    8 2  
     8    1    9 1  
     9    1   10 1  
    10    3   11 1  
    11    5   12 1  
    12    7   13 1  
# Name:          frag3-237-5/96164
# Creation time: Sat Jun  5 12:53:16 2010


@<TRIPOS>MOLECULE
frag3-237-5/96164
   13    12     1     1     1
SMALL
USER_CHARGES


@<TRIPOS>ATOM
      1 N3         -0.1953   -0.4756   -0.8919 N.am       1 <1>        0.000
      2 C15        -0.7522    0.5311   -0.1946 C.2        1 <1>        0.000
      3 N4         -0.7064    1.8061   -0.6375 N.am       1 <1>        0.000
      4 O4         -1.3193    0.2985    0.8741 O.2        1 <1>        0.000
      5 N6         -1.0358    2.9081    0.2299 N.am       1 <1>        0.000
      6 C24        -0.3593    3.0994    1.3939 C.2        1 <1>        0.000
      7 O6          0.3924    2.1065    1.8931 O.3        1 <1>        0.000
      8 O7         -0.4018    4.1518    1.9988 O.2        1 <1>        0.000
      9 H          -0.2428   -1.4302   -0.5357 H.spc      1 <1>        0.000
     10 H           0.2745   -0.2843   -1.7768 H.spc      1 <1>        0.000
     11 H          -0.4339    1.9920   -1.6027 H.spc      1 <1>        0.000
     12 H          -1.7834    3.5509   -0.0315 H.spc      1 <1>        0.000
     13 H           0.3328    1.3409    1.3170 H.spc      1 <1>        0.000
@<TRIPOS>BOND
     1    1    2 am 
     2    2    4 2  
     3    2    3 am 
     4    3    5 1  
     5    5    6 am 
     6    6    7 1  
     7    6    8 2  
     8    1    9 1  
     9    1   10 1  
    10    3   11 1  
    11    5   12 1  
    12    7   13 1  
# Name:          frag3-237-5/96164
# Creation time: Sat Jun  5 12:53:16 2010


@<TRIPOS>MOLECULE
frag3-237-5/96164
   13    12     1     1     1
SMALL
USER_CHARGES


@<TRIPOS>ATOM
      1 N3         -0.3402   -0.2933   -1.3787 N.am       1 <1>        0.000
      2 C15        -0.9162    0.2456   -0.2926 C.2        1 <1>        0.000
      3 N4         -0.2888    1.1636    0.4650 N.am       1 <1>        0.000
      4 O4         -2.0641   -0.0897    0.0205 O.2        1 <1>        0.000
      5 N6         -0.8282    2.4775    0.6620 N.am       1 <1>        0.000
      6 C24        -0.2121    3.3867    1.4613 C.2        1 <1>        0.000
      7 O6          0.8292    2.9888    2.2121 O.3        1 <1>        0.000
      8 O7         -0.5573    4.5468    1.5164 O.2        1 <1>        0.000
      9 H          -0.8494   -0.9755   -1.9406 H.spc      1 <1>        0.000
     10 H           0.6067   -0.0206   -1.6421 H.spc      1 <1>        0.000
     11 H           0.5948    0.9181    0.9115 H.spc      1 <1>        0.000
     12 H          -1.6952    2.7356    0.1907 H.spc      1 <1>        0.000
     13 H           0.9875    2.0531    2.0675 H.spc      1 <1>        0.000
@<TRIPOS>BOND
     1    1    2 am 
     2    2    4 2  
     3    2    3 am 
     4    3    5 1  
     5    5    6 am 
     6    6    7 1  
     7    6    8 2  
     8    1    9 1  
     9    1   10 1  
    10    3   11 1  
    11    5   12 1  
    12    7   13 1  
# Name:          frag3-237-5/96164 -- energy: -0.248515
# Creation time: Sat Jun  5 12:53:16 2010


@<TRIPOS>MOLECULE
frag3-237-5/96164 -- energy: -0.248515
   13    12     1     1     1
SMALL
USER_CHARGES


@<TRIPOS>ATOM
      1 N3         -0.1228   -0.3910   -0.5230 N.am       1 <1>        0.000
      2 C15        -1.1885    0.3694   -0.3107 C.2        1 <1>        0.000
      3 N4         -1.1566    1.4973    0.3850 N.am       1 <1>        0.000
      4 O4         -2.2392   -0.0173   -0.8060 O.2        1 <1>        0.000
      5 N6          0.0213    2.0834    0.8275 N.am       1 <1>        0.000
      6 C24         0.0453    3.2580    1.5124 C.2        1 <1>        0.000
      7 O6          1.2390    3.8507    1.6306 O.3        1 <1>        0.000
      8 O7         -0.9761    3.7756    1.9502 O.2        1 <1>        0.000
      9 H          -0.2075   -1.2455   -1.0734 H.spc      1 <1>        0.000
     10 H           0.7815   -0.1213   -0.1358 H.spc      1 <1>        0.000
     11 H          -2.0402    1.9566    0.6058 H.spc      1 <1>        0.000
     12 H           0.9052    1.6138    0.6309 H.spc      1 <1>        0.000
     13 H           1.9118    3.2956    1.2296 H.spc      1 <1>        0.000
@<TRIPOS>BOND
     1    1    2 am 
     2    2    4 2  
     3    2    3 am 
     4    3    5 1  
     5    5    6 am 
     6    6    7 1  
     7    6    8 2  
     8    1    9 1  
     9    1   10 1  
    10    3   11 1  
    11    5   12 1  
    12    7   13 1  
# Name:          frag3-237-5/96164 -- energy: 2.661335
# Creation time: Sat Jun  5 12:53:16 2010


@<TRIPOS>MOLECULE
frag3-237-5/96164 -- energy: 2.661335
   13    12     1     1     1
SMALL
USER_CHARGES


@<TRIPOS>ATOM
      1 N3         -0.2837   -0.8612   -0.7054 N.am       1 <1>        0.000
      2 C15        -0.8863    0.2941   -0.3817 C.2        1 <1>        0.000
      3 N4         -0.2246    1.2971    0.2256 N.am       1 <1>        0.000
      4 O4         -2.0850    0.4524   -0.6362 O.2        1 <1>        0.000
      5 N6         -0.8922    2.2408    1.0763 N.am       1 <1>        0.000
      6 C24        -0.2487    3.3311    1.5667 C.2        1 <1>        0.000
      7 O6          1.0295    3.5463    1.2129 O.3        1 <1>        0.000
      8 O7         -0.7866    4.1254    2.3078 O.2        1 <1>        0.000
      9 H          -0.8153   -1.6039   -1.1595 H.spc      1 <1>        0.000
     10 H           0.7057   -0.9962   -0.4972 H.spc      1 <1>        0.000
     11 H           0.7803    1.3890    0.0768 H.spc      1 <1>        0.000
     12 H          -1.8715    2.0890    1.3177 H.spc      1 <1>        0.000
     13 H           1.3213    2.8429    0.6284 H.spc      1 <1>        0.000
@<TRIPOS>BOND
     1    1    2 am 
     2    2    4 2  
     3    2    3 am 
     4    3    5 1  
     5    5    6 am 
     6    6    7 1  
     7    6    8 2  
     8    1    9 1  
     9    1   10 1  
    10    3   11 1  
    11    5   12 1  
    12    7   13 1  
# Name:          frag3-237-5/96164 -- energy: -1.052394
# Creation time: Sat Jun  5 12:53:16 2010


@<TRIPOS>MOLECULE
frag3-237-5/96164 -- energy: -1.052394
   13    12     1     1     1
SMALL
USER_CHARGES


@<TRIPOS>ATOM
      1 N3         -0.2930    1.0975   -1.1077 N.am       1 <1>        0.000
      2 C15        -1.0117    0.5007   -0.1484 C.2        1 <1>        0.000
      3 N4         -1.5017    1.1866    0.9017 N.am       1 <1>        0.000
      4 O4         -1.2322   -0.7153   -0.2305 O.2        1 <1>        0.000
      5 N6         -1.2981    2.5926    0.9959 N.am       1 <1>        0.000
      6 C24        -0.0792    3.1384    1.2998 C.2        1 <1>        0.000
      7 O6          0.7716    2.3925    2.0250 O.3        1 <1>        0.000
      8 O7          0.2667    4.2330    0.9302 O.2        1 <1>        0.000
      9 H           0.0642    0.5514   -1.8917 H.spc      1 <1>        0.000
     10 H          -0.1028    2.0982   -1.0545 H.spc      1 <1>        0.000
     11 H          -2.0201    0.6976    1.6315 H.spc      1 <1>        0.000
     12 H          -2.0885    3.2159    0.8311 H.spc      1 <1>        0.000
     13 H           0.3559    1.5548    2.2421 H.spc      1 <1>        0.000
@<TRIPOS>BOND
     1    1    2 am 
     2    2    4 2  
     3    2    3 am 
     4    3    5 1  
     5    5    6 am 
     6    6    7 1  
     7    6    8 2  
     8    1    9 1  
     9    1   10 1  
    10    3   11 1  
    11    5   12 1  
    12    7   13 1  
# Name:          frag3-237-5/96164 -- energy: -0.624008
# Creation time: Sat Jun  5 12:53:16 2010


@<TRIPOS>MOLECULE
frag3-237-5/96164 -- energy: -0.624008
   13    12     1     1     1
SMALL
USER_CHARGES


@<TRIPOS>ATOM
      1 N3         -0.0782   -0.6716   -0.6481 N.am       1 <1>        0.000
      2 C15        -0.8615    0.3687   -0.3156 C.2        1 <1>        0.000
      3 N4         -0.3950    1.6337   -0.3074 N.am       1 <1>        0.000
      4 O4         -2.0402    0.1757   -0.0061 O.2        1 <1>        0.000
      5 N6         -0.9865    2.6487    0.5210 N.am       1 <1>        0.000
      6 C24        -0.2741    3.2527    1.5074 C.2        1 <1>        0.000
      7 O6          1.0271    2.9541    1.6533 O.3        1 <1>        0.000
      8 O7         -0.7694    4.0641    2.2614 O.2        1 <1>        0.000
      9 H          -0.4585   -1.6181   -0.6442 H.spc      1 <1>        0.000
     10 H           0.8965   -0.5147   -0.9043 H.spc      1 <1>        0.000
     11 H           0.3965    1.8763   -0.9032 H.spc      1 <1>        0.000
     12 H          -1.9574    2.9199    0.3655 H.spc      1 <1>        0.000
     13 H           1.2808    2.3035    0.9945 H.spc      1 <1>        0.000
@<TRIPOS>BOND
     1    1    2 am 
     2    2    4 2  
     3    2    3 am 
     4    3    5 1  
     5    5    6 am 
     6    6    7 1  
     7    6    8 2  
     8    1    9 1  
     9    1   10 1  
    10    3   11 1  
    11    5   12 1  
    12    7   13 1  
# Name:          frag3-237-5/96164 -- energy: 1.161744
# Creation time: Sat Jun  5 12:53:16 2010


@<TRIPOS>MOLECULE
frag3-237-5/96164 -- energy: 1.161744
   13    12     1     1     1
SMALL
USER_CHARGES


@<TRIPOS>ATOM
      1 N3          0.1995    0.2291    0.1910 N.am       1 <1>        0.000
      2 C15        -0.9909    0.6167   -0.2849 C.2        1 <1>        0.000
      3 N4         -1.7032    1.5986    0.2927 N.am       1 <1>        0.000
      4 O4         -1.4477    0.0431   -1.2851 O.2        1 <1>        0.000
      5 N6         -1.2225    2.2257    1.4661 N.am       1 <1>        0.000
      6 C24        -0.1021    3.0132    1.4833 C.2        1 <1>        0.000
      7 O6          0.6749    2.9894    0.3839 O.3        1 <1>        0.000
      8 O7          0.2144    3.7102    2.4187 O.2        1 <1>        0.000
      9 H           0.7116   -0.5241   -0.2681 H.spc      1 <1>        0.000
     10 H           0.5940    0.6872    1.0126 H.spc      1 <1>        0.000
     11 H          -2.5909    1.8920   -0.1150 H.spc      1 <1>        0.000
     12 H          -1.7329    2.0851    2.3379 H.spc      1 <1>        0.000
     13 H           0.2923    2.3934   -0.2642 H.spc      1 <1>        0.000
@<TRIPOS>BOND
     1    1    2 am 
     2    2    4 2  
     3    2    3 am 
     4    3    5 1  
     5    5    6 am 
     6    6    7 1  
     7    6    8 2  
     8    1    9 1  
     9    1   10 1  
    10    3   11 1  
    11    5   12 1  
    12    7   13 1  
# Name:          frag3-237-5/96164 -- energy: -1.083141
# Creation time: Sat Jun  5 12:53:16 2010


@<TRIPOS>MOLECULE
frag3-237-5/96164 -- energy: -1.083141
   13    12     1     1     1
SMALL
USER_CHARGES


@<TRIPOS>ATOM
      1 N3         -0.4306   -0.2157    0.5844 N.am       1 <1>        0.000
      2 C15        -1.0444    0.5273   -0.3446 C.2        1 <1>        0.000
      3 N4         -1.2910    1.8373   -0.1610 N.am       1 <1>        0.000
      4 O4         -1.4038   -0.0109   -1.4023 O.2        1 <1>        0.000
      5 N6         -1.1728    2.4212    1.1317 N.am       1 <1>        0.000
      6 C24        -0.0423    3.0687    1.5479 C.2        1 <1>        0.000
      7 O6          0.6595    3.7430    0.6210 O.3        1 <1>        0.000
      8 O7          0.3477    3.0553    2.6888 O.2        1 <1>        0.000
      9 H          -0.2653   -1.2081    0.4164 H.spc      1 <1>        0.000
     10 H          -0.1282    0.2105    1.4603 H.spc      1 <1>        0.000
     11 H          -1.5649    2.4166   -0.9546 H.spc      1 <1>        0.000
     12 H          -1.9628    2.3540    1.7733 H.spc      1 <1>        0.000
     13 H           0.2250    3.6597   -0.2310 H.spc      1 <1>        0.000
@<TRIPOS>BOND
     1    1    2 am 
     2    2    4 2  
     3    2    3 am 
     4    3    5 1  
     5    5    6 am 
     6    6    7 1  
     7    6    8 2  
     8    1    9 1  
     9    1   10 1  
    10    3   11 1  
    11    5   12 1  
    12    7   13 1  
# Name:          frag3-237-5/96164 -- energy: 2.089144
# Creation time: Sat Jun  5 12:53:16 2010


@<TRIPOS>MOLECULE
frag3-237-5/96164 -- energy: 2.089144
   13    12     1     1     1
SMALL
USER_CHARGES


@<TRIPOS>ATOM
      1 N3         -0.3402   -0.2933   -1.3787 N.am       1 <1>        0.000
      2 C15        -0.9162    0.2456   -0.2926 C.2        1 <1>        0.000
      3 N4         -0.2888    1.1636    0.4650 N.am       1 <1>        0.000
      4 O4         -2.0641   -0.0897    0.0205 O.2        1 <1>        0.000
      5 N6         -0.8282    2.4775    0.6620 N.am       1 <1>        0.000
      6 C24        -0.2121    3.3867    1.4613 C.2        1 <1>        0.000
      7 O6          0.8292    2.9888    2.2121 O.3        1 <1>        0.000
      8 O7         -0.5573    4.5468    1.5164 O.2        1 <1>        0.000
      9 H          -0.8494   -0.9755   -1.9406 H.spc      1 <1>        0.000
     10 H           0.6067   -0.0206   -1.6421 H.spc      1 <1>        0.000
     11 H           0.5948    0.9181    0.9115 H.spc      1 <1>        0.000
     12 H          -1.6952    2.7356    0.1907 H.spc      1 <1>        0.000
     13 H           0.9875    2.0531    2.0675 H.spc      1 <1>        0.000
@<TRIPOS>BOND
     1    1    2 am 
     2    2    4 2  
     3    2    3 am 
     4    3    5 1  
     5    5    6 am 
     6    6    7 1  
     7    6    8 2  
     8    1    9 1  
     9    1   10 1  
    10    3   11 1  
    11    5   12 1  
    12    7   13 1  
