#      Rotatable Fragment
#      Build by yxyuan
#
# Name:          frag5-680-23/41815
# Creation time: Sat Jun  5 12:53:03 2010


@<TRIPOS>MOLECULE
frag5-680-23/41815
   19    19     1     1     1
SMALL
USER_CHARGES


@<TRIPOS>ATOM
      1 N2          3.4341    1.7969   -1.3567 N.am       1 <1>        0.000
      2 C12         4.3427    2.2977   -0.4873 C.2        1 <1>        0.000
      3 O4          3.9543    2.5131    0.6566 O.2        1 <1>        0.000
      4 N3          5.6420    2.5542   -0.8077 N.am       1 <1>        0.000
      5 C13         6.0352    2.8055   -2.1996 C.3        1 <1>        0.000
      6 C14         7.4255    3.4738   -2.3389 C.3        1 <1>        0.000
      7 O5          8.3732    2.9090   -1.4244 O.3        1 <1>        0.000
      8 C15         7.9451    1.9105   -0.4893 C.3        1 <1>        0.000
      9 C16         6.6598    2.3735    0.2311 C.3        1 <1>        0.000
     10 H           2.4786    1.6167   -1.0484 H.spc      1 <1>        0.000
     11 H           3.7049    1.5997   -2.3201 H.spc      1 <1>        0.000
     12 H           6.0836    1.8411   -2.7052 H.spc      1 <1>        0.000
     13 H           5.3004    3.4862   -2.6294 H.spc      1 <1>        0.000
     14 H           7.3220    4.5359   -2.1169 H.spc      1 <1>        0.000
     15 H           7.7865    3.3116   -3.3545 H.spc      1 <1>        0.000
     16 H           7.7406    0.9834   -1.0248 H.spc      1 <1>        0.000
     17 H           8.7312    1.7515    0.2489 H.spc      1 <1>        0.000
     18 H           6.8308    3.3023    0.7754 H.spc      1 <1>        0.000
     19 H           6.3388    1.6371    0.9678 H.spc      1 <1>        0.000
@<TRIPOS>BOND
     1    5    6 1  
     2    8    9 1  
     3    7    8 1  
     4    6    7 1  
     5    1    2 am 
     6    2    3 2  
     7    2    4 am 
     8    4    5 1  
     9    4    9 1  
    10    1   10 1  
    11    1   11 1  
    12    5   12 1  
    13    5   13 1  
    14    6   14 1  
    15    6   15 1  
    16    8   16 1  
    17    8   17 1  
    18    9   18 1  
    19    9   19 1  
# Name:          frag5-680-23/41815 -- energy: -1.550370
# Creation time: Sat Jun  5 12:53:03 2010


@<TRIPOS>MOLECULE
frag5-680-23/41815 -- energy: -1.550370
   19    19     1     1     1
SMALL
USER_CHARGES


@<TRIPOS>ATOM
      1 N2          3.4341    1.7969   -1.3567 N.am       1 <1>        0.000
      2 C12         4.3427    2.2977   -0.4873 C.2        1 <1>        0.000
      3 O4          3.9543    2.5131    0.6566 O.2        1 <1>        0.000
      4 N3          5.6420    2.5542   -0.8077 N.am       1 <1>        0.000
      5 C13         6.0352    2.8055   -2.1996 C.3        1 <1>        0.000
      6 C14         7.4255    3.4738   -2.3389 C.3        1 <1>        0.000
      7 O5          8.3732    2.9090   -1.4244 O.3        1 <1>        0.000
      8 C15         7.9451    1.9105   -0.4893 C.3        1 <1>        0.000
      9 C16         6.6598    2.3735    0.2311 C.3        1 <1>        0.000
     10 H           2.4786    1.6167   -1.0484 H.spc      1 <1>        0.000
     11 H           3.7049    1.5997   -2.3201 H.spc      1 <1>        0.000
     12 H           6.0836    1.8411   -2.7052 H.spc      1 <1>        0.000
     13 H           5.3004    3.4862   -2.6294 H.spc      1 <1>        0.000
     14 H           7.3220    4.5359   -2.1169 H.spc      1 <1>        0.000
     15 H           7.7865    3.3116   -3.3545 H.spc      1 <1>        0.000
     16 H           7.7406    0.9834   -1.0248 H.spc      1 <1>        0.000
     17 H           8.7312    1.7515    0.2489 H.spc      1 <1>        0.000
     18 H           6.8308    3.3023    0.7754 H.spc      1 <1>        0.000
     19 H           6.3388    1.6371    0.9678 H.spc      1 <1>        0.000
@<TRIPOS>BOND
     1    5    6 1  
     2    8    9 1  
     3    7    8 1  
     4    6    7 1  
     5    1    2 am 
     6    2    3 2  
     7    2    4 am 
     8    4    5 1  
     9    4    9 1  
    10    1   10 1  
    11    1   11 1  
    12    5   12 1  
    13    5   13 1  
    14    6   14 1  
    15    6   15 1  
    16    8   16 1  
    17    8   17 1  
    18    9   18 1  
    19    9   19 1  
