#      Rotatable Fragment
#      Build by yxyuan
#
# Name:          frag4-395-212/150395
# Creation time: Sat Jun  5 12:53:34 2010


@<TRIPOS>MOLECULE
frag4-395-212/150395
   17    17     1     1     1
SMALL
USER_CHARGES


@<TRIPOS>ATOM
      1 C1         -1.1527   -0.4849   -0.4457 C.3        1 <1>        0.000
      2 N1         -1.1309    0.7519    0.2550 N.3        1 <1>        0.000
      3 C3         -2.3248   -1.3829   -0.0771 C.3        1 <1>        0.000
      4 C5         -1.9035    0.8900    1.4149 C.3        1 <1>        0.000
      5 C8         -3.5917   -0.6821    0.3421 C.3        1 <1>        0.000
      6 C11        -3.2822    0.3021    1.4547 C.3        1 <1>        0.000
      7 H          -0.2399   -1.0207   -0.1854 H.spc      1 <1>        0.000
      8 H          -1.2428   -0.2542   -1.5072 H.spc      1 <1>        0.000
      9 H          -1.5174    1.4315   -0.4001 H.spc      1 <1>        0.000
     10 H          -2.0014   -1.9688    0.7832 H.spc      1 <1>        0.000
     11 H          -2.5716   -1.9469   -0.9766 H.spc      1 <1>        0.000
     12 H          -2.0565    1.9640    1.5203 H.spc      1 <1>        0.000
     13 H          -1.3495    0.3508    2.1833 H.spc      1 <1>        0.000
     14 H          -4.3126   -1.4179    0.6985 H.spc      1 <1>        0.000
     15 H          -4.0093   -0.1465   -0.5105 H.spc      1 <1>        0.000
     16 H          -3.9812    1.1312    1.3450 H.spc      1 <1>        0.000
     17 H          -3.3631   -0.2474    2.3926 H.spc      1 <1>        0.000
@<TRIPOS>BOND
     1    1    2 1  
     2    1    3 1  
     3    2    4 1  
     4    3    5 1  
     5    4    6 1  
     6    5    6 1  
     7    1    7 1  
     8    1    8 1  
     9    2    9 1  
    10    3   10 1  
    11    3   11 1  
    12    4   12 1  
    13    4   13 1  
    14    5   14 1  
    15    5   15 1  
    16    6   16 1  
    17    6   17 1  
# Name:          frag4-395-212/150395 -- energy: -1.049021
# Creation time: Sat Jun  5 12:53:34 2010


@<TRIPOS>MOLECULE
frag4-395-212/150395 -- energy: -1.049021
   17    17     1     1     1
SMALL
USER_CHARGES


@<TRIPOS>ATOM
      1 C1         -1.1527   -0.4849   -0.4457 C.3        1 <1>        0.000
      2 N1         -1.1309    0.7519    0.2550 N.3        1 <1>        0.000
      3 C3         -2.3248   -1.3829   -0.0771 C.3        1 <1>        0.000
      4 C5         -1.9035    0.8900    1.4149 C.3        1 <1>        0.000
      5 C8         -3.5917   -0.6821    0.3421 C.3        1 <1>        0.000
      6 C11        -3.2822    0.3021    1.4547 C.3        1 <1>        0.000
      7 H          -0.2399   -1.0207   -0.1854 H.spc      1 <1>        0.000
      8 H          -1.2428   -0.2542   -1.5072 H.spc      1 <1>        0.000
      9 H          -1.5174    1.4315   -0.4001 H.spc      1 <1>        0.000
     10 H          -2.0014   -1.9688    0.7832 H.spc      1 <1>        0.000
     11 H          -2.5716   -1.9469   -0.9766 H.spc      1 <1>        0.000
     12 H          -2.0565    1.9640    1.5203 H.spc      1 <1>        0.000
     13 H          -1.3495    0.3508    2.1833 H.spc      1 <1>        0.000
     14 H          -4.3126   -1.4179    0.6985 H.spc      1 <1>        0.000
     15 H          -4.0093   -0.1465   -0.5105 H.spc      1 <1>        0.000
     16 H          -3.9812    1.1312    1.3450 H.spc      1 <1>        0.000
     17 H          -3.3631   -0.2474    2.3926 H.spc      1 <1>        0.000
@<TRIPOS>BOND
     1    1    2 1  
     2    1    3 1  
     3    2    4 1  
     4    3    5 1  
     5    4    6 1  
     6    5    6 1  
     7    1    7 1  
     8    1    8 1  
     9    2    9 1  
    10    3   10 1  
    11    3   11 1  
    12    4   12 1  
    13    4   13 1  
    14    5   14 1  
    15    5   15 1  
    16    6   16 1  
    17    6   17 1  
