#      Rotatable Fragment
#      Build by yxyuan
#
# Name:          frag5-647-76/138278
# Creation time: Sat Jun  5 12:53:50 2010


@<TRIPOS>MOLECULE
frag5-647-76/138278
   15    15     1     1     1
SMALL
USER_CHARGES


@<TRIPOS>ATOM
      1 N3         -0.3667   -0.6730    0.1006 N.am       1 <1>        0.000
      2 C15        -0.4833    0.6833    0.0944 C.2        1 <1>        0.000
      3 C16        -1.4159   -1.5106   -0.1243 C.2        1 <1>        0.000
      4 C17        -1.8296    1.2973   -0.1605 C.3        1 <1>        0.000
      5 O1          0.4817    1.4103    0.2920 O.2        1 <1>        0.000
      6 C18        -2.7734   -0.9240   -0.3838 C.3        1 <1>        0.000
      7 O2         -1.2772   -2.7270   -0.1189 O.2        1 <1>        0.000
      8 N4         -2.9148    0.3929    0.2676 N.4        1 <1>        0.000
      9 H           0.5503   -1.0810    0.2824 H.spc      1 <1>        0.000
     10 H          -1.9316    1.4835   -1.2296 H.spc      1 <1>        0.000
     11 H          -1.9036    2.2247    0.4075 H.spc      1 <1>        0.000
     12 H          -3.5284   -1.5974    0.0220 H.spc      1 <1>        0.000
     13 H          -2.8995   -0.7973   -1.4590 H.spc      1 <1>        0.000
     14 H          -3.8113    0.8005    0.0021 H.spc      1 <1>        0.000
     15 H          -2.8659    0.2704    1.2790 H.spc      1 <1>        0.000
@<TRIPOS>BOND
     1    1    2 am 
     2    1    3 am 
     3    2    4 1  
     4    2    5 2  
     5    3    6 1  
     6    3    7 2  
     7    4    8 1  
     8    6    8 1  
     9    1    9 1  
    10    4   10 1  
    11    4   11 1  
    12    6   12 1  
    13    6   13 1  
    14    8   14 1  
    15    8   15 1  
# Name:          frag5-647-76/138278 -- energy: -0.989967
# Creation time: Sat Jun  5 12:53:50 2010


@<TRIPOS>MOLECULE
frag5-647-76/138278 -- energy: -0.989967
   15    15     1     1     1
SMALL
USER_CHARGES


@<TRIPOS>ATOM
      1 N3         -0.3667   -0.6730    0.1006 N.am       1 <1>        0.000
      2 C15        -0.4833    0.6833    0.0944 C.2        1 <1>        0.000
      3 C16        -1.4159   -1.5106   -0.1243 C.2        1 <1>        0.000
      4 C17        -1.8296    1.2973   -0.1605 C.3        1 <1>        0.000
      5 O1          0.4817    1.4103    0.2920 O.2        1 <1>        0.000
      6 C18        -2.7734   -0.9240   -0.3838 C.3        1 <1>        0.000
      7 O2         -1.2772   -2.7270   -0.1189 O.2        1 <1>        0.000
      8 N4         -2.9148    0.3929    0.2676 N.4        1 <1>        0.000
      9 H           0.5503   -1.0810    0.2824 H.spc      1 <1>        0.000
     10 H          -1.9316    1.4835   -1.2296 H.spc      1 <1>        0.000
     11 H          -1.9036    2.2247    0.4075 H.spc      1 <1>        0.000
     12 H          -3.5284   -1.5974    0.0220 H.spc      1 <1>        0.000
     13 H          -2.8995   -0.7973   -1.4590 H.spc      1 <1>        0.000
     14 H          -3.8113    0.8005    0.0021 H.spc      1 <1>        0.000
     15 H          -2.8659    0.2704    1.2790 H.spc      1 <1>        0.000
@<TRIPOS>BOND
     1    1    2 am 
     2    1    3 am 
     3    2    4 1  
     4    2    5 2  
     5    3    6 1  
     6    3    7 2  
     7    4    8 1  
     8    6    8 1  
     9    1    9 1  
    10    4   10 1  
    11    4   11 1  
    12    6   12 1  
    13    6   13 1  
    14    8   14 1  
    15    8   15 1  
