#      Rotatable Fragment
#      Build by yxyuan
#
# Name:          frag3-277-2/31924
# Creation time: Sat Jun  5 12:52:44 2010


@<TRIPOS>MOLECULE
frag3-277-2/31924
   16    15     1     1     1
SMALL
USER_CHARGES


@<TRIPOS>ATOM
      1 C39        -5.7350   -5.0476    3.0940 C.2        1 <1>        0.000
      2 O10        -6.4934   -5.5013    3.9368 O.2        1 <1>        0.000
      3 C40        -6.0968   -3.8681    2.2902 C.2        1 <1>        0.000
      4 C41        -5.2290   -3.1799    1.5370 C.2        1 <1>        0.000
      5 C42        -5.6043   -2.0031    0.7387 C.2        1 <1>        0.000
      6 C43        -4.7932   -1.4224   -0.1556 C.2        1 <1>        0.000
      7 C44        -5.1674   -0.2464   -0.9551 C.2        1 <1>        0.000
      8 C45        -4.3257    0.3712   -1.7903 C.2        1 <1>        0.000
      9 H          -4.7690   -5.5263    2.9332 H.spc      1 <1>        0.000
     10 H          -7.1344   -3.5346    2.3093 H.spc      1 <1>        0.000
     11 H          -4.1902   -3.5093    1.5145 H.spc      1 <1>        0.000
     12 H          -6.5983   -1.5796    0.8828 H.spc      1 <1>        0.000
     13 H          -3.7991   -1.8459   -0.2987 H.spc      1 <1>        0.000
     14 H          -6.1819    0.1413   -0.8622 H.spc      1 <1>        0.000
     15 H          -3.3050    0.0061   -1.9040 H.spc      1 <1>        0.000
     16 H          -4.6602    1.2398   -2.3575 H.spc      1 <1>        0.000
@<TRIPOS>BOND
     1    1    2 2  
     2    1    3 1  
     3    3    4 2  
     4    4    5 1  
     5    5    6 2  
     6    6    7 1  
     7    7    8 2  
     8    1    9 1  
     9    3   10 1  
    10    4   11 1  
    11    5   12 1  
    12    6   13 1  
    13    7   14 1  
    14    8   15 1  
    15    8   16 1  
# Name:          frag3-277-2/31924
# Creation time: Sat Jun  5 12:52:44 2010


@<TRIPOS>MOLECULE
frag3-277-2/31924
   16    15     1     1     1
SMALL
USER_CHARGES


@<TRIPOS>ATOM
      1 C39        -6.1689   -4.7221    3.4570 C.2        1 <1>        0.000
      2 O10        -5.5150   -5.6720    3.0602 O.2        1 <1>        0.000
      3 C40        -6.3428   -3.5074    2.6464 C.2        1 <1>        0.000
      4 C41        -5.6032   -3.2240    1.5611 C.2        1 <1>        0.000
      5 C42        -5.7782   -2.0132    0.7535 C.2        1 <1>        0.000
      6 C43        -4.8916   -1.5812   -0.1534 C.2        1 <1>        0.000
      7 C44        -5.0646   -0.3695   -0.9604 C.2        1 <1>        0.000
      8 C45        -4.0806    0.1919   -1.6687 C.2        1 <1>        0.000
      9 H          -6.6375   -4.7749    4.4397 H.spc      1 <1>        0.000
     10 H          -7.1149   -2.7973    2.9426 H.spc      1 <1>        0.000
     11 H          -4.8305   -3.9334    1.2648 H.spc      1 <1>        0.000
     12 H          -6.6860   -1.4280    0.8999 H.spc      1 <1>        0.000
     13 H          -3.9846   -2.1675   -0.3005 H.spc      1 <1>        0.000
     14 H          -6.0488    0.0985   -0.9838 H.spc      1 <1>        0.000
     15 H          -3.0852   -0.2522   -1.6658 H.spc      1 <1>        0.000
     16 H          -4.2733    1.0940   -2.2494 H.spc      1 <1>        0.000
@<TRIPOS>BOND
     1    1    2 2  
     2    1    3 1  
     3    3    4 2  
     4    4    5 1  
     5    5    6 2  
     6    6    7 1  
     7    7    8 2  
     8    1    9 1  
     9    3   10 1  
    10    4   11 1  
    11    5   12 1  
    12    6   13 1  
    13    7   14 1  
    14    8   15 1  
    15    8   16 1  
# Name:          frag3-277-2/31924
# Creation time: Sat Jun  5 12:52:44 2010


@<TRIPOS>MOLECULE
frag3-277-2/31924
   16    15     1     1     1
SMALL
USER_CHARGES


@<TRIPOS>ATOM
      1 C39        -5.3584   -4.9793    2.9014 C.2        1 <1>        0.000
      2 O10        -6.4377   -5.3197    3.3555 O.2        1 <1>        0.000
      3 C40        -5.2048   -3.7691    2.0843 C.2        1 <1>        0.000
      4 C41        -6.2051   -2.9003    1.8417 C.2        1 <1>        0.000
      5 C42        -6.0466   -1.6975    1.0250 C.2        1 <1>        0.000
      6 C43        -5.1436   -1.5769    0.0372 C.2        1 <1>        0.000
      7 C44        -4.9744   -0.3796   -0.7842 C.2        1 <1>        0.000
      8 C45        -4.0744   -0.2751   -1.7652 C.2        1 <1>        0.000
      9 H          -4.4810   -5.5921    3.1084 H.spc      1 <1>        0.000
     10 H          -4.2268   -3.5622    1.6498 H.spc      1 <1>        0.000
     11 H          -7.1835   -3.1043    2.2767 H.spc      1 <1>        0.000
     12 H          -6.6994   -0.8489    1.2296 H.spc      1 <1>        0.000
     13 H          -4.4941   -2.4285   -0.1650 H.spc      1 <1>        0.000
     14 H          -5.6193    0.4762   -0.5847 H.spc      1 <1>        0.000
     15 H          -3.4141   -1.1126   -1.9905 H.spc      1 <1>        0.000
     16 H          -4.0001    0.6476   -2.3406 H.spc      1 <1>        0.000
@<TRIPOS>BOND
     1    1    2 2  
     2    1    3 1  
     3    3    4 2  
     4    4    5 1  
     5    5    6 2  
     6    6    7 1  
     7    7    8 2  
     8    1    9 1  
     9    3   10 1  
    10    4   11 1  
    11    5   12 1  
    12    6   13 1  
    13    7   14 1  
    14    8   15 1  
    15    8   16 1  
# Name:          frag3-277-2/31924
# Creation time: Sat Jun  5 12:52:44 2010


@<TRIPOS>MOLECULE
frag3-277-2/31924
   16    15     1     1     1
SMALL
USER_CHARGES


@<TRIPOS>ATOM
      1 C39        -5.8501   -4.8446    3.0493 C.2        1 <1>        0.000
      2 O10        -6.7138   -4.9050    3.9111 O.2        1 <1>        0.000
      3 C40        -5.8684   -3.8034    2.0121 C.2        1 <1>        0.000
      4 C41        -4.8224   -3.5000    1.2295 C.2        1 <1>        0.000
      5 C42        -4.8585   -2.4557    0.2027 C.2        1 <1>        0.000
      6 C43        -5.4278   -1.2507    0.3829 C.2        1 <1>        0.000
      7 C44        -5.4678   -0.2041   -0.6411 C.2        1 <1>        0.000
      8 C45        -4.4360    0.0660   -1.4509 C.2        1 <1>        0.000
      9 H          -5.0463   -5.5808    3.0496 H.spc      1 <1>        0.000
     10 H          -6.7916   -3.2416    1.8698 H.spc      1 <1>        0.000
     11 H          -3.8969   -4.0597    1.3645 H.spc      1 <1>        0.000
     12 H          -4.3977   -2.6674   -0.7622 H.spc      1 <1>        0.000
     13 H          -5.8870   -1.0403    1.3488 H.spc      1 <1>        0.000
     14 H          -6.3802    0.3824   -0.7490 H.spc      1 <1>        0.000
     15 H          -3.5115   -0.5050   -1.3647 H.spc      1 <1>        0.000
     16 H          -4.5206    0.8569   -2.1962 H.spc      1 <1>        0.000
@<TRIPOS>BOND
     1    1    2 2  
     2    1    3 1  
     3    3    4 2  
     4    4    5 1  
     5    5    6 2  
     6    6    7 1  
     7    7    8 2  
     8    1    9 1  
     9    3   10 1  
    10    4   11 1  
    11    5   12 1  
    12    6   13 1  
    13    7   14 1  
    14    8   15 1  
    15    8   16 1  
# Name:          frag3-277-2/31924
# Creation time: Sat Jun  5 12:52:44 2010


@<TRIPOS>MOLECULE
frag3-277-2/31924
   16    15     1     1     1
SMALL
USER_CHARGES


@<TRIPOS>ATOM
      1 C39        -5.6227   -4.8445    3.3231 C.2        1 <1>        0.000
      2 O10        -6.7587   -5.2540    3.1530 O.2        1 <1>        0.000
      3 C40        -5.0665   -3.7391    2.5310 C.2        1 <1>        0.000
      4 C41        -5.6798   -3.2085    1.4584 C.2        1 <1>        0.000
      5 C42        -5.1308   -2.1064    0.6711 C.2        1 <1>        0.000
      6 C43        -5.8541   -1.3271   -0.1483 C.2        1 <1>        0.000
      7 C44        -5.3008   -0.2238   -0.9332 C.2        1 <1>        0.000
      8 C45        -4.0313   -0.1942   -1.3595 C.2        1 <1>        0.000
      9 H          -5.0009   -5.3129    4.0861 H.spc      1 <1>        0.000
     10 H          -4.1029   -3.3261    2.8295 H.spc      1 <1>        0.000
     11 H          -6.6418   -3.6243    1.1589 H.spc      1 <1>        0.000
     12 H          -4.0631   -1.9038    0.7548 H.spc      1 <1>        0.000
     13 H          -6.9217   -1.5294   -0.2342 H.spc      1 <1>        0.000
     14 H          -5.9522    0.6137   -1.1830 H.spc      1 <1>        0.000
     15 H          -3.3580   -1.0184   -1.1241 H.spc      1 <1>        0.000
     16 H          -3.6716    0.6541   -1.9418 H.spc      1 <1>        0.000
@<TRIPOS>BOND
     1    1    2 2  
     2    1    3 1  
     3    3    4 2  
     4    4    5 1  
     5    5    6 2  
     6    6    7 1  
     7    7    8 2  
     8    1    9 1  
     9    3   10 1  
    10    4   11 1  
    11    5   12 1  
    12    6   13 1  
    13    7   14 1  
    14    8   15 1  
    15    8   16 1  
# Name:          frag3-277-2/31924
# Creation time: Sat Jun  5 12:52:44 2010


@<TRIPOS>MOLECULE
frag3-277-2/31924
   16    15     1     1     1
SMALL
USER_CHARGES


@<TRIPOS>ATOM
      1 C39        -5.8799   -4.9380    3.0430 C.2        1 <1>        0.000
      2 O10        -6.7955   -5.3399    3.7446 O.2        1 <1>        0.000
      3 C40        -6.0430   -3.7782    2.1537 C.2        1 <1>        0.000
      4 C41        -5.0256   -3.0908    1.6183 C.2        1 <1>        0.000
      5 C42        -5.2010   -1.9369    0.7326 C.2        1 <1>        0.000
      6 C43        -4.3191   -1.5731   -0.2113 C.2        1 <1>        0.000
      7 C44        -4.4989   -0.4202   -1.0986 C.2        1 <1>        0.000
      8 C45        -5.6818    0.1796   -1.2865 C.2        1 <1>        0.000
      9 H          -4.9189   -5.4513    3.0769 H.spc      1 <1>        0.000
     10 H          -7.0569   -3.4573    1.9149 H.spc      1 <1>        0.000
     11 H          -4.0099   -3.4078    1.8549 H.spc      1 <1>        0.000
     12 H          -6.1037   -1.3368    0.8474 H.spc      1 <1>        0.000
     13 H          -3.4147   -2.1708   -0.3250 H.spc      1 <1>        0.000
     14 H          -3.6296   -0.0330   -1.6302 H.spc      1 <1>        0.000
     15 H          -6.5673   -0.1871   -0.7674 H.spc      1 <1>        0.000
     16 H          -5.7588    1.0344   -1.9585 H.spc      1 <1>        0.000
@<TRIPOS>BOND
     1    1    2 2  
     2    1    3 1  
     3    3    4 2  
     4    4    5 1  
     5    5    6 2  
     6    6    7 1  
     7    7    8 2  
     8    1    9 1  
     9    3   10 1  
    10    4   11 1  
    11    5   12 1  
    12    6   13 1  
    13    7   14 1  
    14    8   15 1  
    15    8   16 1  
# Name:          frag3-277-2/31924
# Creation time: Sat Jun  5 12:52:44 2010


@<TRIPOS>MOLECULE
frag3-277-2/31924
   16    15     1     1     1
SMALL
USER_CHARGES


@<TRIPOS>ATOM
      1 C39        -5.9323   -4.8085    3.0009 C.2        1 <1>        0.000
      2 O10        -6.6381   -5.7651    2.7196 O.2        1 <1>        0.000
      3 C40        -5.7091   -3.7103    2.0508 C.2        1 <1>        0.000
      4 C41        -5.2329   -2.5031    2.3906 C.2        1 <1>        0.000
      5 C42        -5.0170   -1.4198    1.4276 C.2        1 <1>        0.000
      6 C43        -4.9544   -1.6050    0.0983 C.2        1 <1>        0.000
      7 C44        -4.7422   -0.5295   -0.8721 C.2        1 <1>        0.000
      8 C45        -5.2188   -0.5564   -2.1200 C.2        1 <1>        0.000
      9 H          -5.4565   -4.7688    3.9808 H.spc      1 <1>        0.000
     10 H          -5.9458   -3.8880    1.0017 H.spc      1 <1>        0.000
     11 H          -4.9940   -2.3183    3.4379 H.spc      1 <1>        0.000
     12 H          -4.9006   -0.4063    1.8115 H.spc      1 <1>        0.000
     13 H          -5.0688   -2.6202   -0.2817 H.spc      1 <1>        0.000
     14 H          -4.1642    0.3402   -0.5596 H.spc      1 <1>        0.000
     15 H          -5.8006   -1.4120   -2.4629 H.spc      1 <1>        0.000
     16 H          -5.0258    0.2772   -2.7952 H.spc      1 <1>        0.000
@<TRIPOS>BOND
     1    1    2 2  
     2    1    3 1  
     3    3    4 2  
     4    4    5 1  
     5    5    6 2  
     6    6    7 1  
     7    7    8 2  
     8    1    9 1  
     9    3   10 1  
    10    4   11 1  
    11    5   12 1  
    12    6   13 1  
    13    7   14 1  
    14    8   15 1  
    15    8   16 1  
# Name:          frag3-277-2/31924
# Creation time: Sat Jun  5 12:52:44 2010


@<TRIPOS>MOLECULE
frag3-277-2/31924
   16    15     1     1     1
SMALL
USER_CHARGES


@<TRIPOS>ATOM
      1 C39        -6.1700   -5.0792    2.6684 C.2        1 <1>        0.000
      2 O10        -5.7608   -4.9980    3.8142 O.2        1 <1>        0.000
      3 C40        -6.0461   -3.9702    1.7156 C.2        1 <1>        0.000
      4 C41        -5.4865   -2.7826    2.0205 C.2        1 <1>        0.000
      5 C42        -5.3628   -1.6827    1.0685 C.2        1 <1>        0.000
      6 C43        -5.2579   -1.8497   -0.2634 C.2        1 <1>        0.000
      7 C44        -5.1347   -0.7557   -1.2217 C.2        1 <1>        0.000
      8 C45        -4.2260    0.2206   -1.1065 C.2        1 <1>        0.000
      9 H          -6.6430   -6.0052    2.3415 H.spc      1 <1>        0.000
     10 H          -6.4279   -4.1149    0.7050 H.spc      1 <1>        0.000
     11 H          -5.1062   -2.6356    3.0314 H.spc      1 <1>        0.000
     12 H          -5.3549   -0.6652    1.4594 H.spc      1 <1>        0.000
     13 H          -5.2655   -2.8683   -0.6513 H.spc      1 <1>        0.000
     14 H          -5.8157   -0.7325   -2.0725 H.spc      1 <1>        0.000
     15 H          -3.5321    0.2229   -0.2659 H.spc      1 <1>        0.000
     16 H          -4.1800    1.0132   -1.8533 H.spc      1 <1>        0.000
@<TRIPOS>BOND
     1    1    2 2  
     2    1    3 1  
     3    3    4 2  
     4    4    5 1  
     5    5    6 2  
     6    6    7 1  
     7    7    8 2  
     8    1    9 1  
     9    3   10 1  
    10    4   11 1  
    11    5   12 1  
    12    6   13 1  
    13    7   14 1  
    14    8   15 1  
    15    8   16 1  
# Name:          frag3-277-2/31924
# Creation time: Sat Jun  5 12:52:44 2010


@<TRIPOS>MOLECULE
frag3-277-2/31924
   16    15     1     1     1
SMALL
USER_CHARGES


@<TRIPOS>ATOM
      1 C39        -6.2322   -5.0996    2.8534 C.2        1 <1>        0.000
      2 O10        -5.8586   -4.7579    3.9628 O.2        1 <1>        0.000
      3 C40        -5.9705   -4.2849    1.6588 C.2        1 <1>        0.000
      4 C41        -5.3835   -3.0754    1.6956 C.2        1 <1>        0.000
      5 C42        -5.1260   -2.2628    0.5077 C.2        1 <1>        0.000
      6 C43        -5.5034   -0.9811    0.3736 C.2        1 <1>        0.000
      7 C44        -5.2475   -0.1707   -0.8175 C.2        1 <1>        0.000
      8 C45        -4.1231   -0.2652   -1.5388 C.2        1 <1>        0.000
      9 H          -6.7767   -6.0376    2.7446 H.spc      1 <1>        0.000
     10 H          -6.2687   -4.6830    0.6889 H.spc      1 <1>        0.000
     11 H          -5.0829   -2.6787    2.6653 H.spc      1 <1>        0.000
     12 H          -4.5935   -2.7272   -0.3223 H.spc      1 <1>        0.000
     13 H          -6.0337   -0.5152    1.2042 H.spc      1 <1>        0.000
     14 H          -6.0080    0.5437   -1.1326 H.spc      1 <1>        0.000
     15 H          -3.3458   -0.9712   -1.2465 H.spc      1 <1>        0.000
     16 H          -3.9852    0.3639   -2.4182 H.spc      1 <1>        0.000
@<TRIPOS>BOND
     1    1    2 2  
     2    1    3 1  
     3    3    4 2  
     4    4    5 1  
     5    5    6 2  
     6    6    7 1  
     7    7    8 2  
     8    1    9 1  
     9    3   10 1  
    10    4   11 1  
    11    5   12 1  
    12    6   13 1  
    13    7   14 1  
    14    8   15 1  
    15    8   16 1  
# Name:          frag3-277-2/31924 -- energy: -1.092216
# Creation time: Sat Jun  5 12:52:44 2010


@<TRIPOS>MOLECULE
frag3-277-2/31924 -- energy: -1.092216
   16    15     1     1     1
SMALL
USER_CHARGES


@<TRIPOS>ATOM
      1 C39        -5.7350   -5.0476    3.0940 C.2        1 <1>        0.000
      2 O10        -6.4934   -5.5013    3.9368 O.2        1 <1>        0.000
      3 C40        -6.0968   -3.8681    2.2902 C.2        1 <1>        0.000
      4 C41        -5.2290   -3.1799    1.5370 C.2        1 <1>        0.000
      5 C42        -5.6043   -2.0031    0.7387 C.2        1 <1>        0.000
      6 C43        -4.7932   -1.4224   -0.1556 C.2        1 <1>        0.000
      7 C44        -5.1674   -0.2464   -0.9551 C.2        1 <1>        0.000
      8 C45        -4.3257    0.3712   -1.7903 C.2        1 <1>        0.000
      9 H          -4.7690   -5.5263    2.9332 H.spc      1 <1>        0.000
     10 H          -7.1344   -3.5346    2.3093 H.spc      1 <1>        0.000
     11 H          -4.1902   -3.5093    1.5145 H.spc      1 <1>        0.000
     12 H          -6.5983   -1.5796    0.8828 H.spc      1 <1>        0.000
     13 H          -3.7991   -1.8459   -0.2987 H.spc      1 <1>        0.000
     14 H          -6.1819    0.1413   -0.8622 H.spc      1 <1>        0.000
     15 H          -3.3050    0.0061   -1.9040 H.spc      1 <1>        0.000
     16 H          -4.6602    1.2398   -2.3575 H.spc      1 <1>        0.000
@<TRIPOS>BOND
     1    1    2 2  
     2    1    3 1  
     3    3    4 2  
     4    4    5 1  
     5    5    6 2  
     6    6    7 1  
     7    7    8 2  
     8    1    9 1  
     9    3   10 1  
    10    4   11 1  
    11    5   12 1  
    12    6   13 1  
    13    7   14 1  
    14    8   15 1  
    15    8   16 1  
# Name:          frag3-277-2/31924 -- energy: -1.071503
# Creation time: Sat Jun  5 12:52:44 2010


@<TRIPOS>MOLECULE
frag3-277-2/31924 -- energy: -1.071503
   16    15     1     1     1
SMALL
USER_CHARGES


@<TRIPOS>ATOM
      1 C39        -6.1689   -4.7221    3.4570 C.2        1 <1>        0.000
      2 O10        -5.5150   -5.6720    3.0602 O.2        1 <1>        0.000
      3 C40        -6.3428   -3.5074    2.6464 C.2        1 <1>        0.000
      4 C41        -5.6032   -3.2240    1.5611 C.2        1 <1>        0.000
      5 C42        -5.7782   -2.0132    0.7535 C.2        1 <1>        0.000
      6 C43        -4.8916   -1.5812   -0.1534 C.2        1 <1>        0.000
      7 C44        -5.0646   -0.3695   -0.9604 C.2        1 <1>        0.000
      8 C45        -4.0806    0.1919   -1.6687 C.2        1 <1>        0.000
      9 H          -6.6375   -4.7749    4.4397 H.spc      1 <1>        0.000
     10 H          -7.1149   -2.7973    2.9426 H.spc      1 <1>        0.000
     11 H          -4.8305   -3.9334    1.2648 H.spc      1 <1>        0.000
     12 H          -6.6860   -1.4280    0.8999 H.spc      1 <1>        0.000
     13 H          -3.9846   -2.1675   -0.3005 H.spc      1 <1>        0.000
     14 H          -6.0488    0.0985   -0.9838 H.spc      1 <1>        0.000
     15 H          -3.0852   -0.2522   -1.6658 H.spc      1 <1>        0.000
     16 H          -4.2733    1.0940   -2.2494 H.spc      1 <1>        0.000
@<TRIPOS>BOND
     1    1    2 2  
     2    1    3 1  
     3    3    4 2  
     4    4    5 1  
     5    5    6 2  
     6    6    7 1  
     7    7    8 2  
     8    1    9 1  
     9    3   10 1  
    10    4   11 1  
    11    5   12 1  
    12    6   13 1  
    13    7   14 1  
    14    8   15 1  
    15    8   16 1  
# Name:          frag3-277-2/31924 -- energy: -1.079371
# Creation time: Sat Jun  5 12:52:44 2010


@<TRIPOS>MOLECULE
frag3-277-2/31924 -- energy: -1.079371
   16    15     1     1     1
SMALL
USER_CHARGES


@<TRIPOS>ATOM
      1 C39        -5.3584   -4.9793    2.9014 C.2        1 <1>        0.000
      2 O10        -6.4377   -5.3197    3.3555 O.2        1 <1>        0.000
      3 C40        -5.2048   -3.7691    2.0843 C.2        1 <1>        0.000
      4 C41        -6.2051   -2.9003    1.8417 C.2        1 <1>        0.000
      5 C42        -6.0466   -1.6975    1.0250 C.2        1 <1>        0.000
      6 C43        -5.1436   -1.5769    0.0372 C.2        1 <1>        0.000
      7 C44        -4.9744   -0.3796   -0.7842 C.2        1 <1>        0.000
      8 C45        -4.0744   -0.2751   -1.7652 C.2        1 <1>        0.000
      9 H          -4.4810   -5.5921    3.1084 H.spc      1 <1>        0.000
     10 H          -4.2268   -3.5622    1.6498 H.spc      1 <1>        0.000
     11 H          -7.1835   -3.1043    2.2767 H.spc      1 <1>        0.000
     12 H          -6.6994   -0.8489    1.2296 H.spc      1 <1>        0.000
     13 H          -4.4941   -2.4285   -0.1650 H.spc      1 <1>        0.000
     14 H          -5.6193    0.4762   -0.5847 H.spc      1 <1>        0.000
     15 H          -3.4141   -1.1126   -1.9905 H.spc      1 <1>        0.000
     16 H          -4.0001    0.6476   -2.3406 H.spc      1 <1>        0.000
@<TRIPOS>BOND
     1    1    2 2  
     2    1    3 1  
     3    3    4 2  
     4    4    5 1  
     5    5    6 2  
     6    6    7 1  
     7    7    8 2  
     8    1    9 1  
     9    3   10 1  
    10    4   11 1  
    11    5   12 1  
    12    6   13 1  
    13    7   14 1  
    14    8   15 1  
    15    8   16 1  
# Name:          frag3-277-2/31924 -- energy: -1.258561
# Creation time: Sat Jun  5 12:52:44 2010


@<TRIPOS>MOLECULE
frag3-277-2/31924 -- energy: -1.258561
   16    15     1     1     1
SMALL
USER_CHARGES


@<TRIPOS>ATOM
      1 C39        -5.8501   -4.8446    3.0493 C.2        1 <1>        0.000
      2 O10        -6.7138   -4.9050    3.9111 O.2        1 <1>        0.000
      3 C40        -5.8684   -3.8034    2.0121 C.2        1 <1>        0.000
      4 C41        -4.8224   -3.5000    1.2295 C.2        1 <1>        0.000
      5 C42        -4.8585   -2.4557    0.2027 C.2        1 <1>        0.000
      6 C43        -5.4278   -1.2507    0.3829 C.2        1 <1>        0.000
      7 C44        -5.4678   -0.2041   -0.6411 C.2        1 <1>        0.000
      8 C45        -4.4360    0.0660   -1.4509 C.2        1 <1>        0.000
      9 H          -5.0463   -5.5808    3.0496 H.spc      1 <1>        0.000
     10 H          -6.7916   -3.2416    1.8698 H.spc      1 <1>        0.000
     11 H          -3.8969   -4.0597    1.3645 H.spc      1 <1>        0.000
     12 H          -4.3977   -2.6674   -0.7622 H.spc      1 <1>        0.000
     13 H          -5.8870   -1.0403    1.3488 H.spc      1 <1>        0.000
     14 H          -6.3802    0.3824   -0.7490 H.spc      1 <1>        0.000
     15 H          -3.5115   -0.5050   -1.3647 H.spc      1 <1>        0.000
     16 H          -4.5206    0.8569   -2.1962 H.spc      1 <1>        0.000
@<TRIPOS>BOND
     1    1    2 2  
     2    1    3 1  
     3    3    4 2  
     4    4    5 1  
     5    5    6 2  
     6    6    7 1  
     7    7    8 2  
     8    1    9 1  
     9    3   10 1  
    10    4   11 1  
    11    5   12 1  
    12    6   13 1  
    13    7   14 1  
    14    8   15 1  
    15    8   16 1  
# Name:          frag3-277-2/31924 -- energy: -1.083352
# Creation time: Sat Jun  5 12:52:44 2010


@<TRIPOS>MOLECULE
frag3-277-2/31924 -- energy: -1.083352
   16    15     1     1     1
SMALL
USER_CHARGES


@<TRIPOS>ATOM
      1 C39        -5.6227   -4.8445    3.3231 C.2        1 <1>        0.000
      2 O10        -6.7587   -5.2540    3.1530 O.2        1 <1>        0.000
      3 C40        -5.0665   -3.7391    2.5310 C.2        1 <1>        0.000
      4 C41        -5.6798   -3.2085    1.4584 C.2        1 <1>        0.000
      5 C42        -5.1308   -2.1064    0.6711 C.2        1 <1>        0.000
      6 C43        -5.8541   -1.3271   -0.1483 C.2        1 <1>        0.000
      7 C44        -5.3008   -0.2238   -0.9332 C.2        1 <1>        0.000
      8 C45        -4.0313   -0.1942   -1.3595 C.2        1 <1>        0.000
      9 H          -5.0009   -5.3129    4.0861 H.spc      1 <1>        0.000
     10 H          -4.1029   -3.3261    2.8295 H.spc      1 <1>        0.000
     11 H          -6.6418   -3.6243    1.1589 H.spc      1 <1>        0.000
     12 H          -4.0631   -1.9038    0.7548 H.spc      1 <1>        0.000
     13 H          -6.9217   -1.5294   -0.2342 H.spc      1 <1>        0.000
     14 H          -5.9522    0.6137   -1.1830 H.spc      1 <1>        0.000
     15 H          -3.3580   -1.0184   -1.1241 H.spc      1 <1>        0.000
     16 H          -3.6716    0.6541   -1.9418 H.spc      1 <1>        0.000
@<TRIPOS>BOND
     1    1    2 2  
     2    1    3 1  
     3    3    4 2  
     4    4    5 1  
     5    5    6 2  
     6    6    7 1  
     7    7    8 2  
     8    1    9 1  
     9    3   10 1  
    10    4   11 1  
    11    5   12 1  
    12    6   13 1  
    13    7   14 1  
    14    8   15 1  
    15    8   16 1  
# Name:          frag3-277-2/31924 -- energy: -0.971061
# Creation time: Sat Jun  5 12:52:44 2010


@<TRIPOS>MOLECULE
frag3-277-2/31924 -- energy: -0.971061
   16    15     1     1     1
SMALL
USER_CHARGES


@<TRIPOS>ATOM
      1 C39        -5.8799   -4.9380    3.0430 C.2        1 <1>        0.000
      2 O10        -6.7955   -5.3399    3.7446 O.2        1 <1>        0.000
      3 C40        -6.0430   -3.7782    2.1537 C.2        1 <1>        0.000
      4 C41        -5.0256   -3.0908    1.6183 C.2        1 <1>        0.000
      5 C42        -5.2010   -1.9369    0.7326 C.2        1 <1>        0.000
      6 C43        -4.3191   -1.5731   -0.2113 C.2        1 <1>        0.000
      7 C44        -4.4989   -0.4202   -1.0986 C.2        1 <1>        0.000
      8 C45        -5.6818    0.1796   -1.2865 C.2        1 <1>        0.000
      9 H          -4.9189   -5.4513    3.0769 H.spc      1 <1>        0.000
     10 H          -7.0569   -3.4573    1.9149 H.spc      1 <1>        0.000
     11 H          -4.0099   -3.4078    1.8549 H.spc      1 <1>        0.000
     12 H          -6.1037   -1.3368    0.8474 H.spc      1 <1>        0.000
     13 H          -3.4147   -2.1708   -0.3250 H.spc      1 <1>        0.000
     14 H          -3.6296   -0.0330   -1.6302 H.spc      1 <1>        0.000
     15 H          -6.5673   -0.1871   -0.7674 H.spc      1 <1>        0.000
     16 H          -5.7588    1.0344   -1.9585 H.spc      1 <1>        0.000
@<TRIPOS>BOND
     1    1    2 2  
     2    1    3 1  
     3    3    4 2  
     4    4    5 1  
     5    5    6 2  
     6    6    7 1  
     7    7    8 2  
     8    1    9 1  
     9    3   10 1  
    10    4   11 1  
    11    5   12 1  
    12    6   13 1  
    13    7   14 1  
    14    8   15 1  
    15    8   16 1  
# Name:          frag3-277-2/31924 -- energy: -0.952397
# Creation time: Sat Jun  5 12:52:44 2010


@<TRIPOS>MOLECULE
frag3-277-2/31924 -- energy: -0.952397
   16    15     1     1     1
SMALL
USER_CHARGES


@<TRIPOS>ATOM
      1 C39        -5.9323   -4.8085    3.0009 C.2        1 <1>        0.000
      2 O10        -6.6381   -5.7651    2.7196 O.2        1 <1>        0.000
      3 C40        -5.7091   -3.7103    2.0508 C.2        1 <1>        0.000
      4 C41        -5.2329   -2.5031    2.3906 C.2        1 <1>        0.000
      5 C42        -5.0170   -1.4198    1.4276 C.2        1 <1>        0.000
      6 C43        -4.9544   -1.6050    0.0983 C.2        1 <1>        0.000
      7 C44        -4.7422   -0.5295   -0.8721 C.2        1 <1>        0.000
      8 C45        -5.2188   -0.5564   -2.1200 C.2        1 <1>        0.000
      9 H          -5.4565   -4.7688    3.9808 H.spc      1 <1>        0.000
     10 H          -5.9458   -3.8880    1.0017 H.spc      1 <1>        0.000
     11 H          -4.9940   -2.3183    3.4379 H.spc      1 <1>        0.000
     12 H          -4.9006   -0.4063    1.8115 H.spc      1 <1>        0.000
     13 H          -5.0688   -2.6202   -0.2817 H.spc      1 <1>        0.000
     14 H          -4.1642    0.3402   -0.5596 H.spc      1 <1>        0.000
     15 H          -5.8006   -1.4120   -2.4629 H.spc      1 <1>        0.000
     16 H          -5.0258    0.2772   -2.7952 H.spc      1 <1>        0.000
@<TRIPOS>BOND
     1    1    2 2  
     2    1    3 1  
     3    3    4 2  
     4    4    5 1  
     5    5    6 2  
     6    6    7 1  
     7    7    8 2  
     8    1    9 1  
     9    3   10 1  
    10    4   11 1  
    11    5   12 1  
    12    6   13 1  
    13    7   14 1  
    14    8   15 1  
    15    8   16 1  
# Name:          frag3-277-2/31924 -- energy: -1.165784
# Creation time: Sat Jun  5 12:52:44 2010


@<TRIPOS>MOLECULE
frag3-277-2/31924 -- energy: -1.165784
   16    15     1     1     1
SMALL
USER_CHARGES


@<TRIPOS>ATOM
      1 C39        -6.1700   -5.0792    2.6684 C.2        1 <1>        0.000
      2 O10        -5.7608   -4.9980    3.8142 O.2        1 <1>        0.000
      3 C40        -6.0461   -3.9702    1.7156 C.2        1 <1>        0.000
      4 C41        -5.4865   -2.7826    2.0205 C.2        1 <1>        0.000
      5 C42        -5.3628   -1.6827    1.0685 C.2        1 <1>        0.000
      6 C43        -5.2579   -1.8497   -0.2634 C.2        1 <1>        0.000
      7 C44        -5.1347   -0.7557   -1.2217 C.2        1 <1>        0.000
      8 C45        -4.2260    0.2206   -1.1065 C.2        1 <1>        0.000
      9 H          -6.6430   -6.0052    2.3415 H.spc      1 <1>        0.000
     10 H          -6.4279   -4.1149    0.7050 H.spc      1 <1>        0.000
     11 H          -5.1062   -2.6356    3.0314 H.spc      1 <1>        0.000
     12 H          -5.3549   -0.6652    1.4594 H.spc      1 <1>        0.000
     13 H          -5.2655   -2.8683   -0.6513 H.spc      1 <1>        0.000
     14 H          -5.8157   -0.7325   -2.0725 H.spc      1 <1>        0.000
     15 H          -3.5321    0.2229   -0.2659 H.spc      1 <1>        0.000
     16 H          -4.1800    1.0132   -1.8533 H.spc      1 <1>        0.000
@<TRIPOS>BOND
     1    1    2 2  
     2    1    3 1  
     3    3    4 2  
     4    4    5 1  
     5    5    6 2  
     6    6    7 1  
     7    7    8 2  
     8    1    9 1  
     9    3   10 1  
    10    4   11 1  
    11    5   12 1  
    12    6   13 1  
    13    7   14 1  
    14    8   15 1  
    15    8   16 1  
# Name:          frag3-277-2/31924 -- energy: -1.137054
# Creation time: Sat Jun  5 12:52:44 2010


@<TRIPOS>MOLECULE
frag3-277-2/31924 -- energy: -1.137054
   16    15     1     1     1
SMALL
USER_CHARGES


@<TRIPOS>ATOM
      1 C39        -6.2322   -5.0996    2.8534 C.2        1 <1>        0.000
      2 O10        -5.8586   -4.7579    3.9628 O.2        1 <1>        0.000
      3 C40        -5.9705   -4.2849    1.6588 C.2        1 <1>        0.000
      4 C41        -5.3835   -3.0754    1.6956 C.2        1 <1>        0.000
      5 C42        -5.1260   -2.2628    0.5077 C.2        1 <1>        0.000
      6 C43        -5.5034   -0.9811    0.3736 C.2        1 <1>        0.000
      7 C44        -5.2475   -0.1707   -0.8175 C.2        1 <1>        0.000
      8 C45        -4.1231   -0.2652   -1.5388 C.2        1 <1>        0.000
      9 H          -6.7767   -6.0376    2.7446 H.spc      1 <1>        0.000
     10 H          -6.2687   -4.6830    0.6889 H.spc      1 <1>        0.000
     11 H          -5.0829   -2.6787    2.6653 H.spc      1 <1>        0.000
     12 H          -4.5935   -2.7272   -0.3223 H.spc      1 <1>        0.000
     13 H          -6.0337   -0.5152    1.2042 H.spc      1 <1>        0.000
     14 H          -6.0080    0.5437   -1.1326 H.spc      1 <1>        0.000
     15 H          -3.3458   -0.9712   -1.2465 H.spc      1 <1>        0.000
     16 H          -3.9852    0.3639   -2.4182 H.spc      1 <1>        0.000
@<TRIPOS>BOND
     1    1    2 2  
     2    1    3 1  
     3    3    4 2  
     4    4    5 1  
     5    5    6 2  
     6    6    7 1  
     7    7    8 2  
     8    1    9 1  
     9    3   10 1  
    10    4   11 1  
    11    5   12 1  
    12    6   13 1  
    13    7   14 1  
    14    8   15 1  
    15    8   16 1  
