#      Rotatable Fragment
#      Build by yxyuan
#
# Name:          frag4-378-77/48856
# Creation time: Sat Jun  5 12:53:35 2010


@<TRIPOS>MOLECULE
frag4-378-77/48856
   18    19     1     1     1
SMALL
USER_CHARGES


@<TRIPOS>ATOM
      1 C10         0.1480   -0.4355   -2.1496 C.ar       1 <1>        0.000
      2 C11         0.9738   -1.0885   -1.2295 C.ar       1 <1>        0.000
      3 C12         2.3287   -1.2725   -1.5212 C.ar       1 <1>        0.000
      4 C13         2.8499   -0.8356   -2.7420 C.ar       1 <1>        0.000
      5 C14         2.0273   -0.1707   -3.6550 C.ar       1 <1>        0.000
      6 C15         0.6759    0.0302   -3.3579 C.ar       1 <1>        0.000
      7 O4          4.1874   -1.0831   -3.0552 O.3        1 <1>        0.000
      8 C16         5.0987   -1.0489   -1.9429 C.3        1 <1>        0.000
      9 C17         4.5859   -1.8377   -0.7640 C.2        1 <1>        0.000
     10 C18         3.2706   -1.9424   -0.5480 C.2        1 <1>        0.000
     11 H          -0.9085   -0.2893   -1.9248 H.spc      1 <1>        0.000
     12 H           0.5627   -1.4529   -0.2880 H.spc      1 <1>        0.000
     13 H           2.4385    0.1908   -4.5975 H.spc      1 <1>        0.000
     14 H           0.0334    0.5501   -4.0685 H.spc      1 <1>        0.000
     15 H           5.2164   -0.0109   -1.6319 H.spc      1 <1>        0.000
     16 H           6.0422   -1.4910   -2.2630 H.spc      1 <1>        0.000
     17 H           5.2888   -2.3232   -0.0870 H.spc      1 <1>        0.000
     18 H           2.8874   -2.4970    0.3086 H.spc      1 <1>        0.000
@<TRIPOS>BOND
     1    5    6 ar 
     2    7    8 1  
     3    8    9 1  
     4    9   10 2  
     5    4    7 1  
     6    1    6 ar 
     7    1    2 ar 
     8    2    3 ar 
     9    3    4 ar 
    10    3   10 1  
    11    4    5 ar 
    12    1   11 1  
    13    2   12 1  
    14    5   13 1  
    15    6   14 1  
    16    8   15 1  
    17    8   16 1  
    18    9   17 1  
    19   10   18 1  
# Name:          frag4-378-77/48856 -- energy: -0.492957
# Creation time: Sat Jun  5 12:53:35 2010


@<TRIPOS>MOLECULE
frag4-378-77/48856 -- energy: -0.492957
   18    19     1     1     1
SMALL
USER_CHARGES


@<TRIPOS>ATOM
      1 C10         0.1480   -0.4355   -2.1496 C.ar       1 <1>        0.000
      2 C11         0.9738   -1.0885   -1.2295 C.ar       1 <1>        0.000
      3 C12         2.3287   -1.2725   -1.5212 C.ar       1 <1>        0.000
      4 C13         2.8499   -0.8356   -2.7420 C.ar       1 <1>        0.000
      5 C14         2.0273   -0.1707   -3.6550 C.ar       1 <1>        0.000
      6 C15         0.6759    0.0302   -3.3579 C.ar       1 <1>        0.000
      7 O4          4.1874   -1.0831   -3.0552 O.3        1 <1>        0.000
      8 C16         5.0987   -1.0489   -1.9429 C.3        1 <1>        0.000
      9 C17         4.5859   -1.8377   -0.7640 C.2        1 <1>        0.000
     10 C18         3.2706   -1.9424   -0.5480 C.2        1 <1>        0.000
     11 H          -0.9085   -0.2893   -1.9248 H.spc      1 <1>        0.000
     12 H           0.5627   -1.4529   -0.2880 H.spc      1 <1>        0.000
     13 H           2.4385    0.1908   -4.5975 H.spc      1 <1>        0.000
     14 H           0.0334    0.5501   -4.0685 H.spc      1 <1>        0.000
     15 H           5.2164   -0.0109   -1.6319 H.spc      1 <1>        0.000
     16 H           6.0422   -1.4910   -2.2630 H.spc      1 <1>        0.000
     17 H           5.2888   -2.3232   -0.0870 H.spc      1 <1>        0.000
     18 H           2.8874   -2.4970    0.3086 H.spc      1 <1>        0.000
@<TRIPOS>BOND
     1    5    6 ar 
     2    7    8 1  
     3    8    9 1  
     4    9   10 2  
     5    4    7 1  
     6    1    6 ar 
     7    1    2 ar 
     8    2    3 ar 
     9    3    4 ar 
    10    3   10 1  
    11    4    5 ar 
    12    1   11 1  
    13    2   12 1  
    14    5   13 1  
    15    6   14 1  
    16    8   15 1  
    17    8   16 1  
    18    9   17 1  
    19   10   18 1  
