#      Rotatable Fragment
#      Build by yxyuan
#
# Name:          frag5-551-59/41815
# Creation time: Sat Jun  5 12:52:53 2010


@<TRIPOS>MOLECULE
frag5-551-59/41815
   15    15     1     1     1
SMALL
USER_CHARGES


@<TRIPOS>ATOM
      1 C5         -2.8214   -0.9522    0.1303 C.ar       1 <1>        0.000
      2 C6         -3.2681    0.2081   -0.5086 C.ar       1 <1>        0.000
      3 C7         -4.4577    0.8148   -0.1013 C.ar       1 <1>        0.000
      4 C8         -5.2136    0.2606    0.9380 C.ar       1 <1>        0.000
      5 C9         -4.7571   -0.8964    1.5805 C.ar       1 <1>        0.000
      6 C10        -3.5649   -1.5024    1.1785 C.ar       1 <1>        0.000
      7 O5         -6.4070    0.8539    1.3455 O.3        1 <1>        0.000
      8 C11        -7.2798    1.1524    0.3740 C.2        1 <1>        0.000
      9 O6         -8.3828    1.6259    0.6042 O.2        1 <1>        0.000
     10 H          -1.8939   -1.4277   -0.1886 H.spc      1 <1>        0.000
     11 H          -2.6878    0.6390   -1.3245 H.spc      1 <1>        0.000
     12 H          -4.7994    1.7245   -0.5951 H.spc      1 <1>        0.000
     13 H          -5.3351   -1.3264    2.3985 H.spc      1 <1>        0.000
     14 H          -3.2144   -2.4036    1.6816 H.spc      1 <1>        0.000
     15 H          -6.9953    0.9658   -0.6615 H.spc      1 <1>        0.000
@<TRIPOS>BOND
     1    8    9 2  
     2    1    2 ar 
     3    1    6 ar 
     4    2    3 ar 
     5    3    4 ar 
     6    4    5 ar 
     7    4    7 1  
     8    5    6 ar 
     9    7    8 1  
    10    1   10 1  
    11    2   11 1  
    12    3   12 1  
    13    5   13 1  
    14    6   14 1  
    15    8   15 1  
# Name:          frag5-551-59/41815
# Creation time: Sat Jun  5 12:52:53 2010


@<TRIPOS>MOLECULE
frag5-551-59/41815
   15    15     1     1     1
SMALL
USER_CHARGES


@<TRIPOS>ATOM
      1 C5         -3.1502   -1.0662   -0.0254 C.ar       1 <1>        0.000
      2 C6         -3.3425    0.2283   -0.5140 C.ar       1 <1>        0.000
      3 C7         -4.3485    1.0242    0.0196 C.ar       1 <1>        0.000
      4 C8         -5.1994    0.5482    1.0343 C.ar       1 <1>        0.000
      5 C9         -4.9723   -0.7522    1.5196 C.ar       1 <1>        0.000
      6 C10        -3.9661   -1.5552    0.9977 C.ar       1 <1>        0.000
      7 O5         -6.1957    1.3481    1.5815 O.3        1 <1>        0.000
      8 C11        -7.3869    1.2287    0.9604 C.2        1 <1>        0.000
      9 O6         -7.5908    0.5610   -0.0325 O.2        1 <1>        0.000
     10 H          -2.3634   -1.6948   -0.4425 H.spc      1 <1>        0.000
     11 H          -2.7057    0.6125   -1.3109 H.spc      1 <1>        0.000
     12 H          -4.4815    2.0389   -0.3557 H.spc      1 <1>        0.000
     13 H          -5.5997   -1.1384    2.3229 H.spc      1 <1>        0.000
     14 H          -3.8138   -2.5627    1.3849 H.spc      1 <1>        0.000
     15 H          -8.2313    1.7736    1.3825 H.spc      1 <1>        0.000
@<TRIPOS>BOND
     1    8    9 2  
     2    1    2 ar 
     3    1    6 ar 
     4    2    3 ar 
     5    3    4 ar 
     6    4    5 ar 
     7    4    7 1  
     8    5    6 ar 
     9    7    8 1  
    10    1   10 1  
    11    2   11 1  
    12    3   12 1  
    13    5   13 1  
    14    6   14 1  
    15    8   15 1  
# Name:          frag5-551-59/41815
# Creation time: Sat Jun  5 12:52:53 2010


@<TRIPOS>MOLECULE
frag5-551-59/41815
   15    15     1     1     1
SMALL
USER_CHARGES


@<TRIPOS>ATOM
      1 C5         -2.9521   -1.1470    0.3065 C.ar       1 <1>        0.000
      2 C6         -2.9559    0.1123   -0.2997 C.ar       1 <1>        0.000
      3 C7         -4.0345    0.9733   -0.1053 C.ar       1 <1>        0.000
      4 C8         -5.1294    0.5833    0.6834 C.ar       1 <1>        0.000
      5 C9         -5.1053   -0.6765    1.2942 C.ar       1 <1>        0.000
      6 C10        -4.0276   -1.5395    1.1081 C.ar       1 <1>        0.000
      7 O5         -6.2047    1.4427    0.8747 O.3        1 <1>        0.000
      8 C11        -7.3958    0.9787    0.4619 C.2        1 <1>        0.000
      9 O6         -8.3470    0.8377    1.2174 O.2        1 <1>        0.000
     10 H          -2.1106   -1.8228    0.1541 H.spc      1 <1>        0.000
     11 H          -2.1168    0.4205   -0.9234 H.spc      1 <1>        0.000
     12 H          -4.0283    1.9593   -0.5700 H.spc      1 <1>        0.000
     13 H          -5.9401   -0.9858    1.9231 H.spc      1 <1>        0.000
     14 H          -4.0232   -2.5188    1.5867 H.spc      1 <1>        0.000
     15 H          -7.5195    0.7173   -0.5890 H.spc      1 <1>        0.000
@<TRIPOS>BOND
     1    8    9 2  
     2    1    2 ar 
     3    1    6 ar 
     4    2    3 ar 
     5    3    4 ar 
     6    4    5 ar 
     7    4    7 1  
     8    5    6 ar 
     9    7    8 1  
    10    1   10 1  
    11    2   11 1  
    12    3   12 1  
    13    5   13 1  
    14    6   14 1  
    15    8   15 1  
# Name:          frag5-551-59/41815 -- energy: -0.365871
# Creation time: Sat Jun  5 12:52:53 2010


@<TRIPOS>MOLECULE
frag5-551-59/41815 -- energy: -0.365871
   15    15     1     1     1
SMALL
USER_CHARGES


@<TRIPOS>ATOM
      1 C5         -2.8214   -0.9522    0.1303 C.ar       1 <1>        0.000
      2 C6         -3.2681    0.2081   -0.5086 C.ar       1 <1>        0.000
      3 C7         -4.4577    0.8148   -0.1013 C.ar       1 <1>        0.000
      4 C8         -5.2136    0.2606    0.9380 C.ar       1 <1>        0.000
      5 C9         -4.7571   -0.8964    1.5805 C.ar       1 <1>        0.000
      6 C10        -3.5649   -1.5024    1.1785 C.ar       1 <1>        0.000
      7 O5         -6.4070    0.8539    1.3455 O.3        1 <1>        0.000
      8 C11        -7.2798    1.1524    0.3740 C.2        1 <1>        0.000
      9 O6         -8.3828    1.6259    0.6042 O.2        1 <1>        0.000
     10 H          -1.8939   -1.4277   -0.1886 H.spc      1 <1>        0.000
     11 H          -2.6878    0.6390   -1.3245 H.spc      1 <1>        0.000
     12 H          -4.7994    1.7245   -0.5951 H.spc      1 <1>        0.000
     13 H          -5.3351   -1.3264    2.3985 H.spc      1 <1>        0.000
     14 H          -3.2144   -2.4036    1.6816 H.spc      1 <1>        0.000
     15 H          -6.9953    0.9658   -0.6615 H.spc      1 <1>        0.000
@<TRIPOS>BOND
     1    8    9 2  
     2    1    2 ar 
     3    1    6 ar 
     4    2    3 ar 
     5    3    4 ar 
     6    4    5 ar 
     7    4    7 1  
     8    5    6 ar 
     9    7    8 1  
    10    1   10 1  
    11    2   11 1  
    12    3   12 1  
    13    5   13 1  
    14    6   14 1  
    15    8   15 1  
# Name:          frag5-551-59/41815 -- energy: -0.411108
# Creation time: Sat Jun  5 12:52:53 2010


@<TRIPOS>MOLECULE
frag5-551-59/41815 -- energy: -0.411108
   15    15     1     1     1
SMALL
USER_CHARGES


@<TRIPOS>ATOM
      1 C5         -3.1502   -1.0662   -0.0254 C.ar       1 <1>        0.000
      2 C6         -3.3425    0.2283   -0.5140 C.ar       1 <1>        0.000
      3 C7         -4.3485    1.0242    0.0196 C.ar       1 <1>        0.000
      4 C8         -5.1994    0.5482    1.0343 C.ar       1 <1>        0.000
      5 C9         -4.9723   -0.7522    1.5196 C.ar       1 <1>        0.000
      6 C10        -3.9661   -1.5552    0.9977 C.ar       1 <1>        0.000
      7 O5         -6.1957    1.3481    1.5815 O.3        1 <1>        0.000
      8 C11        -7.3869    1.2287    0.9604 C.2        1 <1>        0.000
      9 O6         -7.5908    0.5610   -0.0325 O.2        1 <1>        0.000
     10 H          -2.3634   -1.6948   -0.4425 H.spc      1 <1>        0.000
     11 H          -2.7057    0.6125   -1.3109 H.spc      1 <1>        0.000
     12 H          -4.4815    2.0389   -0.3557 H.spc      1 <1>        0.000
     13 H          -5.5997   -1.1384    2.3229 H.spc      1 <1>        0.000
     14 H          -3.8138   -2.5627    1.3849 H.spc      1 <1>        0.000
     15 H          -8.2313    1.7736    1.3825 H.spc      1 <1>        0.000
@<TRIPOS>BOND
     1    8    9 2  
     2    1    2 ar 
     3    1    6 ar 
     4    2    3 ar 
     5    3    4 ar 
     6    4    5 ar 
     7    4    7 1  
     8    5    6 ar 
     9    7    8 1  
    10    1   10 1  
    11    2   11 1  
    12    3   12 1  
    13    5   13 1  
    14    6   14 1  
    15    8   15 1  
# Name:          frag5-551-59/41815 -- energy: -0.578091
# Creation time: Sat Jun  5 12:52:53 2010


@<TRIPOS>MOLECULE
frag5-551-59/41815 -- energy: -0.578091
   15    15     1     1     1
SMALL
USER_CHARGES


@<TRIPOS>ATOM
      1 C5         -2.9521   -1.1470    0.3065 C.ar       1 <1>        0.000
      2 C6         -2.9559    0.1123   -0.2997 C.ar       1 <1>        0.000
      3 C7         -4.0345    0.9733   -0.1053 C.ar       1 <1>        0.000
      4 C8         -5.1294    0.5833    0.6834 C.ar       1 <1>        0.000
      5 C9         -5.1053   -0.6765    1.2942 C.ar       1 <1>        0.000
      6 C10        -4.0276   -1.5395    1.1081 C.ar       1 <1>        0.000
      7 O5         -6.2047    1.4427    0.8747 O.3        1 <1>        0.000
      8 C11        -7.3958    0.9787    0.4619 C.2        1 <1>        0.000
      9 O6         -8.3470    0.8377    1.2174 O.2        1 <1>        0.000
     10 H          -2.1106   -1.8228    0.1541 H.spc      1 <1>        0.000
     11 H          -2.1168    0.4205   -0.9234 H.spc      1 <1>        0.000
     12 H          -4.0283    1.9593   -0.5700 H.spc      1 <1>        0.000
     13 H          -5.9401   -0.9858    1.9231 H.spc      1 <1>        0.000
     14 H          -4.0232   -2.5188    1.5867 H.spc      1 <1>        0.000
     15 H          -7.5195    0.7173   -0.5890 H.spc      1 <1>        0.000
@<TRIPOS>BOND
     1    8    9 2  
     2    1    2 ar 
     3    1    6 ar 
     4    2    3 ar 
     5    3    4 ar 
     6    4    5 ar 
     7    4    7 1  
     8    5    6 ar 
     9    7    8 1  
    10    1   10 1  
    11    2   11 1  
    12    3   12 1  
    13    5   13 1  
    14    6   14 1  
    15    8   15 1  
