#      Rotatable Fragment
#      Build by yxyuan
#
# Name:          frag4-318-290/48856
# Creation time: Sat Jun  5 12:53:37 2010


@<TRIPOS>MOLECULE
frag4-318-290/48856
   15    16     1     1     1
SMALL
USER_CHARGES


@<TRIPOS>ATOM
      1 C5          3.2130   -1.9468    3.2109 C.ar       1 <1>        0.000
      2 C6          4.0682   -2.9793    3.5980 C.ar       1 <1>        0.000
      3 C7          5.3662   -2.9671    3.1047 C.ar       1 <1>        0.000
      4 C8          5.8055   -1.9568    2.2464 C.ar       1 <1>        0.000
      5 C9          4.9606   -0.9268    1.8545 C.ar       1 <1>        0.000
      6 C10         3.6550   -0.9301    2.3473 C.ar       1 <1>        0.000
      7 O1          7.1090   -2.1350    1.8676 O.3        1 <1>        0.000
      8 C11         7.2883   -3.5076    2.3161 C.3        1 <1>        0.000
      9 O2          6.3464   -3.8889    3.3575 O.3        1 <1>        0.000
     10 H           2.1887   -1.9287    3.5833 H.spc      1 <1>        0.000
     11 H           3.7281   -3.7703    4.2664 H.spc      1 <1>        0.000
     12 H           5.3062   -0.1406    1.1832 H.spc      1 <1>        0.000
     13 H           2.9691   -0.1337    2.0586 H.spc      1 <1>        0.000
     14 H           7.1226   -4.1624    1.4606 H.spc      1 <1>        0.000
     15 H           8.2939   -3.5954    2.7275 H.spc      1 <1>        0.000
@<TRIPOS>BOND
     1    8    9 1  
     2    1    2 ar 
     3    1    6 ar 
     4    2    3 ar 
     5    3    4 ar 
     6    3    9 1  
     7    4    5 ar 
     8    4    7 1  
     9    5    6 ar 
    10    7    8 1  
    11    1   10 1  
    12    2   11 1  
    13    5   12 1  
    14    6   13 1  
    15    8   14 1  
    16    8   15 1  
# Name:          frag4-318-290/48856 -- energy: -0.396387
# Creation time: Sat Jun  5 12:53:37 2010


@<TRIPOS>MOLECULE
frag4-318-290/48856 -- energy: -0.396387
   15    16     1     1     1
SMALL
USER_CHARGES


@<TRIPOS>ATOM
      1 C5          3.2130   -1.9468    3.2109 C.ar       1 <1>        0.000
      2 C6          4.0682   -2.9793    3.5980 C.ar       1 <1>        0.000
      3 C7          5.3662   -2.9671    3.1047 C.ar       1 <1>        0.000
      4 C8          5.8055   -1.9568    2.2464 C.ar       1 <1>        0.000
      5 C9          4.9606   -0.9268    1.8545 C.ar       1 <1>        0.000
      6 C10         3.6550   -0.9301    2.3473 C.ar       1 <1>        0.000
      7 O1          7.1090   -2.1350    1.8676 O.3        1 <1>        0.000
      8 C11         7.2883   -3.5076    2.3161 C.3        1 <1>        0.000
      9 O2          6.3464   -3.8889    3.3575 O.3        1 <1>        0.000
     10 H           2.1887   -1.9287    3.5833 H.spc      1 <1>        0.000
     11 H           3.7281   -3.7703    4.2664 H.spc      1 <1>        0.000
     12 H           5.3062   -0.1406    1.1832 H.spc      1 <1>        0.000
     13 H           2.9691   -0.1337    2.0586 H.spc      1 <1>        0.000
     14 H           7.1226   -4.1624    1.4606 H.spc      1 <1>        0.000
     15 H           8.2939   -3.5954    2.7275 H.spc      1 <1>        0.000
@<TRIPOS>BOND
     1    8    9 1  
     2    1    2 ar 
     3    1    6 ar 
     4    2    3 ar 
     5    3    4 ar 
     6    3    9 1  
     7    4    5 ar 
     8    4    7 1  
     9    5    6 ar 
    10    7    8 1  
    11    1   10 1  
    12    2   11 1  
    13    5   12 1  
    14    6   13 1  
    15    8   14 1  
    16    8   15 1  
