#      Rotatable Fragment
#      Build by yxyuan
#
# Name:          frag5-592-37/41815
# Creation time: Sat Jun  5 12:52:57 2010


@<TRIPOS>MOLECULE
frag5-592-37/41815
   19    19     1     1     1
SMALL
USER_CHARGES


@<TRIPOS>ATOM
      1 O1         -3.1157   -0.2546   -1.1207 O.3        1 <1>        0.000
      2 C2         -2.1019   -0.9316   -0.5716 C.2        1 <1>        0.000
      3 O2         -2.1923   -2.1293   -0.3589 O.2        1 <1>        0.000
      4 C3         -0.8777   -0.1992   -0.2289 C.2        1 <1>        0.000
      5 C4          0.3318   -0.7882   -0.0936 C.2        1 <1>        0.000
      6 C5          1.5786   -0.0768    0.2577 C.ar       1 <1>        0.000
      7 C6          1.6283    1.0416    1.1170 C.ar       1 <1>        0.000
      8 C7          2.8202    1.7216    1.3741 C.ar       1 <1>        0.000
      9 C8          4.0127    1.2660    0.8164 C.ar       1 <1>        0.000
     10 C9          4.0136    0.1310    0.0094 C.ar       1 <1>        0.000
     11 C10         2.8128   -0.5287   -0.2564 C.ar       1 <1>        0.000
     12 H          -2.8694    0.6686   -1.2135 H.spc      1 <1>        0.000
     13 H          -0.9470    0.8777   -0.0751 H.spc      1 <1>        0.000
     14 H           0.3915   -1.8645   -0.2552 H.spc      1 <1>        0.000
     15 H           0.7099    1.3843    1.5936 H.spc      1 <1>        0.000
     16 H           2.8177    2.6070    2.0098 H.spc      1 <1>        0.000
     17 H           4.9442    1.7974    1.0115 H.spc      1 <1>        0.000
     18 H           4.9475   -0.2403   -0.4125 H.spc      1 <1>        0.000
     19 H           2.8287   -1.4217   -0.8812 H.spc      1 <1>        0.000
@<TRIPOS>BOND
     1    5    6 1  
     2    7    8 ar 
     3    6   11 ar 
     4    9   10 ar 
     5   10   11 ar 
     6    6    7 ar 
     7    8    9 ar 
     8    1    2 1  
     9    2    3 2  
    10    2    4 1  
    11    4    5 2  
    12    1   12 1  
    13    4   13 1  
    14    5   14 1  
    15    7   15 1  
    16    8   16 1  
    17    9   17 1  
    18   10   18 1  
    19   11   19 1  
# Name:          frag5-592-37/41815
# Creation time: Sat Jun  5 12:52:57 2010


@<TRIPOS>MOLECULE
frag5-592-37/41815
   19    19     1     1     1
SMALL
USER_CHARGES


@<TRIPOS>ATOM
      1 O1         -2.6833   -0.8660   -1.8572 O.3        1 <1>        0.000
      2 C2         -2.0227   -1.0046   -0.7047 C.2        1 <1>        0.000
      3 O2         -2.5138   -1.6158    0.2232 O.2        1 <1>        0.000
      4 C3         -0.6737   -0.4336   -0.6608 C.2        1 <1>        0.000
      5 C4          0.0922   -0.4866    0.4437 C.2        1 <1>        0.000
      6 C5          1.4370    0.0723    0.5267 C.ar       1 <1>        0.000
      7 C6          1.9373    0.7575    1.6540 C.ar       1 <1>        0.000
      8 C7          3.2133    1.3531    1.6837 C.ar       1 <1>        0.000
      9 C8          4.0758    1.1767    0.6104 C.ar       1 <1>        0.000
     10 C9          3.6687    0.4223   -0.4781 C.ar       1 <1>        0.000
     11 C10         2.3794   -0.1236   -0.4966 C.ar       1 <1>        0.000
     12 H          -2.1485   -0.3587   -2.4722 H.spc      1 <1>        0.000
     13 H          -0.2776    0.0505   -1.5535 H.spc      1 <1>        0.000
     14 H          -0.3158   -0.9757    1.3282 H.spc      1 <1>        0.000
     15 H           1.3084    0.8291    2.5414 H.spc      1 <1>        0.000
     16 H           3.5213    1.9483    2.5433 H.spc      1 <1>        0.000
     17 H           5.0674    1.6290    0.6239 H.spc      1 <1>        0.000
     18 H           4.3475    0.2549   -1.3144 H.spc      1 <1>        0.000
     19 H           2.0910   -0.7343   -1.3522 H.spc      1 <1>        0.000
@<TRIPOS>BOND
     1    5    6 1  
     2    7    8 ar 
     3    6   11 ar 
     4    9   10 ar 
     5   10   11 ar 
     6    6    7 ar 
     7    8    9 ar 
     8    1    2 1  
     9    2    3 2  
    10    2    4 1  
    11    4    5 2  
    12    1   12 1  
    13    4   13 1  
    14    5   14 1  
    15    7   15 1  
    16    8   16 1  
    17    9   17 1  
    18   10   18 1  
    19   11   19 1  
# Name:          frag5-592-37/41815
# Creation time: Sat Jun  5 12:52:57 2010


@<TRIPOS>MOLECULE
frag5-592-37/41815
   19    19     1     1     1
SMALL
USER_CHARGES


@<TRIPOS>ATOM
      1 O1         -2.3866   -0.8311   -1.6776 O.3        1 <1>        0.000
      2 C2         -2.1053   -1.0287   -0.3869 C.2        1 <1>        0.000
      3 O2         -2.8871   -1.6070    0.3464 O.2        1 <1>        0.000
      4 C3         -0.8348   -0.5195    0.1473 C.2        1 <1>        0.000
      5 C4          0.2914   -0.3760   -0.5824 C.2        1 <1>        0.000
      6 C5          1.5845    0.1213   -0.0461 C.ar       1 <1>        0.000
      7 C6          2.8340   -0.1764   -0.6333 C.ar       1 <1>        0.000
      8 C7          4.0301    0.2619   -0.0622 C.ar       1 <1>        0.000
      9 C8          4.0042    1.0520    1.0870 C.ar       1 <1>        0.000
     10 C9          2.7834    1.4066    1.6587 C.ar       1 <1>        0.000
     11 C10         1.5963    0.9486    1.0934 C.ar       1 <1>        0.000
     12 H          -1.6597   -0.3626   -2.0943 H.spc      1 <1>        0.000
     13 H          -0.7996   -0.2398    1.2002 H.spc      1 <1>        0.000
     14 H           0.2493   -0.6435   -1.6382 H.spc      1 <1>        0.000
     15 H           2.8651   -0.7612   -1.5526 H.spc      1 <1>        0.000
     16 H           4.9833   -0.0130   -0.5139 H.spc      1 <1>        0.000
     17 H           4.9370    1.3915    1.5372 H.spc      1 <1>        0.000
     18 H           2.7582    2.0402    2.5452 H.spc      1 <1>        0.000
     19 H           0.6482    1.2389    1.5462 H.spc      1 <1>        0.000
@<TRIPOS>BOND
     1    5    6 1  
     2    7    8 ar 
     3    6   11 ar 
     4    9   10 ar 
     5   10   11 ar 
     6    6    7 ar 
     7    8    9 ar 
     8    1    2 1  
     9    2    3 2  
    10    2    4 1  
    11    4    5 2  
    12    1   12 1  
    13    4   13 1  
    14    5   14 1  
    15    7   15 1  
    16    8   16 1  
    17    9   17 1  
    18   10   18 1  
    19   11   19 1  
# Name:          frag5-592-37/41815
# Creation time: Sat Jun  5 12:52:57 2010


@<TRIPOS>MOLECULE
frag5-592-37/41815
   19    19     1     1     1
SMALL
USER_CHARGES


@<TRIPOS>ATOM
      1 O1         -2.8286   -0.2225   -0.9382 O.3        1 <1>        0.000
      2 C2         -1.9867   -1.2215   -0.6851 C.2        1 <1>        0.000
      3 O2         -2.3795   -2.3711   -0.5692 O.2        1 <1>        0.000
      4 C3         -0.5492   -0.9272   -0.5607 C.2        1 <1>        0.000
      5 C4         -0.0420    0.0305    0.2481 C.2        1 <1>        0.000
      6 C5          1.4030    0.3395    0.3862 C.ar       1 <1>        0.000
      7 C6          2.4222   -0.3558   -0.2959 C.ar       1 <1>        0.000
      8 C7          3.7705   -0.0704   -0.0865 C.ar       1 <1>        0.000
      9 C8          4.1380    0.9572    0.7816 C.ar       1 <1>        0.000
     10 C9          3.1540    1.6999    1.4325 C.ar       1 <1>        0.000
     11 C10         1.8087    1.3932    1.2317 C.ar       1 <1>        0.000
     12 H          -2.3385    0.6011   -0.9944 H.spc      1 <1>        0.000
     13 H           0.1478   -1.5167   -1.1563 H.spc      1 <1>        0.000
     14 H          -0.7442    0.6171    0.8406 H.spc      1 <1>        0.000
     15 H           2.1489   -1.1368   -1.0054 H.spc      1 <1>        0.000
     16 H           4.5370   -0.6500   -0.6009 H.spc      1 <1>        0.000
     17 H           5.1917    1.1791    0.9508 H.spc      1 <1>        0.000
     18 H           3.4353    2.5176    2.0961 H.spc      1 <1>        0.000
     19 H           1.0489    1.9845    1.7426 H.spc      1 <1>        0.000
@<TRIPOS>BOND
     1    5    6 1  
     2    7    8 ar 
     3    6   11 ar 
     4    9   10 ar 
     5   10   11 ar 
     6    6    7 ar 
     7    8    9 ar 
     8    1    2 1  
     9    2    3 2  
    10    2    4 1  
    11    4    5 2  
    12    1   12 1  
    13    4   13 1  
    14    5   14 1  
    15    7   15 1  
    16    8   16 1  
    17    9   17 1  
    18   10   18 1  
    19   11   19 1  
# Name:          frag5-592-37/41815 -- energy: -0.939886
# Creation time: Sat Jun  5 12:52:57 2010


@<TRIPOS>MOLECULE
frag5-592-37/41815 -- energy: -0.939886
   19    19     1     1     1
SMALL
USER_CHARGES


@<TRIPOS>ATOM
      1 O1         -3.1157   -0.2546   -1.1207 O.3        1 <1>        0.000
      2 C2         -2.1019   -0.9316   -0.5716 C.2        1 <1>        0.000
      3 O2         -2.1923   -2.1293   -0.3589 O.2        1 <1>        0.000
      4 C3         -0.8777   -0.1992   -0.2289 C.2        1 <1>        0.000
      5 C4          0.3318   -0.7882   -0.0936 C.2        1 <1>        0.000
      6 C5          1.5786   -0.0768    0.2577 C.ar       1 <1>        0.000
      7 C6          1.6283    1.0416    1.1170 C.ar       1 <1>        0.000
      8 C7          2.8202    1.7216    1.3741 C.ar       1 <1>        0.000
      9 C8          4.0127    1.2660    0.8164 C.ar       1 <1>        0.000
     10 C9          4.0136    0.1310    0.0094 C.ar       1 <1>        0.000
     11 C10         2.8128   -0.5287   -0.2564 C.ar       1 <1>        0.000
     12 H          -2.8694    0.6686   -1.2135 H.spc      1 <1>        0.000
     13 H          -0.9470    0.8777   -0.0751 H.spc      1 <1>        0.000
     14 H           0.3915   -1.8645   -0.2552 H.spc      1 <1>        0.000
     15 H           0.7099    1.3843    1.5936 H.spc      1 <1>        0.000
     16 H           2.8177    2.6070    2.0098 H.spc      1 <1>        0.000
     17 H           4.9442    1.7974    1.0115 H.spc      1 <1>        0.000
     18 H           4.9475   -0.2403   -0.4125 H.spc      1 <1>        0.000
     19 H           2.8287   -1.4217   -0.8812 H.spc      1 <1>        0.000
@<TRIPOS>BOND
     1    5    6 1  
     2    7    8 ar 
     3    6   11 ar 
     4    9   10 ar 
     5   10   11 ar 
     6    6    7 ar 
     7    8    9 ar 
     8    1    2 1  
     9    2    3 2  
    10    2    4 1  
    11    4    5 2  
    12    1   12 1  
    13    4   13 1  
    14    5   14 1  
    15    7   15 1  
    16    8   16 1  
    17    9   17 1  
    18   10   18 1  
    19   11   19 1  
# Name:          frag5-592-37/41815 -- energy: -0.779119
# Creation time: Sat Jun  5 12:52:57 2010


@<TRIPOS>MOLECULE
frag5-592-37/41815 -- energy: -0.779119
   19    19     1     1     1
SMALL
USER_CHARGES


@<TRIPOS>ATOM
      1 O1         -2.6833   -0.8660   -1.8572 O.3        1 <1>        0.000
      2 C2         -2.0227   -1.0046   -0.7047 C.2        1 <1>        0.000
      3 O2         -2.5138   -1.6158    0.2232 O.2        1 <1>        0.000
      4 C3         -0.6737   -0.4336   -0.6608 C.2        1 <1>        0.000
      5 C4          0.0922   -0.4866    0.4437 C.2        1 <1>        0.000
      6 C5          1.4370    0.0723    0.5267 C.ar       1 <1>        0.000
      7 C6          1.9373    0.7575    1.6540 C.ar       1 <1>        0.000
      8 C7          3.2133    1.3531    1.6837 C.ar       1 <1>        0.000
      9 C8          4.0758    1.1767    0.6104 C.ar       1 <1>        0.000
     10 C9          3.6687    0.4223   -0.4781 C.ar       1 <1>        0.000
     11 C10         2.3794   -0.1236   -0.4966 C.ar       1 <1>        0.000
     12 H          -2.1485   -0.3587   -2.4722 H.spc      1 <1>        0.000
     13 H          -0.2776    0.0505   -1.5535 H.spc      1 <1>        0.000
     14 H          -0.3158   -0.9757    1.3282 H.spc      1 <1>        0.000
     15 H           1.3084    0.8291    2.5414 H.spc      1 <1>        0.000
     16 H           3.5213    1.9483    2.5433 H.spc      1 <1>        0.000
     17 H           5.0674    1.6290    0.6239 H.spc      1 <1>        0.000
     18 H           4.3475    0.2549   -1.3144 H.spc      1 <1>        0.000
     19 H           2.0910   -0.7343   -1.3522 H.spc      1 <1>        0.000
@<TRIPOS>BOND
     1    5    6 1  
     2    7    8 ar 
     3    6   11 ar 
     4    9   10 ar 
     5   10   11 ar 
     6    6    7 ar 
     7    8    9 ar 
     8    1    2 1  
     9    2    3 2  
    10    2    4 1  
    11    4    5 2  
    12    1   12 1  
    13    4   13 1  
    14    5   14 1  
    15    7   15 1  
    16    8   16 1  
    17    9   17 1  
    18   10   18 1  
    19   11   19 1  
# Name:          frag5-592-37/41815 -- energy: -0.548677
# Creation time: Sat Jun  5 12:52:57 2010


@<TRIPOS>MOLECULE
frag5-592-37/41815 -- energy: -0.548677
   19    19     1     1     1
SMALL
USER_CHARGES


@<TRIPOS>ATOM
      1 O1         -2.3866   -0.8311   -1.6776 O.3        1 <1>        0.000
      2 C2         -2.1053   -1.0287   -0.3869 C.2        1 <1>        0.000
      3 O2         -2.8871   -1.6070    0.3464 O.2        1 <1>        0.000
      4 C3         -0.8348   -0.5195    0.1473 C.2        1 <1>        0.000
      5 C4          0.2914   -0.3760   -0.5824 C.2        1 <1>        0.000
      6 C5          1.5845    0.1213   -0.0461 C.ar       1 <1>        0.000
      7 C6          2.8340   -0.1764   -0.6333 C.ar       1 <1>        0.000
      8 C7          4.0301    0.2619   -0.0622 C.ar       1 <1>        0.000
      9 C8          4.0042    1.0520    1.0870 C.ar       1 <1>        0.000
     10 C9          2.7834    1.4066    1.6587 C.ar       1 <1>        0.000
     11 C10         1.5963    0.9486    1.0934 C.ar       1 <1>        0.000
     12 H          -1.6597   -0.3626   -2.0943 H.spc      1 <1>        0.000
     13 H          -0.7996   -0.2398    1.2002 H.spc      1 <1>        0.000
     14 H           0.2493   -0.6435   -1.6382 H.spc      1 <1>        0.000
     15 H           2.8651   -0.7612   -1.5526 H.spc      1 <1>        0.000
     16 H           4.9833   -0.0130   -0.5139 H.spc      1 <1>        0.000
     17 H           4.9370    1.3915    1.5372 H.spc      1 <1>        0.000
     18 H           2.7582    2.0402    2.5452 H.spc      1 <1>        0.000
     19 H           0.6482    1.2389    1.5462 H.spc      1 <1>        0.000
@<TRIPOS>BOND
     1    5    6 1  
     2    7    8 ar 
     3    6   11 ar 
     4    9   10 ar 
     5   10   11 ar 
     6    6    7 ar 
     7    8    9 ar 
     8    1    2 1  
     9    2    3 2  
    10    2    4 1  
    11    4    5 2  
    12    1   12 1  
    13    4   13 1  
    14    5   14 1  
    15    7   15 1  
    16    8   16 1  
    17    9   17 1  
    18   10   18 1  
    19   11   19 1  
# Name:          frag5-592-37/41815 -- energy: -0.889189
# Creation time: Sat Jun  5 12:52:57 2010


@<TRIPOS>MOLECULE
frag5-592-37/41815 -- energy: -0.889189
   19    19     1     1     1
SMALL
USER_CHARGES


@<TRIPOS>ATOM
      1 O1         -2.8286   -0.2225   -0.9382 O.3        1 <1>        0.000
      2 C2         -1.9867   -1.2215   -0.6851 C.2        1 <1>        0.000
      3 O2         -2.3795   -2.3711   -0.5692 O.2        1 <1>        0.000
      4 C3         -0.5492   -0.9272   -0.5607 C.2        1 <1>        0.000
      5 C4         -0.0420    0.0305    0.2481 C.2        1 <1>        0.000
      6 C5          1.4030    0.3395    0.3862 C.ar       1 <1>        0.000
      7 C6          2.4222   -0.3558   -0.2959 C.ar       1 <1>        0.000
      8 C7          3.7705   -0.0704   -0.0865 C.ar       1 <1>        0.000
      9 C8          4.1380    0.9572    0.7816 C.ar       1 <1>        0.000
     10 C9          3.1540    1.6999    1.4325 C.ar       1 <1>        0.000
     11 C10         1.8087    1.3932    1.2317 C.ar       1 <1>        0.000
     12 H          -2.3385    0.6011   -0.9944 H.spc      1 <1>        0.000
     13 H           0.1478   -1.5167   -1.1563 H.spc      1 <1>        0.000
     14 H          -0.7442    0.6171    0.8406 H.spc      1 <1>        0.000
     15 H           2.1489   -1.1368   -1.0054 H.spc      1 <1>        0.000
     16 H           4.5370   -0.6500   -0.6009 H.spc      1 <1>        0.000
     17 H           5.1917    1.1791    0.9508 H.spc      1 <1>        0.000
     18 H           3.4353    2.5176    2.0961 H.spc      1 <1>        0.000
     19 H           1.0489    1.9845    1.7426 H.spc      1 <1>        0.000
@<TRIPOS>BOND
     1    5    6 1  
     2    7    8 ar 
     3    6   11 ar 
     4    9   10 ar 
     5   10   11 ar 
     6    6    7 ar 
     7    8    9 ar 
     8    1    2 1  
     9    2    3 2  
    10    2    4 1  
    11    4    5 2  
    12    1   12 1  
    13    4   13 1  
    14    5   14 1  
    15    7   15 1  
    16    8   16 1  
    17    9   17 1  
    18   10   18 1  
    19   11   19 1  
