#      Rotatable Fragment
#      Build by yxyuan
#
# Name:          frag3-141-24/31924
# Creation time: Sat Jun  5 12:52:04 2010


@<TRIPOS>MOLECULE
frag3-141-24/31924
    8     7     1     1     1
SMALL
USER_CHARGES


@<TRIPOS>ATOM
      1 N1         -1.5004   -0.6167   -0.0707 N.3        1 <1>        0.000
      2 N2         -2.3900   -0.0205    0.7798 N.am       1 <1>        0.000
      3 C1         -2.0718    1.0769    1.5087 C.2        1 <1>        0.000
      4 O1         -2.7088    1.5450    2.4455 O.2        1 <1>        0.000
      5 H          -1.9434   -1.4209   -0.5151 H.spc      1 <1>        0.000
      6 H          -1.2137    0.0528   -0.7848 H.spc      1 <1>        0.000
      7 H          -3.3261   -0.4157    0.8687 H.spc      1 <1>        0.000
      8 H          -1.1544    1.5971    1.2333 H.spc      1 <1>        0.000
@<TRIPOS>BOND
     1    1    2 1  
     2    2    3 am 
     3    3    4 2  
     4    1    5 1  
     5    1    6 1  
     6    2    7 1  
     7    3    8 1  
# Name:          frag3-141-24/31924
# Creation time: Sat Jun  5 12:52:04 2010


@<TRIPOS>MOLECULE
frag3-141-24/31924
    8     7     1     1     1
SMALL
USER_CHARGES


@<TRIPOS>ATOM
      1 N1         -1.3564   -0.5729    0.4520 N.3        1 <1>        0.000
      2 N2         -2.5105    0.1750    0.4336 N.am       1 <1>        0.000
      3 C1         -2.6956    1.1619    1.3542 C.2        1 <1>        0.000
      4 O1         -2.1085    1.2206    2.4236 O.2        1 <1>        0.000
      5 H          -1.3860   -1.2602   -0.3011 H.spc      1 <1>        0.000
      6 H          -0.5525    0.0413    0.3219 H.spc      1 <1>        0.000
      7 H          -3.2270   -0.0091   -0.2686 H.spc      1 <1>        0.000
      8 H          -3.4130    1.9489    1.1217 H.spc      1 <1>        0.000
@<TRIPOS>BOND
     1    1    2 1  
     2    2    3 am 
     3    3    4 2  
     4    1    5 1  
     5    1    6 1  
     6    2    7 1  
     7    3    8 1  
# Name:          frag3-141-24/31924 -- energy: -0.242609
# Creation time: Sat Jun  5 12:52:04 2010


@<TRIPOS>MOLECULE
frag3-141-24/31924 -- energy: -0.242609
    8     7     1     1     1
SMALL
USER_CHARGES


@<TRIPOS>ATOM
      1 N1         -1.5004   -0.6167   -0.0707 N.3        1 <1>        0.000
      2 N2         -2.3900   -0.0205    0.7798 N.am       1 <1>        0.000
      3 C1         -2.0718    1.0769    1.5087 C.2        1 <1>        0.000
      4 O1         -2.7088    1.5450    2.4455 O.2        1 <1>        0.000
      5 H          -1.9434   -1.4209   -0.5151 H.spc      1 <1>        0.000
      6 H          -1.2137    0.0528   -0.7848 H.spc      1 <1>        0.000
      7 H          -3.3261   -0.4157    0.8687 H.spc      1 <1>        0.000
      8 H          -1.1544    1.5971    1.2333 H.spc      1 <1>        0.000
@<TRIPOS>BOND
     1    1    2 1  
     2    2    3 am 
     3    3    4 2  
     4    1    5 1  
     5    1    6 1  
     6    2    7 1  
     7    3    8 1  
# Name:          frag3-141-24/31924 -- energy: -0.236715
# Creation time: Sat Jun  5 12:52:04 2010


@<TRIPOS>MOLECULE
frag3-141-24/31924 -- energy: -0.236715
    8     7     1     1     1
SMALL
USER_CHARGES


@<TRIPOS>ATOM
      1 N1         -1.3564   -0.5729    0.4520 N.3        1 <1>        0.000
      2 N2         -2.5105    0.1750    0.4336 N.am       1 <1>        0.000
      3 C1         -2.6956    1.1619    1.3542 C.2        1 <1>        0.000
      4 O1         -2.1085    1.2206    2.4236 O.2        1 <1>        0.000
      5 H          -1.3860   -1.2602   -0.3011 H.spc      1 <1>        0.000
      6 H          -0.5525    0.0413    0.3219 H.spc      1 <1>        0.000
      7 H          -3.2270   -0.0091   -0.2686 H.spc      1 <1>        0.000
      8 H          -3.4130    1.9489    1.1217 H.spc      1 <1>        0.000
@<TRIPOS>BOND
     1    1    2 1  
     2    2    3 am 
     3    3    4 2  
     4    1    5 1  
     5    1    6 1  
     6    2    7 1  
     7    3    8 1  
