#      Rotatable Fragment
#      Build by yxyuan
#
# Name:          frag3-274-2/31924
# Creation time: Sat Jun  5 12:52:44 2010


@<TRIPOS>MOLECULE
frag3-274-2/31924
   20    19     1     1     1
SMALL
USER_CHARGES


@<TRIPOS>ATOM
      1 S1         -4.4512    1.7912   -2.2117 S.2        1 <1>        0.000
      2 C1         -4.7420    0.6637   -0.9570 C.2        1 <1>        0.000
      3 N1         -3.7210    0.2422   -0.1815 N.am       1 <1>        0.000
      4 N2         -3.9344   -0.6737    0.8615 N.2        1 <1>        0.000
      5 C2         -4.3769   -0.3435    2.0130 C.2        1 <1>        0.000
      6 C4         -4.5952   -1.3450    3.0728 C.2        1 <1>        0.000
      7 N3         -4.1071   -1.2042    4.2404 N.2        1 <1>        0.000
      8 N4         -4.2813   -2.1218    5.2874 N.am       1 <1>        0.000
      9 C5         -4.2337   -1.7234    6.5746 C.2        1 <1>        0.000
     10 S2         -4.8786   -2.7297    7.8026 S.2        1 <1>        0.000
     11 N5         -3.7074   -0.5426    6.9288 N.am       1 <1>        0.000
     12 N7         -5.9953    0.2190   -0.7748 N.am       1 <1>        0.000
     13 H          -2.7797    0.5944   -0.3557 H.spc      1 <1>        0.000
     14 H          -4.5986    0.7040    2.2173 H.spc      1 <1>        0.000
     15 H          -5.1909   -2.2304    2.8507 H.spc      1 <1>        0.000
     16 H          -4.4464   -3.1049    5.0716 H.spc      1 <1>        0.000
     17 H          -3.6975   -0.2622    7.9095 H.spc      1 <1>        0.000
     18 H          -3.3168    0.0756    6.2177 H.spc      1 <1>        0.000
     19 H          -6.7476    0.5532   -1.3770 H.spc      1 <1>        0.000
     20 H          -6.1953   -0.4532   -0.0341 H.spc      1 <1>        0.000
@<TRIPOS>BOND
     1    7    8 1  
     2    5    6 1  
     3    9   11 am 
     4    9   10 2  
     5    8    9 am 
     6    6    7 2  
     7    4    5 2  
     8    1    2 2  
     9    2    3 am 
    10    2   12 am 
    11    3    4 1  
    12    3   13 1  
    13    5   14 1  
    14    6   15 1  
    15    8   16 1  
    16   11   17 1  
    17   11   18 1  
    18   12   19 1  
    19   12   20 1  
# Name:          frag3-274-2/31924
# Creation time: Sat Jun  5 12:52:44 2010


@<TRIPOS>MOLECULE
frag3-274-2/31924
   20    19     1     1     1
SMALL
USER_CHARGES


@<TRIPOS>ATOM
      1 S1         -4.2831   -2.8295    7.8725 S.2        1 <1>        0.000
      2 C1         -4.0516   -1.7023    6.6023 C.2        1 <1>        0.000
      3 N1         -4.1465   -2.1155    5.3226 N.am       1 <1>        0.000
      4 N2         -4.6095   -1.2473    4.3115 N.2        1 <1>        0.000
      5 C2         -4.6477   -1.5434    3.0764 C.2        1 <1>        0.000
      6 C4         -5.1510   -0.5935    2.0677 C.2        1 <1>        0.000
      7 N3         -4.7892   -0.6601    0.8511 N.2        1 <1>        0.000
      8 N4         -5.2336    0.2206   -0.1583 N.am       1 <1>        0.000
      9 C5         -4.3548    0.8004   -1.0020 C.2        1 <1>        0.000
     10 S2         -4.9079    1.4430   -2.4904 S.2        1 <1>        0.000
     11 N5         -3.0454    0.8810   -0.7134 N.am       1 <1>        0.000
     12 N7         -3.8038   -0.4213    6.9161 N.am       1 <1>        0.000
     13 H          -3.8796   -3.0700    5.0818 H.spc      1 <1>        0.000
     14 H          -4.2994   -2.5248    2.7545 H.spc      1 <1>        0.000
     15 H          -5.8504    0.1849    2.3726 H.spc      1 <1>        0.000
     16 H          -6.2295    0.4208   -0.2509 H.spc      1 <1>        0.000
     17 H          -2.4034    1.3180   -1.3746 H.spc      1 <1>        0.000
     18 H          -2.6931    0.5052    0.1670 H.spc      1 <1>        0.000
     19 H          -3.7565   -0.1358    7.8942 H.spc      1 <1>        0.000
     20 H          -3.6628    0.2669    6.1765 H.spc      1 <1>        0.000
@<TRIPOS>BOND
     1    7    8 1  
     2    5    6 1  
     3    9   11 am 
     4    9   10 2  
     5    8    9 am 
     6    6    7 2  
     7    4    5 2  
     8    1    2 2  
     9    2    3 am 
    10    2   12 am 
    11    3    4 1  
    12    3   13 1  
    13    5   14 1  
    14    6   15 1  
    15    8   16 1  
    16   11   17 1  
    17   11   18 1  
    18   12   19 1  
    19   12   20 1  
# Name:          frag3-274-2/31924
# Creation time: Sat Jun  5 12:52:44 2010


@<TRIPOS>MOLECULE
frag3-274-2/31924
   20    19     1     1     1
SMALL
USER_CHARGES


@<TRIPOS>ATOM
      1 S1         -4.4127   -2.4000    7.7962 S.2        1 <1>        0.000
      2 C1         -4.5542   -1.5021    6.3460 C.2        1 <1>        0.000
      3 N1         -3.9636   -1.9473    5.2171 N.am       1 <1>        0.000
      4 N2         -4.0277   -1.2131    4.0302 N.2        1 <1>        0.000
      5 C2         -3.5546   -1.6022    2.9117 C.2        1 <1>        0.000
      6 C4         -3.6733   -0.7867    1.6886 C.2        1 <1>        0.000
      7 N3         -4.1994   -1.2492    0.6184 N.2        1 <1>        0.000
      8 N4         -4.3523   -0.4918   -0.5503 N.am       1 <1>        0.000
      9 C5         -4.8809    0.7519   -0.5200 C.2        1 <1>        0.000
     10 S2         -4.3678    1.9231   -1.6556 S.2        1 <1>        0.000
     11 N5         -5.7825    1.1099    0.4063 N.am       1 <1>        0.000
     12 N7         -5.2551   -0.3602    6.3675 N.am       1 <1>        0.000
     13 H          -3.4617   -2.8352    5.2307 H.spc      1 <1>        0.000
     14 H          -3.0477   -2.5657    2.8581 H.spc      1 <1>        0.000
     15 H          -3.3025    0.2383    1.6969 H.spc      1 <1>        0.000
     16 H          -4.0584   -0.8874   -1.4433 H.spc      1 <1>        0.000
     17 H          -6.1463    2.0627    0.4224 H.spc      1 <1>        0.000
     18 H          -6.1043    0.4294    1.0946 H.spc      1 <1>        0.000
     19 H          -5.6893   -0.0446    7.2348 H.spc      1 <1>        0.000
     20 H          -5.3544    0.1934    5.5166 H.spc      1 <1>        0.000
@<TRIPOS>BOND
     1    7    8 1  
     2    5    6 1  
     3    9   11 am 
     4    9   10 2  
     5    8    9 am 
     6    6    7 2  
     7    4    5 2  
     8    1    2 2  
     9    2    3 am 
    10    2   12 am 
    11    3    4 1  
    12    3   13 1  
    13    5   14 1  
    14    6   15 1  
    15    8   16 1  
    16   11   17 1  
    17   11   18 1  
    18   12   19 1  
    19   12   20 1  
# Name:          frag3-274-2/31924
# Creation time: Sat Jun  5 12:52:44 2010


@<TRIPOS>MOLECULE
frag3-274-2/31924
   20    19     1     1     1
SMALL
USER_CHARGES


@<TRIPOS>ATOM
      1 S1         -5.1404   -2.2249    7.5271 S.2        1 <1>        0.000
      2 C1         -4.6354   -1.3523    6.1415 C.2        1 <1>        0.000
      3 N1         -3.8088   -1.9327    5.2493 N.am       1 <1>        0.000
      4 N2         -3.6968   -1.4460    3.9424 N.2        1 <1>        0.000
      5 C2         -3.3847   -2.1588    2.9306 C.2        1 <1>        0.000
      6 C4         -3.3127   -1.5770    1.5757 C.2        1 <1>        0.000
      7 N3         -4.2329   -0.8135    1.1330 N.2        1 <1>        0.000
      8 N4         -4.2317   -0.2126   -0.1309 N.am       1 <1>        0.000
      9 C5         -4.9082    0.9304   -0.3604 C.2        1 <1>        0.000
     10 S2         -5.2165    1.4290   -1.9690 S.2        1 <1>        0.000
     11 N5         -5.3624    1.6953    0.6424 N.am       1 <1>        0.000
     12 N7         -5.0937   -0.1047    5.9743 N.am       1 <1>        0.000
     13 H          -3.2549   -2.7413    5.5319 H.spc      1 <1>        0.000
     14 H          -3.1671   -3.2178    3.0697 H.spc      1 <1>        0.000
     15 H          -2.4560   -1.8046    0.9413 H.spc      1 <1>        0.000
     16 H          -3.7097   -0.6473   -0.8918 H.spc      1 <1>        0.000
     17 H          -5.8779    2.5513    0.4377 H.spc      1 <1>        0.000
     18 H          -5.1925    1.4213    1.6101 H.spc      1 <1>        0.000
     19 H          -5.7267    0.3026    6.6626 H.spc      1 <1>        0.000
     20 H          -4.8096    0.4380    5.1587 H.spc      1 <1>        0.000
@<TRIPOS>BOND
     1    7    8 1  
     2    5    6 1  
     3    9   11 am 
     4    9   10 2  
     5    8    9 am 
     6    6    7 2  
     7    4    5 2  
     8    1    2 2  
     9    2    3 am 
    10    2   12 am 
    11    3    4 1  
    12    3   13 1  
    13    5   14 1  
    14    6   15 1  
    15    8   16 1  
    16   11   17 1  
    17   11   18 1  
    18   12   19 1  
    19   12   20 1  
# Name:          frag3-274-2/31924
# Creation time: Sat Jun  5 12:52:44 2010


@<TRIPOS>MOLECULE
frag3-274-2/31924
   20    19     1     1     1
SMALL
USER_CHARGES


@<TRIPOS>ATOM
      1 S1         -4.0423    1.4603   -2.3219 S.2        1 <1>        0.000
      2 C1         -4.5254    0.5473   -0.9586 C.2        1 <1>        0.000
      3 N1         -3.7427    0.5130    0.1404 N.am       1 <1>        0.000
      4 N2         -4.0229   -0.3549    1.2038 N.2        1 <1>        0.000
      5 C2         -4.9566   -0.1599    2.0548 C.2        1 <1>        0.000
      6 C4         -5.2137   -1.1158    3.1489 C.2        1 <1>        0.000
      7 N3         -4.5597   -1.0729    4.2407 N.2        1 <1>        0.000
      8 N4         -4.7409   -1.9543    5.3131 N.am       1 <1>        0.000
      9 C5         -4.0708   -1.7922    6.4705 C.2        1 <1>        0.000
     10 S2         -4.1129   -3.0224    7.6613 S.2        1 <1>        0.000
     11 N5         -3.3519   -0.6893    6.7210 N.am       1 <1>        0.000
     12 N7         -5.6844   -0.1270   -1.0179 N.am       1 <1>        0.000
     13 H          -2.9326    1.1301    0.1977 H.spc      1 <1>        0.000
     14 H          -5.5767    0.7325    1.9703 H.spc      1 <1>        0.000
     15 H          -5.9825   -1.8776    3.0194 H.spc      1 <1>        0.000
     16 H          -5.3921   -2.7334    5.2164 H.spc      1 <1>        0.000
     17 H          -2.8476   -0.5986    7.6030 H.spc      1 <1>        0.000
     18 H          -3.3090    0.0595    6.0297 H.spc      1 <1>        0.000
     19 H          -6.2548   -0.0875   -1.8626 H.spc      1 <1>        0.000
     20 H          -5.9948   -0.6789   -0.2183 H.spc      1 <1>        0.000
@<TRIPOS>BOND
     1    7    8 1  
     2    5    6 1  
     3    9   11 am 
     4    9   10 2  
     5    8    9 am 
     6    6    7 2  
     7    4    5 2  
     8    1    2 2  
     9    2    3 am 
    10    2   12 am 
    11    3    4 1  
    12    3   13 1  
    13    5   14 1  
    14    6   15 1  
    15    8   16 1  
    16   11   17 1  
    17   11   18 1  
    18   12   19 1  
    19   12   20 1  
# Name:          frag3-274-2/31924
# Creation time: Sat Jun  5 12:52:44 2010


@<TRIPOS>MOLECULE
frag3-274-2/31924
   20    19     1     1     1
SMALL
USER_CHARGES


@<TRIPOS>ATOM
      1 S1         -4.3286    0.9250   -2.2325 S.2        1 <1>        0.000
      2 C1         -4.2705    0.1571   -0.7067 C.2        1 <1>        0.000
      3 N1         -3.8463    0.8382    0.3770 N.am       1 <1>        0.000
      4 N2         -4.1529    0.4236    1.6639 N.2        1 <1>        0.000
      5 C2         -5.3517    0.3133    2.1063 C.2        1 <1>        0.000
      6 C4         -5.6283   -0.1739    3.4767 C.2        1 <1>        0.000
      7 N3         -4.8336   -0.9762    4.0685 N.2        1 <1>        0.000
      8 N4         -5.0030   -1.4761    5.3479 N.am       1 <1>        0.000
      9 C5         -3.9707   -1.9793    6.0518 C.2        1 <1>        0.000
     10 S2         -4.2661   -2.9296    7.4428 S.2        1 <1>        0.000
     11 N5         -2.7001   -1.7719    5.6891 N.am       1 <1>        0.000
     12 N7         -4.6725   -1.1179   -0.6287 N.am       1 <1>        0.000
     13 H          -3.2854    1.6801    0.2466 H.spc      1 <1>        0.000
     14 H          -6.1856    0.5843    1.4588 H.spc      1 <1>        0.000
     15 H          -6.5299    0.1602    3.9902 H.spc      1 <1>        0.000
     16 H          -5.9323   -1.4632    5.7681 H.spc      1 <1>        0.000
     17 H          -1.9408   -2.1760    6.2373 H.spc      1 <1>        0.000
     18 H          -2.4905   -1.2096    4.8643 H.spc      1 <1>        0.000
     19 H          -5.0006   -1.6012   -1.4648 H.spc      1 <1>        0.000
     20 H          -4.6506   -1.6057    0.2668 H.spc      1 <1>        0.000
@<TRIPOS>BOND
     1    7    8 1  
     2    5    6 1  
     3    9   11 am 
     4    9   10 2  
     5    8    9 am 
     6    6    7 2  
     7    4    5 2  
     8    1    2 2  
     9    2    3 am 
    10    2   12 am 
    11    3    4 1  
    12    3   13 1  
    13    5   14 1  
    14    6   15 1  
    15    8   16 1  
    16   11   17 1  
    17   11   18 1  
    18   12   19 1  
    19   12   20 1  
# Name:          frag3-274-2/31924
# Creation time: Sat Jun  5 12:52:44 2010


@<TRIPOS>MOLECULE
frag3-274-2/31924
   20    19     1     1     1
SMALL
USER_CHARGES


@<TRIPOS>ATOM
      1 S1         -4.4153   -3.4682    7.1739 S.2        1 <1>        0.000
      2 C1         -4.0142   -1.9804    6.4224 C.2        1 <1>        0.000
      3 N1         -4.9583   -1.3023    5.7371 N.am       1 <1>        0.000
      4 N2         -4.6140   -0.4806    4.6553 N.2        1 <1>        0.000
      5 C2         -5.1166   -0.5922    3.4883 C.2        1 <1>        0.000
      6 C4         -4.7027    0.2861    2.3791 C.2        1 <1>        0.000
      7 N3         -4.5272   -0.1557    1.1982 N.2        1 <1>        0.000
      8 N4         -4.1347    0.6314    0.1052 N.am       1 <1>        0.000
      9 C5         -4.5049    0.3077   -1.1504 C.2        1 <1>        0.000
     10 S2         -4.0441    1.3091   -2.4611 S.2        1 <1>        0.000
     11 N5         -5.2390   -0.7845   -1.4087 N.am       1 <1>        0.000
     12 N7         -2.7532   -1.5383    6.5167 N.am       1 <1>        0.000
     13 H          -5.9371   -1.3891    6.0105 H.spc      1 <1>        0.000
     14 H          -5.8718   -1.3569    3.3065 H.spc      1 <1>        0.000
     15 H          -4.5420    1.3460    2.5761 H.spc      1 <1>        0.000
     16 H          -3.5613    1.4601    0.2625 H.spc      1 <1>        0.000
     17 H          -5.5097   -1.0020   -2.3678 H.spc      1 <1>        0.000
     18 H          -5.5267   -1.3977   -0.6461 H.spc      1 <1>        0.000
     19 H          -2.0583   -2.0838    7.0265 H.spc      1 <1>        0.000
     20 H          -2.4880   -0.6561    6.0787 H.spc      1 <1>        0.000
@<TRIPOS>BOND
     1    7    8 1  
     2    5    6 1  
     3    9   11 am 
     4    9   10 2  
     5    8    9 am 
     6    6    7 2  
     7    4    5 2  
     8    1    2 2  
     9    2    3 am 
    10    2   12 am 
    11    3    4 1  
    12    3   13 1  
    13    5   14 1  
    14    6   15 1  
    15    8   16 1  
    16   11   17 1  
    17   11   18 1  
    18   12   19 1  
    19   12   20 1  
# Name:          frag3-274-2/31924
# Creation time: Sat Jun  5 12:52:44 2010


@<TRIPOS>MOLECULE
frag3-274-2/31924
   20    19     1     1     1
SMALL
USER_CHARGES


@<TRIPOS>ATOM
      1 S1         -5.3326    0.3771   -2.6095 S.2        1 <1>        0.000
      2 C1         -5.0603    0.5968   -0.9299 C.2        1 <1>        0.000
      3 N1         -4.2740   -0.2830   -0.2706 N.am       1 <1>        0.000
      4 N2         -3.9614   -0.0643    1.1176 N.2        1 <1>        0.000
      5 C2         -3.6264   -1.0056    1.9065 C.2        1 <1>        0.000
      6 C4         -3.3170   -0.7130    3.3179 C.2        1 <1>        0.000
      7 N3         -3.8338   -1.4138    4.2436 N.2        1 <1>        0.000
      8 N4         -3.5742   -1.1838    5.6384 N.am       1 <1>        0.000
      9 C5         -4.4205   -1.6599    6.5776 C.2        1 <1>        0.000
     10 S2         -5.6578   -2.7492    6.0890 S.2        1 <1>        0.000
     11 N5         -4.3283   -1.3109    7.8756 N.am       1 <1>        0.000
     12 N7         -5.6380    1.6417   -0.3000 N.am       1 <1>        0.000
     13 H          -3.9029   -1.1000   -0.7555 H.spc      1 <1>        0.000
     14 H          -3.5682   -2.0297    1.5378 H.spc      1 <1>        0.000
     15 H          -2.6433    0.1065    3.5681 H.spc      1 <1>        0.000
     16 H          -2.7467   -0.6584    5.9206 H.spc      1 <1>        0.000
     17 H          -4.9876   -1.6920    8.5542 H.spc      1 <1>        0.000
     18 H          -3.5992   -0.6656    8.1797 H.spc      1 <1>        0.000
     19 H          -6.2282    2.2891   -0.8223 H.spc      1 <1>        0.000
     20 H          -5.4843    1.7838    0.6983 H.spc      1 <1>        0.000
@<TRIPOS>BOND
     1    7    8 1  
     2    5    6 1  
     3    9   11 am 
     4    9   10 2  
     5    8    9 am 
     6    6    7 2  
     7    4    5 2  
     8    1    2 2  
     9    2    3 am 
    10    2   12 am 
    11    3    4 1  
    12    3   13 1  
    13    5   14 1  
    14    6   15 1  
    15    8   16 1  
    16   11   17 1  
    17   11   18 1  
    18   12   19 1  
    19   12   20 1  
# Name:          frag3-274-2/31924
# Creation time: Sat Jun  5 12:52:44 2010


@<TRIPOS>MOLECULE
frag3-274-2/31924
   20    19     1     1     1
SMALL
USER_CHARGES


@<TRIPOS>ATOM
      1 S1         -3.9983   -3.2707    7.4176 S.2        1 <1>        0.000
      2 C1         -4.2512   -1.7316    6.7015 C.2        1 <1>        0.000
      3 N1         -4.8994   -1.6547    5.5218 N.am       1 <1>        0.000
      4 N2         -4.3451   -0.9685    4.4300 N.2        1 <1>        0.000
      5 C2         -4.6284   -1.2129    3.2137 C.2        1 <1>        0.000
      6 C4         -4.0056   -0.4658    2.1057 C.2        1 <1>        0.000
      7 N3         -4.4576   -0.5284    0.9188 N.2        1 <1>        0.000
      8 N4         -3.9137    0.1725   -0.1749 N.am       1 <1>        0.000
      9 C5         -4.7040    0.6164   -1.1730 C.2        1 <1>        0.000
     10 S2         -4.0530    1.6389   -2.3833 S.2        1 <1>        0.000
     11 N5         -6.0030    0.2864   -1.2432 N.am       1 <1>        0.000
     12 N7         -3.7649   -0.6494    7.3213 N.am       1 <1>        0.000
     13 H          -5.8097   -2.1036    5.4208 H.spc      1 <1>        0.000
     14 H          -5.3512   -1.9960    2.9848 H.spc      1 <1>        0.000
     15 H          -3.1344    0.1568    2.3094 H.spc      1 <1>        0.000
     16 H          -2.9094    0.3465   -0.2124 H.spc      1 <1>        0.000
     17 H          -6.5793    0.6431   -2.0054 H.spc      1 <1>        0.000
     18 H          -6.4139   -0.3211   -0.5343 H.spc      1 <1>        0.000
     19 H          -3.2566   -0.7502    8.1999 H.spc      1 <1>        0.000
     20 H          -3.9026    0.2760    6.9150 H.spc      1 <1>        0.000
@<TRIPOS>BOND
     1    7    8 1  
     2    5    6 1  
     3    9   11 am 
     4    9   10 2  
     5    8    9 am 
     6    6    7 2  
     7    4    5 2  
     8    1    2 2  
     9    2    3 am 
    10    2   12 am 
    11    3    4 1  
    12    3   13 1  
    13    5   14 1  
    14    6   15 1  
    15    8   16 1  
    16   11   17 1  
    17   11   18 1  
    18   12   19 1  
    19   12   20 1  
# Name:          frag3-274-2/31924
# Creation time: Sat Jun  5 12:52:44 2010


@<TRIPOS>MOLECULE
frag3-274-2/31924
   20    19     1     1     1
SMALL
USER_CHARGES


@<TRIPOS>ATOM
      1 S1         -2.9460   -2.8329    6.1778 S.2        1 <1>        0.000
      2 C1         -4.2470   -1.8152    6.6553 C.2        1 <1>        0.000
      3 N1         -4.9179   -1.1376    5.6973 N.am       1 <1>        0.000
      4 N2         -4.5935   -1.3264    4.3118 N.2        1 <1>        0.000
      5 C2         -4.7959   -0.4377    3.4251 C.2        1 <1>        0.000
      6 C4         -4.4310   -0.6954    2.0202 C.2        1 <1>        0.000
      7 N3         -4.1498    0.2732    1.2444 N.2        1 <1>        0.000
      8 N4         -3.7842    0.0869   -0.1356 N.am       1 <1>        0.000
      9 C5         -4.6209    0.4971   -1.1141 C.2        1 <1>        0.000
     10 S2         -4.1872    0.2281   -2.7521 S.2        1 <1>        0.000
     11 N5         -5.7903    1.1116   -0.8355 N.am       1 <1>        0.000
     12 N7         -4.5604   -1.7195    7.9613 N.am       1 <1>        0.000
     13 H          -5.6591   -0.4882    5.9605 H.spc      1 <1>        0.000
     14 H          -5.2405    0.5174    3.7046 H.spc      1 <1>        0.000
     15 H          -4.4020   -1.7184    1.6450 H.spc      1 <1>        0.000
     16 H          -2.8957   -0.3537   -0.3741 H.spc      1 <1>        0.000
     17 H          -6.4033    1.4095   -1.5943 H.spc      1 <1>        0.000
     18 H          -6.0608    1.2780    0.1338 H.spc      1 <1>        0.000
     19 H          -4.0284   -2.2470    8.6534 H.spc      1 <1>        0.000
     20 H          -5.3298   -1.1195    8.2585 H.spc      1 <1>        0.000
@<TRIPOS>BOND
     1    7    8 1  
     2    5    6 1  
     3    9   11 am 
     4    9   10 2  
     5    8    9 am 
     6    6    7 2  
     7    4    5 2  
     8    1    2 2  
     9    2    3 am 
    10    2   12 am 
    11    3    4 1  
    12    3   13 1  
    13    5   14 1  
    14    6   15 1  
    15    8   16 1  
    16   11   17 1  
    17   11   18 1  
    18   12   19 1  
    19   12   20 1  
# Name:          frag3-274-2/31924
# Creation time: Sat Jun  5 12:52:44 2010


@<TRIPOS>MOLECULE
frag3-274-2/31924
   20    19     1     1     1
SMALL
USER_CHARGES


@<TRIPOS>ATOM
      1 S1         -5.0775   -2.0093    7.7933 S.2        1 <1>        0.000
      2 C1         -4.3117   -1.5645    6.3284 C.2        1 <1>        0.000
      3 N1         -4.8049   -2.0064    5.1537 N.am       1 <1>        0.000
      4 N2         -4.4847   -1.3701    3.9532 N.2        1 <1>        0.000
      5 C2         -4.0228   -1.9569    2.9175 C.2        1 <1>        0.000
      6 C4         -3.7126   -1.2017    1.6867 C.2        1 <1>        0.000
      7 N3         -4.1882   -0.0289    1.4962 N.2        1 <1>        0.000
      8 N4         -3.9511    0.7403    0.3541 N.am       1 <1>        0.000
      9 C5         -4.8052    0.7196   -0.6894 C.2        1 <1>        0.000
     10 S2         -4.6139    1.8367   -1.9714 S.2        1 <1>        0.000
     11 N5         -5.8163   -0.1586   -0.7555 N.am       1 <1>        0.000
     12 N7         -3.2355   -0.7680    6.3892 N.am       1 <1>        0.000
     13 H          -5.4218   -2.8186    5.1422 H.spc      1 <1>        0.000
     14 H          -3.8545   -3.0336    2.9421 H.spc      1 <1>        0.000
     15 H          -3.0692   -1.6498    0.9295 H.spc      1 <1>        0.000
     16 H          -3.1181    1.3273    0.3088 H.spc      1 <1>        0.000
     17 H          -6.4481   -0.1496   -1.5562 H.spc      1 <1>        0.000
     18 H          -5.9536   -0.8357   -0.0051 H.spc      1 <1>        0.000
     19 H          -2.8923   -0.4425    7.2929 H.spc      1 <1>        0.000
     20 H          -2.7596   -0.4873    5.5318 H.spc      1 <1>        0.000
@<TRIPOS>BOND
     1    7    8 1  
     2    5    6 1  
     3    9   11 am 
     4    9   10 2  
     5    8    9 am 
     6    6    7 2  
     7    4    5 2  
     8    1    2 2  
     9    2    3 am 
    10    2   12 am 
    11    3    4 1  
    12    3   13 1  
    13    5   14 1  
    14    6   15 1  
    15    8   16 1  
    16   11   17 1  
    17   11   18 1  
    18   12   19 1  
    19   12   20 1  
# Name:          frag3-274-2/31924
# Creation time: Sat Jun  5 12:52:44 2010


@<TRIPOS>MOLECULE
frag3-274-2/31924
   20    19     1     1     1
SMALL
USER_CHARGES


@<TRIPOS>ATOM
      1 S1         -4.0788   -0.2602    7.0286 S.2        1 <1>        0.000
      2 C1         -4.2447   -1.9168    6.5975 C.2        1 <1>        0.000
      3 N1         -4.2834   -2.2370    5.2851 N.am       1 <1>        0.000
      4 N2         -4.2155   -1.2129    4.2836 N.2        1 <1>        0.000
      5 C2         -4.5626   -1.3993    3.0748 C.2        1 <1>        0.000
      6 C4         -4.4692   -0.2995    2.0976 C.2        1 <1>        0.000
      7 N3         -3.9162   -0.4932    0.9673 N.2        1 <1>        0.000
      8 N4         -3.7993    0.5371   -0.0299 N.am       1 <1>        0.000
      9 C5         -4.7402    0.6524   -0.9927 C.2        1 <1>        0.000
     10 S2         -4.5712    1.8735   -2.1856 S.2        1 <1>        0.000
     11 N5         -5.8093   -0.1703   -1.0411 N.am       1 <1>        0.000
     12 N7         -4.3339   -2.8417    7.5710 N.am       1 <1>        0.000
     13 H          -4.3615   -3.2146    5.0048 H.spc      1 <1>        0.000
     14 H          -4.9306   -2.3758    2.7599 H.spc      1 <1>        0.000
     15 H          -4.8746    0.6820    2.3434 H.spc      1 <1>        0.000
     16 H          -3.0073    1.1796   -0.0101 H.spc      1 <1>        0.000
     17 H          -6.5036   -0.0614   -1.7803 H.spc      1 <1>        0.000
     18 H          -5.9228   -0.9009   -0.3384 H.spc      1 <1>        0.000
     19 H          -4.3028   -2.5565    8.5498 H.spc      1 <1>        0.000
     20 H          -4.4326   -3.8279    7.3300 H.spc      1 <1>        0.000
@<TRIPOS>BOND
     1    7    8 1  
     2    5    6 1  
     3    9   11 am 
     4    9   10 2  
     5    8    9 am 
     6    6    7 2  
     7    4    5 2  
     8    1    2 2  
     9    2    3 am 
    10    2   12 am 
    11    3    4 1  
    12    3   13 1  
    13    5   14 1  
    14    6   15 1  
    15    8   16 1  
    16   11   17 1  
    17   11   18 1  
    18   12   19 1  
    19   12   20 1  
# Name:          frag3-274-2/31924 -- energy: -1.814258
# Creation time: Sat Jun  5 12:52:44 2010


@<TRIPOS>MOLECULE
frag3-274-2/31924 -- energy: -1.814258
   20    19     1     1     1
SMALL
USER_CHARGES


@<TRIPOS>ATOM
      1 S1         -4.4512    1.7912   -2.2117 S.2        1 <1>        0.000
      2 C1         -4.7420    0.6637   -0.9570 C.2        1 <1>        0.000
      3 N1         -3.7210    0.2422   -0.1815 N.am       1 <1>        0.000
      4 N2         -3.9344   -0.6737    0.8615 N.2        1 <1>        0.000
      5 C2         -4.3769   -0.3435    2.0130 C.2        1 <1>        0.000
      6 C4         -4.5952   -1.3450    3.0728 C.2        1 <1>        0.000
      7 N3         -4.1071   -1.2042    4.2404 N.2        1 <1>        0.000
      8 N4         -4.2813   -2.1218    5.2874 N.am       1 <1>        0.000
      9 C5         -4.2337   -1.7234    6.5746 C.2        1 <1>        0.000
     10 S2         -4.8786   -2.7297    7.8026 S.2        1 <1>        0.000
     11 N5         -3.7074   -0.5426    6.9288 N.am       1 <1>        0.000
     12 N7         -5.9953    0.2190   -0.7748 N.am       1 <1>        0.000
     13 H          -2.7797    0.5944   -0.3557 H.spc      1 <1>        0.000
     14 H          -4.5986    0.7040    2.2173 H.spc      1 <1>        0.000
     15 H          -5.1909   -2.2304    2.8507 H.spc      1 <1>        0.000
     16 H          -4.4464   -3.1049    5.0716 H.spc      1 <1>        0.000
     17 H          -3.6975   -0.2622    7.9095 H.spc      1 <1>        0.000
     18 H          -3.3168    0.0756    6.2177 H.spc      1 <1>        0.000
     19 H          -6.7476    0.5532   -1.3770 H.spc      1 <1>        0.000
     20 H          -6.1953   -0.4532   -0.0341 H.spc      1 <1>        0.000
@<TRIPOS>BOND
     1    7    8 1  
     2    5    6 1  
     3    9   11 am 
     4    9   10 2  
     5    8    9 am 
     6    6    7 2  
     7    4    5 2  
     8    1    2 2  
     9    2    3 am 
    10    2   12 am 
    11    3    4 1  
    12    3   13 1  
    13    5   14 1  
    14    6   15 1  
    15    8   16 1  
    16   11   17 1  
    17   11   18 1  
    18   12   19 1  
    19   12   20 1  
# Name:          frag3-274-2/31924 -- energy: -1.729833
# Creation time: Sat Jun  5 12:52:44 2010


@<TRIPOS>MOLECULE
frag3-274-2/31924 -- energy: -1.729833
   20    19     1     1     1
SMALL
USER_CHARGES


@<TRIPOS>ATOM
      1 S1         -4.2831   -2.8295    7.8725 S.2        1 <1>        0.000
      2 C1         -4.0516   -1.7023    6.6023 C.2        1 <1>        0.000
      3 N1         -4.1465   -2.1155    5.3226 N.am       1 <1>        0.000
      4 N2         -4.6095   -1.2473    4.3115 N.2        1 <1>        0.000
      5 C2         -4.6477   -1.5434    3.0764 C.2        1 <1>        0.000
      6 C4         -5.1510   -0.5935    2.0677 C.2        1 <1>        0.000
      7 N3         -4.7892   -0.6601    0.8511 N.2        1 <1>        0.000
      8 N4         -5.2336    0.2206   -0.1583 N.am       1 <1>        0.000
      9 C5         -4.3548    0.8004   -1.0020 C.2        1 <1>        0.000
     10 S2         -4.9079    1.4430   -2.4904 S.2        1 <1>        0.000
     11 N5         -3.0454    0.8810   -0.7134 N.am       1 <1>        0.000
     12 N7         -3.8038   -0.4213    6.9161 N.am       1 <1>        0.000
     13 H          -3.8796   -3.0700    5.0818 H.spc      1 <1>        0.000
     14 H          -4.2994   -2.5248    2.7545 H.spc      1 <1>        0.000
     15 H          -5.8504    0.1849    2.3726 H.spc      1 <1>        0.000
     16 H          -6.2295    0.4208   -0.2509 H.spc      1 <1>        0.000
     17 H          -2.4034    1.3180   -1.3746 H.spc      1 <1>        0.000
     18 H          -2.6931    0.5052    0.1670 H.spc      1 <1>        0.000
     19 H          -3.7565   -0.1358    7.8942 H.spc      1 <1>        0.000
     20 H          -3.6628    0.2669    6.1765 H.spc      1 <1>        0.000
@<TRIPOS>BOND
     1    7    8 1  
     2    5    6 1  
     3    9   11 am 
     4    9   10 2  
     5    8    9 am 
     6    6    7 2  
     7    4    5 2  
     8    1    2 2  
     9    2    3 am 
    10    2   12 am 
    11    3    4 1  
    12    3   13 1  
    13    5   14 1  
    14    6   15 1  
    15    8   16 1  
    16   11   17 1  
    17   11   18 1  
    18   12   19 1  
    19   12   20 1  
# Name:          frag3-274-2/31924 -- energy: -1.911525
# Creation time: Sat Jun  5 12:52:44 2010


@<TRIPOS>MOLECULE
frag3-274-2/31924 -- energy: -1.911525
   20    19     1     1     1
SMALL
USER_CHARGES


@<TRIPOS>ATOM
      1 S1         -4.4127   -2.4000    7.7962 S.2        1 <1>        0.000
      2 C1         -4.5542   -1.5021    6.3460 C.2        1 <1>        0.000
      3 N1         -3.9636   -1.9473    5.2171 N.am       1 <1>        0.000
      4 N2         -4.0277   -1.2131    4.0302 N.2        1 <1>        0.000
      5 C2         -3.5546   -1.6022    2.9117 C.2        1 <1>        0.000
      6 C4         -3.6733   -0.7867    1.6886 C.2        1 <1>        0.000
      7 N3         -4.1994   -1.2492    0.6184 N.2        1 <1>        0.000
      8 N4         -4.3523   -0.4918   -0.5503 N.am       1 <1>        0.000
      9 C5         -4.8809    0.7519   -0.5200 C.2        1 <1>        0.000
     10 S2         -4.3678    1.9231   -1.6556 S.2        1 <1>        0.000
     11 N5         -5.7825    1.1099    0.4063 N.am       1 <1>        0.000
     12 N7         -5.2551   -0.3602    6.3675 N.am       1 <1>        0.000
     13 H          -3.4617   -2.8352    5.2307 H.spc      1 <1>        0.000
     14 H          -3.0477   -2.5657    2.8581 H.spc      1 <1>        0.000
     15 H          -3.3025    0.2383    1.6969 H.spc      1 <1>        0.000
     16 H          -4.0584   -0.8874   -1.4433 H.spc      1 <1>        0.000
     17 H          -6.1463    2.0627    0.4224 H.spc      1 <1>        0.000
     18 H          -6.1043    0.4294    1.0946 H.spc      1 <1>        0.000
     19 H          -5.6893   -0.0446    7.2348 H.spc      1 <1>        0.000
     20 H          -5.3544    0.1934    5.5166 H.spc      1 <1>        0.000
@<TRIPOS>BOND
     1    7    8 1  
     2    5    6 1  
     3    9   11 am 
     4    9   10 2  
     5    8    9 am 
     6    6    7 2  
     7    4    5 2  
     8    1    2 2  
     9    2    3 am 
    10    2   12 am 
    11    3    4 1  
    12    3   13 1  
    13    5   14 1  
    14    6   15 1  
    15    8   16 1  
    16   11   17 1  
    17   11   18 1  
    18   12   19 1  
    19   12   20 1  
# Name:          frag3-274-2/31924 -- energy: -1.735200
# Creation time: Sat Jun  5 12:52:44 2010


@<TRIPOS>MOLECULE
frag3-274-2/31924 -- energy: -1.735200
   20    19     1     1     1
SMALL
USER_CHARGES


@<TRIPOS>ATOM
      1 S1         -5.1404   -2.2249    7.5271 S.2        1 <1>        0.000
      2 C1         -4.6354   -1.3523    6.1415 C.2        1 <1>        0.000
      3 N1         -3.8088   -1.9327    5.2493 N.am       1 <1>        0.000
      4 N2         -3.6968   -1.4460    3.9424 N.2        1 <1>        0.000
      5 C2         -3.3847   -2.1588    2.9306 C.2        1 <1>        0.000
      6 C4         -3.3127   -1.5770    1.5757 C.2        1 <1>        0.000
      7 N3         -4.2329   -0.8135    1.1330 N.2        1 <1>        0.000
      8 N4         -4.2317   -0.2126   -0.1309 N.am       1 <1>        0.000
      9 C5         -4.9082    0.9304   -0.3604 C.2        1 <1>        0.000
     10 S2         -5.2165    1.4290   -1.9690 S.2        1 <1>        0.000
     11 N5         -5.3624    1.6953    0.6424 N.am       1 <1>        0.000
     12 N7         -5.0937   -0.1047    5.9743 N.am       1 <1>        0.000
     13 H          -3.2549   -2.7413    5.5319 H.spc      1 <1>        0.000
     14 H          -3.1671   -3.2178    3.0697 H.spc      1 <1>        0.000
     15 H          -2.4560   -1.8046    0.9413 H.spc      1 <1>        0.000
     16 H          -3.7097   -0.6473   -0.8918 H.spc      1 <1>        0.000
     17 H          -5.8779    2.5513    0.4377 H.spc      1 <1>        0.000
     18 H          -5.1925    1.4213    1.6101 H.spc      1 <1>        0.000
     19 H          -5.7267    0.3026    6.6626 H.spc      1 <1>        0.000
     20 H          -4.8096    0.4380    5.1587 H.spc      1 <1>        0.000
@<TRIPOS>BOND
     1    7    8 1  
     2    5    6 1  
     3    9   11 am 
     4    9   10 2  
     5    8    9 am 
     6    6    7 2  
     7    4    5 2  
     8    1    2 2  
     9    2    3 am 
    10    2   12 am 
    11    3    4 1  
    12    3   13 1  
    13    5   14 1  
    14    6   15 1  
    15    8   16 1  
    16   11   17 1  
    17   11   18 1  
    18   12   19 1  
    19   12   20 1  
# Name:          frag3-274-2/31924 -- energy: -1.755695
# Creation time: Sat Jun  5 12:52:44 2010


@<TRIPOS>MOLECULE
frag3-274-2/31924 -- energy: -1.755695
   20    19     1     1     1
SMALL
USER_CHARGES


@<TRIPOS>ATOM
      1 S1         -4.0423    1.4603   -2.3219 S.2        1 <1>        0.000
      2 C1         -4.5254    0.5473   -0.9586 C.2        1 <1>        0.000
      3 N1         -3.7427    0.5130    0.1404 N.am       1 <1>        0.000
      4 N2         -4.0229   -0.3549    1.2038 N.2        1 <1>        0.000
      5 C2         -4.9566   -0.1599    2.0548 C.2        1 <1>        0.000
      6 C4         -5.2137   -1.1158    3.1489 C.2        1 <1>        0.000
      7 N3         -4.5597   -1.0729    4.2407 N.2        1 <1>        0.000
      8 N4         -4.7409   -1.9543    5.3131 N.am       1 <1>        0.000
      9 C5         -4.0708   -1.7922    6.4705 C.2        1 <1>        0.000
     10 S2         -4.1129   -3.0224    7.6613 S.2        1 <1>        0.000
     11 N5         -3.3519   -0.6893    6.7210 N.am       1 <1>        0.000
     12 N7         -5.6844   -0.1270   -1.0179 N.am       1 <1>        0.000
     13 H          -2.9326    1.1301    0.1977 H.spc      1 <1>        0.000
     14 H          -5.5767    0.7325    1.9703 H.spc      1 <1>        0.000
     15 H          -5.9825   -1.8776    3.0194 H.spc      1 <1>        0.000
     16 H          -5.3921   -2.7334    5.2164 H.spc      1 <1>        0.000
     17 H          -2.8476   -0.5986    7.6030 H.spc      1 <1>        0.000
     18 H          -3.3090    0.0595    6.0297 H.spc      1 <1>        0.000
     19 H          -6.2548   -0.0875   -1.8626 H.spc      1 <1>        0.000
     20 H          -5.9948   -0.6789   -0.2183 H.spc      1 <1>        0.000
@<TRIPOS>BOND
     1    7    8 1  
     2    5    6 1  
     3    9   11 am 
     4    9   10 2  
     5    8    9 am 
     6    6    7 2  
     7    4    5 2  
     8    1    2 2  
     9    2    3 am 
    10    2   12 am 
    11    3    4 1  
    12    3   13 1  
    13    5   14 1  
    14    6   15 1  
    15    8   16 1  
    16   11   17 1  
    17   11   18 1  
    18   12   19 1  
    19   12   20 1  
# Name:          frag3-274-2/31924 -- energy: -1.946119
# Creation time: Sat Jun  5 12:52:44 2010


@<TRIPOS>MOLECULE
frag3-274-2/31924 -- energy: -1.946119
   20    19     1     1     1
SMALL
USER_CHARGES


@<TRIPOS>ATOM
      1 S1         -4.3286    0.9250   -2.2325 S.2        1 <1>        0.000
      2 C1         -4.2705    0.1571   -0.7067 C.2        1 <1>        0.000
      3 N1         -3.8463    0.8382    0.3770 N.am       1 <1>        0.000
      4 N2         -4.1529    0.4236    1.6639 N.2        1 <1>        0.000
      5 C2         -5.3517    0.3133    2.1063 C.2        1 <1>        0.000
      6 C4         -5.6283   -0.1739    3.4767 C.2        1 <1>        0.000
      7 N3         -4.8336   -0.9762    4.0685 N.2        1 <1>        0.000
      8 N4         -5.0030   -1.4761    5.3479 N.am       1 <1>        0.000
      9 C5         -3.9707   -1.9793    6.0518 C.2        1 <1>        0.000
     10 S2         -4.2661   -2.9296    7.4428 S.2        1 <1>        0.000
     11 N5         -2.7001   -1.7719    5.6891 N.am       1 <1>        0.000
     12 N7         -4.6725   -1.1179   -0.6287 N.am       1 <1>        0.000
     13 H          -3.2854    1.6801    0.2466 H.spc      1 <1>        0.000
     14 H          -6.1856    0.5843    1.4588 H.spc      1 <1>        0.000
     15 H          -6.5299    0.1602    3.9902 H.spc      1 <1>        0.000
     16 H          -5.9323   -1.4632    5.7681 H.spc      1 <1>        0.000
     17 H          -1.9408   -2.1760    6.2373 H.spc      1 <1>        0.000
     18 H          -2.4905   -1.2096    4.8643 H.spc      1 <1>        0.000
     19 H          -5.0006   -1.6012   -1.4648 H.spc      1 <1>        0.000
     20 H          -4.6506   -1.6057    0.2668 H.spc      1 <1>        0.000
@<TRIPOS>BOND
     1    7    8 1  
     2    5    6 1  
     3    9   11 am 
     4    9   10 2  
     5    8    9 am 
     6    6    7 2  
     7    4    5 2  
     8    1    2 2  
     9    2    3 am 
    10    2   12 am 
    11    3    4 1  
    12    3   13 1  
    13    5   14 1  
    14    6   15 1  
    15    8   16 1  
    16   11   17 1  
    17   11   18 1  
    18   12   19 1  
    19   12   20 1  
# Name:          frag3-274-2/31924 -- energy: -1.683379
# Creation time: Sat Jun  5 12:52:44 2010


@<TRIPOS>MOLECULE
frag3-274-2/31924 -- energy: -1.683379
   20    19     1     1     1
SMALL
USER_CHARGES


@<TRIPOS>ATOM
      1 S1         -4.4153   -3.4682    7.1739 S.2        1 <1>        0.000
      2 C1         -4.0142   -1.9804    6.4224 C.2        1 <1>        0.000
      3 N1         -4.9583   -1.3023    5.7371 N.am       1 <1>        0.000
      4 N2         -4.6140   -0.4806    4.6553 N.2        1 <1>        0.000
      5 C2         -5.1166   -0.5922    3.4883 C.2        1 <1>        0.000
      6 C4         -4.7027    0.2861    2.3791 C.2        1 <1>        0.000
      7 N3         -4.5272   -0.1557    1.1982 N.2        1 <1>        0.000
      8 N4         -4.1347    0.6314    0.1052 N.am       1 <1>        0.000
      9 C5         -4.5049    0.3077   -1.1504 C.2        1 <1>        0.000
     10 S2         -4.0441    1.3091   -2.4611 S.2        1 <1>        0.000
     11 N5         -5.2390   -0.7845   -1.4087 N.am       1 <1>        0.000
     12 N7         -2.7532   -1.5383    6.5167 N.am       1 <1>        0.000
     13 H          -5.9371   -1.3891    6.0105 H.spc      1 <1>        0.000
     14 H          -5.8718   -1.3569    3.3065 H.spc      1 <1>        0.000
     15 H          -4.5420    1.3460    2.5761 H.spc      1 <1>        0.000
     16 H          -3.5613    1.4601    0.2625 H.spc      1 <1>        0.000
     17 H          -5.5097   -1.0020   -2.3678 H.spc      1 <1>        0.000
     18 H          -5.5267   -1.3977   -0.6461 H.spc      1 <1>        0.000
     19 H          -2.0583   -2.0838    7.0265 H.spc      1 <1>        0.000
     20 H          -2.4880   -0.6561    6.0787 H.spc      1 <1>        0.000
@<TRIPOS>BOND
     1    7    8 1  
     2    5    6 1  
     3    9   11 am 
     4    9   10 2  
     5    8    9 am 
     6    6    7 2  
     7    4    5 2  
     8    1    2 2  
     9    2    3 am 
    10    2   12 am 
    11    3    4 1  
    12    3   13 1  
    13    5   14 1  
    14    6   15 1  
    15    8   16 1  
    16   11   17 1  
    17   11   18 1  
    18   12   19 1  
    19   12   20 1  
# Name:          frag3-274-2/31924 -- energy: -1.568255
# Creation time: Sat Jun  5 12:52:44 2010


@<TRIPOS>MOLECULE
frag3-274-2/31924 -- energy: -1.568255
   20    19     1     1     1
SMALL
USER_CHARGES


@<TRIPOS>ATOM
      1 S1         -5.3326    0.3771   -2.6095 S.2        1 <1>        0.000
      2 C1         -5.0603    0.5968   -0.9299 C.2        1 <1>        0.000
      3 N1         -4.2740   -0.2830   -0.2706 N.am       1 <1>        0.000
      4 N2         -3.9614   -0.0643    1.1176 N.2        1 <1>        0.000
      5 C2         -3.6264   -1.0056    1.9065 C.2        1 <1>        0.000
      6 C4         -3.3170   -0.7130    3.3179 C.2        1 <1>        0.000
      7 N3         -3.8338   -1.4138    4.2436 N.2        1 <1>        0.000
      8 N4         -3.5742   -1.1838    5.6384 N.am       1 <1>        0.000
      9 C5         -4.4205   -1.6599    6.5776 C.2        1 <1>        0.000
     10 S2         -5.6578   -2.7492    6.0890 S.2        1 <1>        0.000
     11 N5         -4.3283   -1.3109    7.8756 N.am       1 <1>        0.000
     12 N7         -5.6380    1.6417   -0.3000 N.am       1 <1>        0.000
     13 H          -3.9029   -1.1000   -0.7555 H.spc      1 <1>        0.000
     14 H          -3.5682   -2.0297    1.5378 H.spc      1 <1>        0.000
     15 H          -2.6433    0.1065    3.5681 H.spc      1 <1>        0.000
     16 H          -2.7467   -0.6584    5.9206 H.spc      1 <1>        0.000
     17 H          -4.9876   -1.6920    8.5542 H.spc      1 <1>        0.000
     18 H          -3.5992   -0.6656    8.1797 H.spc      1 <1>        0.000
     19 H          -6.2282    2.2891   -0.8223 H.spc      1 <1>        0.000
     20 H          -5.4843    1.7838    0.6983 H.spc      1 <1>        0.000
@<TRIPOS>BOND
     1    7    8 1  
     2    5    6 1  
     3    9   11 am 
     4    9   10 2  
     5    8    9 am 
     6    6    7 2  
     7    4    5 2  
     8    1    2 2  
     9    2    3 am 
    10    2   12 am 
    11    3    4 1  
    12    3   13 1  
    13    5   14 1  
    14    6   15 1  
    15    8   16 1  
    16   11   17 1  
    17   11   18 1  
    18   12   19 1  
    19   12   20 1  
# Name:          frag3-274-2/31924 -- energy: -1.682570
# Creation time: Sat Jun  5 12:52:44 2010


@<TRIPOS>MOLECULE
frag3-274-2/31924 -- energy: -1.682570
   20    19     1     1     1
SMALL
USER_CHARGES


@<TRIPOS>ATOM
      1 S1         -3.9983   -3.2707    7.4176 S.2        1 <1>        0.000
      2 C1         -4.2512   -1.7316    6.7015 C.2        1 <1>        0.000
      3 N1         -4.8994   -1.6547    5.5218 N.am       1 <1>        0.000
      4 N2         -4.3451   -0.9685    4.4300 N.2        1 <1>        0.000
      5 C2         -4.6284   -1.2129    3.2137 C.2        1 <1>        0.000
      6 C4         -4.0056   -0.4658    2.1057 C.2        1 <1>        0.000
      7 N3         -4.4576   -0.5284    0.9188 N.2        1 <1>        0.000
      8 N4         -3.9137    0.1725   -0.1749 N.am       1 <1>        0.000
      9 C5         -4.7040    0.6164   -1.1730 C.2        1 <1>        0.000
     10 S2         -4.0530    1.6389   -2.3833 S.2        1 <1>        0.000
     11 N5         -6.0030    0.2864   -1.2432 N.am       1 <1>        0.000
     12 N7         -3.7649   -0.6494    7.3213 N.am       1 <1>        0.000
     13 H          -5.8097   -2.1036    5.4208 H.spc      1 <1>        0.000
     14 H          -5.3512   -1.9960    2.9848 H.spc      1 <1>        0.000
     15 H          -3.1344    0.1568    2.3094 H.spc      1 <1>        0.000
     16 H          -2.9094    0.3465   -0.2124 H.spc      1 <1>        0.000
     17 H          -6.5793    0.6431   -2.0054 H.spc      1 <1>        0.000
     18 H          -6.4139   -0.3211   -0.5343 H.spc      1 <1>        0.000
     19 H          -3.2566   -0.7502    8.1999 H.spc      1 <1>        0.000
     20 H          -3.9026    0.2760    6.9150 H.spc      1 <1>        0.000
@<TRIPOS>BOND
     1    7    8 1  
     2    5    6 1  
     3    9   11 am 
     4    9   10 2  
     5    8    9 am 
     6    6    7 2  
     7    4    5 2  
     8    1    2 2  
     9    2    3 am 
    10    2   12 am 
    11    3    4 1  
    12    3   13 1  
    13    5   14 1  
    14    6   15 1  
    15    8   16 1  
    16   11   17 1  
    17   11   18 1  
    18   12   19 1  
    19   12   20 1  
# Name:          frag3-274-2/31924 -- energy: -1.665505
# Creation time: Sat Jun  5 12:52:44 2010


@<TRIPOS>MOLECULE
frag3-274-2/31924 -- energy: -1.665505
   20    19     1     1     1
SMALL
USER_CHARGES


@<TRIPOS>ATOM
      1 S1         -2.9460   -2.8329    6.1778 S.2        1 <1>        0.000
      2 C1         -4.2470   -1.8152    6.6553 C.2        1 <1>        0.000
      3 N1         -4.9179   -1.1376    5.6973 N.am       1 <1>        0.000
      4 N2         -4.5935   -1.3264    4.3118 N.2        1 <1>        0.000
      5 C2         -4.7959   -0.4377    3.4251 C.2        1 <1>        0.000
      6 C4         -4.4310   -0.6954    2.0202 C.2        1 <1>        0.000
      7 N3         -4.1498    0.2732    1.2444 N.2        1 <1>        0.000
      8 N4         -3.7842    0.0869   -0.1356 N.am       1 <1>        0.000
      9 C5         -4.6209    0.4971   -1.1141 C.2        1 <1>        0.000
     10 S2         -4.1872    0.2281   -2.7521 S.2        1 <1>        0.000
     11 N5         -5.7903    1.1116   -0.8355 N.am       1 <1>        0.000
     12 N7         -4.5604   -1.7195    7.9613 N.am       1 <1>        0.000
     13 H          -5.6591   -0.4882    5.9605 H.spc      1 <1>        0.000
     14 H          -5.2405    0.5174    3.7046 H.spc      1 <1>        0.000
     15 H          -4.4020   -1.7184    1.6450 H.spc      1 <1>        0.000
     16 H          -2.8957   -0.3537   -0.3741 H.spc      1 <1>        0.000
     17 H          -6.4033    1.4095   -1.5943 H.spc      1 <1>        0.000
     18 H          -6.0608    1.2780    0.1338 H.spc      1 <1>        0.000
     19 H          -4.0284   -2.2470    8.6534 H.spc      1 <1>        0.000
     20 H          -5.3298   -1.1195    8.2585 H.spc      1 <1>        0.000
@<TRIPOS>BOND
     1    7    8 1  
     2    5    6 1  
     3    9   11 am 
     4    9   10 2  
     5    8    9 am 
     6    6    7 2  
     7    4    5 2  
     8    1    2 2  
     9    2    3 am 
    10    2   12 am 
    11    3    4 1  
    12    3   13 1  
    13    5   14 1  
    14    6   15 1  
    15    8   16 1  
    16   11   17 1  
    17   11   18 1  
    18   12   19 1  
    19   12   20 1  
# Name:          frag3-274-2/31924 -- energy: -1.895638
# Creation time: Sat Jun  5 12:52:44 2010


@<TRIPOS>MOLECULE
frag3-274-2/31924 -- energy: -1.895638
   20    19     1     1     1
SMALL
USER_CHARGES


@<TRIPOS>ATOM
      1 S1         -5.0775   -2.0093    7.7933 S.2        1 <1>        0.000
      2 C1         -4.3117   -1.5645    6.3284 C.2        1 <1>        0.000
      3 N1         -4.8049   -2.0064    5.1537 N.am       1 <1>        0.000
      4 N2         -4.4847   -1.3701    3.9532 N.2        1 <1>        0.000
      5 C2         -4.0228   -1.9569    2.9175 C.2        1 <1>        0.000
      6 C4         -3.7126   -1.2017    1.6867 C.2        1 <1>        0.000
      7 N3         -4.1882   -0.0289    1.4962 N.2        1 <1>        0.000
      8 N4         -3.9511    0.7403    0.3541 N.am       1 <1>        0.000
      9 C5         -4.8052    0.7196   -0.6894 C.2        1 <1>        0.000
     10 S2         -4.6139    1.8367   -1.9714 S.2        1 <1>        0.000
     11 N5         -5.8163   -0.1586   -0.7555 N.am       1 <1>        0.000
     12 N7         -3.2355   -0.7680    6.3892 N.am       1 <1>        0.000
     13 H          -5.4218   -2.8186    5.1422 H.spc      1 <1>        0.000
     14 H          -3.8545   -3.0336    2.9421 H.spc      1 <1>        0.000
     15 H          -3.0692   -1.6498    0.9295 H.spc      1 <1>        0.000
     16 H          -3.1181    1.3273    0.3088 H.spc      1 <1>        0.000
     17 H          -6.4481   -0.1496   -1.5562 H.spc      1 <1>        0.000
     18 H          -5.9536   -0.8357   -0.0051 H.spc      1 <1>        0.000
     19 H          -2.8923   -0.4425    7.2929 H.spc      1 <1>        0.000
     20 H          -2.7596   -0.4873    5.5318 H.spc      1 <1>        0.000
@<TRIPOS>BOND
     1    7    8 1  
     2    5    6 1  
     3    9   11 am 
     4    9   10 2  
     5    8    9 am 
     6    6    7 2  
     7    4    5 2  
     8    1    2 2  
     9    2    3 am 
    10    2   12 am 
    11    3    4 1  
    12    3   13 1  
    13    5   14 1  
    14    6   15 1  
    15    8   16 1  
    16   11   17 1  
    17   11   18 1  
    18   12   19 1  
    19   12   20 1  
# Name:          frag3-274-2/31924 -- energy: -1.732090
# Creation time: Sat Jun  5 12:52:44 2010


@<TRIPOS>MOLECULE
frag3-274-2/31924 -- energy: -1.732090
   20    19     1     1     1
SMALL
USER_CHARGES


@<TRIPOS>ATOM
      1 S1         -4.0788   -0.2602    7.0286 S.2        1 <1>        0.000
      2 C1         -4.2447   -1.9168    6.5975 C.2        1 <1>        0.000
      3 N1         -4.2834   -2.2370    5.2851 N.am       1 <1>        0.000
      4 N2         -4.2155   -1.2129    4.2836 N.2        1 <1>        0.000
      5 C2         -4.5626   -1.3993    3.0748 C.2        1 <1>        0.000
      6 C4         -4.4692   -0.2995    2.0976 C.2        1 <1>        0.000
      7 N3         -3.9162   -0.4932    0.9673 N.2        1 <1>        0.000
      8 N4         -3.7993    0.5371   -0.0299 N.am       1 <1>        0.000
      9 C5         -4.7402    0.6524   -0.9927 C.2        1 <1>        0.000
     10 S2         -4.5712    1.8735   -2.1856 S.2        1 <1>        0.000
     11 N5         -5.8093   -0.1703   -1.0411 N.am       1 <1>        0.000
     12 N7         -4.3339   -2.8417    7.5710 N.am       1 <1>        0.000
     13 H          -4.3615   -3.2146    5.0048 H.spc      1 <1>        0.000
     14 H          -4.9306   -2.3758    2.7599 H.spc      1 <1>        0.000
     15 H          -4.8746    0.6820    2.3434 H.spc      1 <1>        0.000
     16 H          -3.0073    1.1796   -0.0101 H.spc      1 <1>        0.000
     17 H          -6.5036   -0.0614   -1.7803 H.spc      1 <1>        0.000
     18 H          -5.9228   -0.9009   -0.3384 H.spc      1 <1>        0.000
     19 H          -4.3028   -2.5565    8.5498 H.spc      1 <1>        0.000
     20 H          -4.4326   -3.8279    7.3300 H.spc      1 <1>        0.000
@<TRIPOS>BOND
     1    7    8 1  
     2    5    6 1  
     3    9   11 am 
     4    9   10 2  
     5    8    9 am 
     6    6    7 2  
     7    4    5 2  
     8    1    2 2  
     9    2    3 am 
    10    2   12 am 
    11    3    4 1  
    12    3   13 1  
    13    5   14 1  
    14    6   15 1  
    15    8   16 1  
    16   11   17 1  
    17   11   18 1  
    18   12   19 1  
    19   12   20 1  
