#      Rotatable Fragment
#      Build by yxyuan
#
# Name:          frag2-023-14043/319335
# Creation time: Sat Jun  5 12:53:16 2010


@<TRIPOS>MOLECULE
frag2-023-14043/319335
    6     5     1     1     1
SMALL
USER_CHARGES


@<TRIPOS>ATOM
      1 C22         0.6639    0.0635    0.0704 C.2        1 <1>        0.000
      2 C23        -0.6646   -0.0637   -0.0707 C.2        1 <1>        0.000
      3 H           1.0700    0.7805    0.7839 H.spc      1 <1>        0.000
      4 H           1.3368   -0.5502   -0.5284 H.spc      1 <1>        0.000
      5 H          -1.3375    0.5500    0.5281 H.spc      1 <1>        0.000
      6 H          -1.0707   -0.7807   -0.7842 H.spc      1 <1>        0.000
@<TRIPOS>BOND
     1    1    2 2  
     2    1    3 1  
     3    1    4 1  
     4    2    5 1  
     5    2    6 1  
# Name:          frag2-023-14043/319335 -- energy: -0.058490
# Creation time: Sat Jun  5 12:53:16 2010


@<TRIPOS>MOLECULE
frag2-023-14043/319335 -- energy: -0.058490
    6     5     1     1     1
SMALL
USER_CHARGES


@<TRIPOS>ATOM
      1 C22         0.6639    0.0635    0.0704 C.2        1 <1>        0.000
      2 C23        -0.6646   -0.0637   -0.0707 C.2        1 <1>        0.000
      3 H           1.0700    0.7805    0.7839 H.spc      1 <1>        0.000
      4 H           1.3368   -0.5502   -0.5284 H.spc      1 <1>        0.000
      5 H          -1.3375    0.5500    0.5281 H.spc      1 <1>        0.000
      6 H          -1.0707   -0.7807   -0.7842 H.spc      1 <1>        0.000
@<TRIPOS>BOND
     1    1    2 2  
     2    1    3 1  
     3    1    4 1  
     4    2    5 1  
     5    2    6 1  
