#      Rotatable Fragment
#      Build by yxyuan
#
# Name:          frag5-505-234/41815
# Creation time: Sat Jun  5 12:52:50 2010


@<TRIPOS>MOLECULE
frag5-505-234/41815
   13    13     1     1     1
SMALL
USER_CHARGES


@<TRIPOS>ATOM
      1 N2         -1.0618   -1.4605    2.2752 N.am       1 <1>        0.000
      2 C15        -0.3746   -2.5935    1.7874 C.3        1 <1>        0.000
      3 C16        -1.0464   -3.8012    2.3490 C.3        1 <1>        0.000
      4 C17        -2.4095   -3.2947    2.7773 C.3        1 <1>        0.000
      5 C18        -2.2361   -1.8118    2.8913 C.2        1 <1>        0.000
      6 O5         -3.0387   -1.0644    3.4208 O.2        1 <1>        0.000
      7 H          -0.7272   -0.5015    2.1813 H.spc      1 <1>        0.000
      8 H           0.6721   -2.5641    2.0900 H.spc      1 <1>        0.000
      9 H          -0.4000   -2.6150    0.6979 H.spc      1 <1>        0.000
     10 H          -0.4882   -4.2376    3.1773 H.spc      1 <1>        0.000
     11 H          -1.1154   -4.6114    1.6231 H.spc      1 <1>        0.000
     12 H          -2.7365   -3.7423    3.7158 H.spc      1 <1>        0.000
     13 H          -3.1888   -3.5624    2.0638 H.spc      1 <1>        0.000
@<TRIPOS>BOND
     1    1    2 1  
     2    1    5 am 
     3    2    3 1  
     4    3    4 1  
     5    4    5 1  
     6    5    6 2  
     7    1    7 1  
     8    2    8 1  
     9    2    9 1  
    10    3   10 1  
    11    3   11 1  
    12    4   12 1  
    13    4   13 1  
# Name:          frag5-505-234/41815 -- energy: -0.818159
# Creation time: Sat Jun  5 12:52:50 2010


@<TRIPOS>MOLECULE
frag5-505-234/41815 -- energy: -0.818159
   13    13     1     1     1
SMALL
USER_CHARGES


@<TRIPOS>ATOM
      1 N2         -1.0618   -1.4605    2.2752 N.am       1 <1>        0.000
      2 C15        -0.3746   -2.5935    1.7874 C.3        1 <1>        0.000
      3 C16        -1.0464   -3.8012    2.3490 C.3        1 <1>        0.000
      4 C17        -2.4095   -3.2947    2.7773 C.3        1 <1>        0.000
      5 C18        -2.2361   -1.8118    2.8913 C.2        1 <1>        0.000
      6 O5         -3.0387   -1.0644    3.4208 O.2        1 <1>        0.000
      7 H          -0.7272   -0.5015    2.1813 H.spc      1 <1>        0.000
      8 H           0.6721   -2.5641    2.0900 H.spc      1 <1>        0.000
      9 H          -0.4000   -2.6150    0.6979 H.spc      1 <1>        0.000
     10 H          -0.4882   -4.2376    3.1773 H.spc      1 <1>        0.000
     11 H          -1.1154   -4.6114    1.6231 H.spc      1 <1>        0.000
     12 H          -2.7365   -3.7423    3.7158 H.spc      1 <1>        0.000
     13 H          -3.1888   -3.5624    2.0638 H.spc      1 <1>        0.000
@<TRIPOS>BOND
     1    1    2 1  
     2    1    5 am 
     3    2    3 1  
     4    3    4 1  
     5    4    5 1  
     6    5    6 2  
     7    1    7 1  
     8    2    8 1  
     9    2    9 1  
    10    3   10 1  
    11    3   11 1  
    12    4   12 1  
    13    4   13 1  
