#      Rotatable Fragment
#      Build by yxyuan
#
# Name:          frag5-593-116/138278
# Creation time: Sat Jun  5 12:53:46 2010


@<TRIPOS>MOLECULE
frag5-593-116/138278
   28    30     1     1     1
SMALL
USER_CHARGES


@<TRIPOS>ATOM
      1 C1         -0.7252    0.1294    0.5857 C.3        1 <1>        0.000
      2 C2          0.6578    0.6936    0.1983 C.ar       1 <1>        0.000
      3 C3         -2.0697    0.8010    0.2665 C.ar       1 <1>        0.000
      4 C5          0.8894    2.0663    0.0351 C.ar       1 <1>        0.000
      5 C6          1.7580   -0.1632    0.0483 C.ar       1 <1>        0.000
      6 C7         -2.3530    2.1542    0.4865 C.ar       1 <1>        0.000
      7 N1         -3.0488   -0.0006   -0.2123 N.ar       1 <1>        0.000
      8 C19        -4.6771    1.7214    0.0116 C.ar       1 <1>        0.000
      9 C10        -0.2198    3.0193   -0.4159 C.3        1 <1>        0.000
     10 C11         2.1694    2.5682    0.2883 C.ar       1 <1>        0.000
     11 C12         3.0601    0.3450    0.1064 C.ar       1 <1>        0.000
     12 Br1         1.5785   -1.9907   -0.2314 Br         1 <1>        0.000
     13 C13        -1.2444    3.1775    0.7319 C.3        1 <1>        0.000
     14 C14        -3.6845    2.5828    0.4648 C.ar       1 <1>        0.000
     15 C15        -4.3226    0.4251   -0.3537 C.ar       1 <1>        0.000
     16 C18         3.2625    1.7023    0.3309 C.ar       1 <1>        0.000
     17 Cl1         4.8678    2.3123    0.6673 Cl         1 <1>        0.000
     18 Br2        -6.4346    2.2878   -0.1107 Br         1 <1>        0.000
     19 H          -0.6969    0.1703    1.6746 H.spc      1 <1>        0.000
     20 H          -0.7766   -0.7865   -0.0031 H.spc      1 <1>        0.000
     21 H          -0.7157    2.6151   -1.2984 H.spc      1 <1>        0.000
     22 H           0.2081    3.9908   -0.6635 H.spc      1 <1>        0.000
     23 H           2.3134    3.6361    0.4524 H.spc      1 <1>        0.000
     24 H           3.9132   -0.3208   -0.0239 H.spc      1 <1>        0.000
     25 H          -0.7699    3.0073    1.6983 H.spc      1 <1>        0.000
     26 H          -1.6505    4.1889    0.7494 H.spc      1 <1>        0.000
     27 H          -3.9423    3.5869    0.8015 H.spc      1 <1>        0.000
     28 H          -5.0778   -0.2500   -0.7562 H.spc      1 <1>        0.000
@<TRIPOS>BOND
     1   15    8 ar 
     2    3    7 ar 
     3   16   17 1  
     4    3    6 ar 
     5   14    8 ar 
     6   11   16 ar 
     7    4    9 1  
     8    8   18 1  
     9    5   12 1  
    10    6   14 ar 
    11    1    2 1  
    12    7   15 ar 
    13    1    3 1  
    14    4   10 ar 
    15    5   11 ar 
    16    6   13 1  
    17   10   16 ar 
    18    9   13 1  
    19    2    5 ar 
    20    2    4 ar 
    21    1   19 1  
    22    1   20 1  
    23    9   21 1  
    24    9   22 1  
    25   10   23 1  
    26   11   24 1  
    27   13   25 1  
    28   13   26 1  
    29   14   27 1  
    30   15   28 1  
# Name:          frag5-593-116/138278 -- energy: -3.349134
# Creation time: Sat Jun  5 12:53:46 2010


@<TRIPOS>MOLECULE
frag5-593-116/138278 -- energy: -3.349134
   28    30     1     1     1
SMALL
USER_CHARGES


@<TRIPOS>ATOM
      1 C1         -0.7252    0.1294    0.5857 C.3        1 <1>        0.000
      2 C2          0.6578    0.6936    0.1983 C.ar       1 <1>        0.000
      3 C3         -2.0697    0.8010    0.2665 C.ar       1 <1>        0.000
      4 C5          0.8894    2.0663    0.0351 C.ar       1 <1>        0.000
      5 C6          1.7580   -0.1632    0.0483 C.ar       1 <1>        0.000
      6 C7         -2.3530    2.1542    0.4865 C.ar       1 <1>        0.000
      7 N1         -3.0488   -0.0006   -0.2123 N.ar       1 <1>        0.000
      8 C19        -4.6771    1.7214    0.0116 C.ar       1 <1>        0.000
      9 C10        -0.2198    3.0193   -0.4159 C.3        1 <1>        0.000
     10 C11         2.1694    2.5682    0.2883 C.ar       1 <1>        0.000
     11 C12         3.0601    0.3450    0.1064 C.ar       1 <1>        0.000
     12 Br1         1.5785   -1.9907   -0.2314 Br         1 <1>        0.000
     13 C13        -1.2444    3.1775    0.7319 C.3        1 <1>        0.000
     14 C14        -3.6845    2.5828    0.4648 C.ar       1 <1>        0.000
     15 C15        -4.3226    0.4251   -0.3537 C.ar       1 <1>        0.000
     16 C18         3.2625    1.7023    0.3309 C.ar       1 <1>        0.000
     17 Cl1         4.8678    2.3123    0.6673 Cl         1 <1>        0.000
     18 Br2        -6.4346    2.2878   -0.1107 Br         1 <1>        0.000
     19 H          -0.6969    0.1703    1.6746 H.spc      1 <1>        0.000
     20 H          -0.7766   -0.7865   -0.0031 H.spc      1 <1>        0.000
     21 H          -0.7157    2.6151   -1.2984 H.spc      1 <1>        0.000
     22 H           0.2081    3.9908   -0.6635 H.spc      1 <1>        0.000
     23 H           2.3134    3.6361    0.4524 H.spc      1 <1>        0.000
     24 H           3.9132   -0.3208   -0.0239 H.spc      1 <1>        0.000
     25 H          -0.7699    3.0073    1.6983 H.spc      1 <1>        0.000
     26 H          -1.6505    4.1889    0.7494 H.spc      1 <1>        0.000
     27 H          -3.9423    3.5869    0.8015 H.spc      1 <1>        0.000
     28 H          -5.0778   -0.2500   -0.7562 H.spc      1 <1>        0.000
@<TRIPOS>BOND
     1   15    8 ar 
     2    3    7 ar 
     3   16   17 1  
     4    3    6 ar 
     5   14    8 ar 
     6   11   16 ar 
     7    4    9 1  
     8    8   18 1  
     9    5   12 1  
    10    6   14 ar 
    11    1    2 1  
    12    7   15 ar 
    13    1    3 1  
    14    4   10 ar 
    15    5   11 ar 
    16    6   13 1  
    17   10   16 ar 
    18    9   13 1  
    19    2    5 ar 
    20    2    4 ar 
    21    1   19 1  
    22    1   20 1  
    23    9   21 1  
    24    9   22 1  
    25   10   23 1  
    26   11   24 1  
    27   13   25 1  
    28   13   26 1  
    29   14   27 1  
    30   15   28 1  
