#      Rotatable Fragment
#      Build by yxyuan
#
# Name:          frag3-187-7/31924
# Creation time: Sat Jun  5 12:52:10 2010


@<TRIPOS>MOLECULE
frag3-187-7/31924
   18    17     1     1     1
SMALL
USER_CHARGES


@<TRIPOS>ATOM
      1 N3          4.3027    0.3052   -0.1912 N.am       1 <1>        0.000
      2 C10         3.1464   -0.0870    0.4626 C.2        1 <1>        0.000
      3 O4          2.0687   -0.1413   -0.1203 O.2        1 <1>        0.000
      4 C11         3.1817   -0.4825    1.8919 C.2        1 <1>        0.000
      5 C12         2.2056   -1.1704    2.5262 C.2        1 <1>        0.000
      6 C13         2.2576   -1.6037    3.8973 C.2        1 <1>        0.000
      7 C14         3.3140   -2.1731    4.5085 C.2        1 <1>        0.000
      8 C15         3.3931   -2.5758    5.8841 C.2        1 <1>        0.000
      9 C16         4.4714   -3.0995    6.4703 C.2        1 <1>        0.000
     10 H           4.2697    0.5568   -1.1791 H.spc      1 <1>        0.000
     11 H           5.1873    0.3425    0.3152 H.spc      1 <1>        0.000
     12 H           4.0586   -0.1978    2.4733 H.spc      1 <1>        0.000
     13 H           1.3103   -1.4156    1.9548 H.spc      1 <1>        0.000
     14 H           1.3590   -1.4576    4.4967 H.spc      1 <1>        0.000
     15 H           4.1991   -2.3458    3.8963 H.spc      1 <1>        0.000
     16 H           2.5023   -2.4434    6.4981 H.spc      1 <1>        0.000
     17 H           5.3851   -3.2503    5.8954 H.spc      1 <1>        0.000
     18 H           4.4385   -3.3765    7.5240 H.spc      1 <1>        0.000
@<TRIPOS>BOND
     1    7    8 1  
     2    8    9 2  
     3    6    7 2  
     4    1    2 am 
     5    2    3 2  
     6    2    4 1  
     7    4    5 2  
     8    5    6 1  
     9    1   10 1  
    10    1   11 1  
    11    4   12 1  
    12    5   13 1  
    13    6   14 1  
    14    7   15 1  
    15    8   16 1  
    16    9   17 1  
    17    9   18 1  
# Name:          frag3-187-7/31924
# Creation time: Sat Jun  5 12:52:10 2010


@<TRIPOS>MOLECULE
frag3-187-7/31924
   18    17     1     1     1
SMALL
USER_CHARGES


@<TRIPOS>ATOM
      1 N3          2.7045   -0.6329   -0.5362 N.am       1 <1>        0.000
      2 C10         3.1142    0.0920    0.5740 C.2        1 <1>        0.000
      3 O4          3.5475    1.2359    0.4616 O.2        1 <1>        0.000
      4 C11         3.0311   -0.4823    1.9394 C.2        1 <1>        0.000
      5 C12         2.4971   -1.6870    2.2297 C.2        1 <1>        0.000
      6 C13         2.4586   -2.2769    3.5440 C.2        1 <1>        0.000
      7 C14         3.3975   -2.1388    4.5000 C.2        1 <1>        0.000
      8 C15         3.3505   -2.6937    5.8263 C.2        1 <1>        0.000
      9 C16         4.2402   -2.4443    6.7906 C.2        1 <1>        0.000
     10 H           2.7604   -0.2170   -1.4659 H.spc      1 <1>        0.000
     11 H           2.3475   -1.5816   -0.4225 H.spc      1 <1>        0.000
     12 H           3.4285    0.1092    2.7642 H.spc      1 <1>        0.000
     13 H           2.0622   -2.2567    1.4085 H.spc      1 <1>        0.000
     14 H           1.5910   -2.8905    3.7865 H.spc      1 <1>        0.000
     15 H           4.2780   -1.5496    4.2438 H.spc      1 <1>        0.000
     16 H           2.5272   -3.3681    6.0619 H.spc      1 <1>        0.000
     17 H           5.0793   -1.7757    6.5983 H.spc      1 <1>        0.000
     18 H           4.1272   -2.9093    7.7699 H.spc      1 <1>        0.000
@<TRIPOS>BOND
     1    7    8 1  
     2    8    9 2  
     3    6    7 2  
     4    1    2 am 
     5    2    3 2  
     6    2    4 1  
     7    4    5 2  
     8    5    6 1  
     9    1   10 1  
    10    1   11 1  
    11    4   12 1  
    12    5   13 1  
    13    6   14 1  
    14    7   15 1  
    15    8   16 1  
    16    9   17 1  
    17    9   18 1  
# Name:          frag3-187-7/31924
# Creation time: Sat Jun  5 12:52:10 2010


@<TRIPOS>MOLECULE
frag3-187-7/31924
   18    17     1     1     1
SMALL
USER_CHARGES


@<TRIPOS>ATOM
      1 N3          3.8076    0.7740   -0.4605 N.am       1 <1>        0.000
      2 C10         3.0586   -0.0870    0.3428 C.2        1 <1>        0.000
      3 O4          1.9724   -0.5126   -0.0293 O.2        1 <1>        0.000
      4 C11         3.5667   -0.5367    1.6633 C.2        1 <1>        0.000
      5 C12         2.8024   -1.0913    2.6285 C.2        1 <1>        0.000
      6 C13         3.2986   -1.5816    3.8921 C.2        1 <1>        0.000
      7 C14         2.5575   -2.0930    4.8917 C.2        1 <1>        0.000
      8 C15         3.0616   -2.6169    6.1369 C.2        1 <1>        0.000
      9 C16         4.2159   -3.2831    6.2639 C.2        1 <1>        0.000
     10 H           3.4521    1.0583   -1.3733 H.spc      1 <1>        0.000
     11 H           4.7105    1.1190   -0.1348 H.spc      1 <1>        0.000
     12 H           4.6299   -0.4105    1.8677 H.spc      1 <1>        0.000
     13 H           1.7322   -1.1749    2.4395 H.spc      1 <1>        0.000
     14 H           4.3758   -1.5329    4.0516 H.spc      1 <1>        0.000
     15 H           1.4773   -2.1131    4.7471 H.spc      1 <1>        0.000
     16 H           2.4632   -2.4601    7.0343 H.spc      1 <1>        0.000
     17 H           4.8422   -3.4599    5.3895 H.spc      1 <1>        0.000
     18 H           4.5294   -3.6487    7.2417 H.spc      1 <1>        0.000
@<TRIPOS>BOND
     1    7    8 1  
     2    8    9 2  
     3    6    7 2  
     4    1    2 am 
     5    2    3 2  
     6    2    4 1  
     7    4    5 2  
     8    5    6 1  
     9    1   10 1  
    10    1   11 1  
    11    4   12 1  
    12    5   13 1  
    13    6   14 1  
    14    7   15 1  
    15    8   16 1  
    16    9   17 1  
    17    9   18 1  
# Name:          frag3-187-7/31924
# Creation time: Sat Jun  5 12:52:10 2010


@<TRIPOS>MOLECULE
frag3-187-7/31924
   18    17     1     1     1
SMALL
USER_CHARGES


@<TRIPOS>ATOM
      1 N3          3.9571    0.3700   -0.3827 N.am       1 <1>        0.000
      2 C10         2.9609   -0.0178    0.4556 C.2        1 <1>        0.000
      3 O4          1.7787    0.0848    0.1659 O.2        1 <1>        0.000
      4 C11         3.4176   -0.5966    1.7174 C.2        1 <1>        0.000
      5 C12         2.6627   -1.4397    2.4287 C.2        1 <1>        0.000
      6 C13         2.9446   -2.1191    3.6454 C.2        1 <1>        0.000
      7 C14         3.5346   -1.6712    4.7588 C.2        1 <1>        0.000
      8 C15         3.8717   -2.3132    5.9805 C.2        1 <1>        0.000
      9 C16         3.2133   -3.3254    6.5599 C.2        1 <1>        0.000
     10 H           3.7307    0.7652   -1.2954 H.spc      1 <1>        0.000
     11 H           4.9314    0.2659   -0.0995 H.spc      1 <1>        0.000
     12 H           4.4068   -0.3320    2.0909 H.spc      1 <1>        0.000
     13 H           1.6759   -1.6374    2.0102 H.spc      1 <1>        0.000
     14 H           2.6326   -3.1631    3.6752 H.spc      1 <1>        0.000
     15 H           3.8079   -0.6167    4.7221 H.spc      1 <1>        0.000
     16 H           4.7565   -1.9443    6.4993 H.spc      1 <1>        0.000
     17 H           2.3210   -3.7364    6.0877 H.spc      1 <1>        0.000
     18 H           3.5698   -3.7382    7.5036 H.spc      1 <1>        0.000
@<TRIPOS>BOND
     1    7    8 1  
     2    8    9 2  
     3    6    7 2  
     4    1    2 am 
     5    2    3 2  
     6    2    4 1  
     7    4    5 2  
     8    5    6 1  
     9    1   10 1  
    10    1   11 1  
    11    4   12 1  
    12    5   13 1  
    13    6   14 1  
    14    7   15 1  
    15    8   16 1  
    16    9   17 1  
    17    9   18 1  
# Name:          frag3-187-7/31924
# Creation time: Sat Jun  5 12:52:10 2010


@<TRIPOS>MOLECULE
frag3-187-7/31924
   18    17     1     1     1
SMALL
USER_CHARGES


@<TRIPOS>ATOM
      1 N3          3.5690    0.8670    0.1390 N.am       1 <1>        0.000
      2 C10         2.8712   -0.2945    0.3942 C.2        1 <1>        0.000
      3 O4          2.0851   -0.7673   -0.4261 O.2        1 <1>        0.000
      4 C11         3.0547   -1.0328    1.6676 C.2        1 <1>        0.000
      5 C12         3.4627   -0.4740    2.8252 C.2        1 <1>        0.000
      6 C13         3.5962   -1.1672    4.0772 C.2        1 <1>        0.000
      7 C14         2.7485   -2.0980    4.5642 C.2        1 <1>        0.000
      8 C15         2.8913   -2.8234    5.7942 C.2        1 <1>        0.000
      9 C16         4.0626   -3.2380    6.2938 C.2        1 <1>        0.000
     10 H           3.4395    1.3555   -0.7470 H.spc      1 <1>        0.000
     11 H           4.2147    1.2377    0.8362 H.spc      1 <1>        0.000
     12 H           2.8450   -2.1024    1.6677 H.spc      1 <1>        0.000
     13 H           3.7108    0.5873    2.8102 H.spc      1 <1>        0.000
     14 H           4.4623   -0.9182    4.6903 H.spc      1 <1>        0.000
     15 H           1.8671   -2.3210    3.9629 H.spc      1 <1>        0.000
     16 H           1.9873   -3.0519    6.3587 H.spc      1 <1>        0.000
     17 H           4.9884   -3.0285    5.7580 H.spc      1 <1>        0.000
     18 H           4.0901   -3.7850    7.2362 H.spc      1 <1>        0.000
@<TRIPOS>BOND
     1    7    8 1  
     2    8    9 2  
     3    6    7 2  
     4    1    2 am 
     5    2    3 2  
     6    2    4 1  
     7    4    5 2  
     8    5    6 1  
     9    1   10 1  
    10    1   11 1  
    11    4   12 1  
    12    5   13 1  
    13    6   14 1  
    14    7   15 1  
    15    8   16 1  
    16    9   17 1  
    17    9   18 1  
# Name:          frag3-187-7/31924
# Creation time: Sat Jun  5 12:52:10 2010


@<TRIPOS>MOLECULE
frag3-187-7/31924
   18    17     1     1     1
SMALL
USER_CHARGES


@<TRIPOS>ATOM
      1 N3          4.0044    0.5136   -0.3627 N.am       1 <1>        0.000
      2 C10         2.8965   -0.0103    0.3008 C.2        1 <1>        0.000
      3 O4          1.9256   -0.4279   -0.3174 O.2        1 <1>        0.000
      4 C11         2.8678   -0.0968    1.7826 C.2        1 <1>        0.000
      5 C12         3.0575   -1.2333    2.4850 C.2        1 <1>        0.000
      6 C13         3.0894   -1.3187    3.9253 C.2        1 <1>        0.000
      7 C14         3.2646   -2.4345    4.6530 C.2        1 <1>        0.000
      8 C15         3.3347   -2.5101    6.0902 C.2        1 <1>        0.000
      9 C16         3.9008   -3.5100    6.7727 C.2        1 <1>        0.000
     10 H           4.0164    0.5543   -1.3818 H.spc      1 <1>        0.000
     11 H           4.8033    0.8564    0.1708 H.spc      1 <1>        0.000
     12 H           2.6807    0.8202    2.3413 H.spc      1 <1>        0.000
     13 H           3.1971   -2.1563    1.9222 H.spc      1 <1>        0.000
     14 H           2.9586   -0.3874    4.4764 H.spc      1 <1>        0.000
     15 H           3.3630   -3.3711    4.1042 H.spc      1 <1>        0.000
     16 H           2.8944   -1.6931    6.6618 H.spc      1 <1>        0.000
     17 H           4.3526   -4.3465    6.2396 H.spc      1 <1>        0.000
     18 H           3.9107   -3.4890    7.8625 H.spc      1 <1>        0.000
@<TRIPOS>BOND
     1    7    8 1  
     2    8    9 2  
     3    6    7 2  
     4    1    2 am 
     5    2    3 2  
     6    2    4 1  
     7    4    5 2  
     8    5    6 1  
     9    1   10 1  
    10    1   11 1  
    11    4   12 1  
    12    5   13 1  
    13    6   14 1  
    14    7   15 1  
    15    8   16 1  
    16    9   17 1  
    17    9   18 1  
# Name:          frag3-187-7/31924
# Creation time: Sat Jun  5 12:52:10 2010


@<TRIPOS>MOLECULE
frag3-187-7/31924
   18    17     1     1     1
SMALL
USER_CHARGES


@<TRIPOS>ATOM
      1 N3          3.9839    0.0146   -0.2443 N.am       1 <1>        0.000
      2 C10         2.7712    0.0253    0.4206 C.2        1 <1>        0.000
      3 O4          1.7226    0.2915   -0.1609 O.2        1 <1>        0.000
      4 C11         2.6957   -0.2889    1.8693 C.2        1 <1>        0.000
      5 C12         3.3552   -1.3015    2.4649 C.2        1 <1>        0.000
      6 C13         3.3380   -1.5952    3.8724 C.2        1 <1>        0.000
      7 C14         3.7761   -2.7154    4.4703 C.2        1 <1>        0.000
      8 C15         3.7877   -2.9841    5.8815 C.2        1 <1>        0.000
      9 C16         2.9110   -2.4743    6.7556 C.2        1 <1>        0.000
     10 H           4.0213    0.2310   -1.2404 H.spc      1 <1>        0.000
     11 H           4.8408   -0.2097    0.2614 H.spc      1 <1>        0.000
     12 H           2.0637    0.3426    2.4937 H.spc      1 <1>        0.000
     13 H           3.9519   -1.9528    1.8262 H.spc      1 <1>        0.000
     14 H           2.9248   -0.8257    4.5246 H.spc      1 <1>        0.000
     15 H           4.1617   -3.4997    3.8190 H.spc      1 <1>        0.000
     16 H           4.5622   -3.6475    6.2664 H.spc      1 <1>        0.000
     17 H           2.1218   -1.8068    6.4096 H.spc      1 <1>        0.000
     18 H           2.9864   -2.7268    7.8133 H.spc      1 <1>        0.000
@<TRIPOS>BOND
     1    7    8 1  
     2    8    9 2  
     3    6    7 2  
     4    1    2 am 
     5    2    3 2  
     6    2    4 1  
     7    4    5 2  
     8    5    6 1  
     9    1   10 1  
    10    1   11 1  
    11    4   12 1  
    12    5   13 1  
    13    6   14 1  
    14    7   15 1  
    15    8   16 1  
    16    9   17 1  
    17    9   18 1  
# Name:          frag3-187-7/31924
# Creation time: Sat Jun  5 12:52:10 2010


@<TRIPOS>MOLECULE
frag3-187-7/31924
   18    17     1     1     1
SMALL
USER_CHARGES


@<TRIPOS>ATOM
      1 N3          4.0221   -0.3785   -0.2446 N.am       1 <1>        0.000
      2 C10         2.9008    0.1012    0.4344 C.2        1 <1>        0.000
      3 O4          2.1687    0.9429   -0.0715 O.2        1 <1>        0.000
      4 C11         2.5478   -0.4065    1.7842 C.2        1 <1>        0.000
      5 C12         2.9749   -1.5821    2.2911 C.2        1 <1>        0.000
      6 C13         2.6841   -2.0572    3.6235 C.2        1 <1>        0.000
      7 C14         3.5781   -2.2242    4.6152 C.2        1 <1>        0.000
      8 C15         3.2814   -2.6603    5.9579 C.2        1 <1>        0.000
      9 C16         4.1834   -2.7635    6.9392 C.2        1 <1>        0.000
     10 H           4.2424   -0.0280   -1.1768 H.spc      1 <1>        0.000
     11 H           4.6211   -1.0795    0.1914 H.spc      1 <1>        0.000
     12 H           1.9008    0.2112    2.4071 H.spc      1 <1>        0.000
     13 H           3.5831   -2.2188    1.6486 H.spc      1 <1>        0.000
     14 H           1.6458   -2.3029    3.8461 H.spc      1 <1>        0.000
     15 H           4.6214   -2.0105    4.3829 H.spc      1 <1>        0.000
     16 H           2.2493   -2.9242    6.1885 H.spc      1 <1>        0.000
     17 H           5.2263   -2.5092    6.7498 H.spc      1 <1>        0.000
     18 H           3.8760   -3.1020    7.9287 H.spc      1 <1>        0.000
@<TRIPOS>BOND
     1    7    8 1  
     2    8    9 2  
     3    6    7 2  
     4    1    2 am 
     5    2    3 2  
     6    2    4 1  
     7    4    5 2  
     8    5    6 1  
     9    1   10 1  
    10    1   11 1  
    11    4   12 1  
    12    5   13 1  
    13    6   14 1  
    14    7   15 1  
    15    8   16 1  
    16    9   17 1  
    17    9   18 1  
# Name:          frag3-187-7/31924
# Creation time: Sat Jun  5 12:52:10 2010


@<TRIPOS>MOLECULE
frag3-187-7/31924
   18    17     1     1     1
SMALL
USER_CHARGES


@<TRIPOS>ATOM
      1 N3          3.8279    0.7785    0.1686 N.am       1 <1>        0.000
      2 C10         2.8591   -0.2045    0.3046 C.2        1 <1>        0.000
      3 O4          1.9530   -0.3264   -0.5163 O.2        1 <1>        0.000
      4 C11         2.8924   -1.1620    1.4386 C.2        1 <1>        0.000
      5 C12         3.1536   -0.8241    2.7163 C.2        1 <1>        0.000
      6 C13         3.1396   -1.7319    3.8345 C.2        1 <1>        0.000
      7 C14         3.5720   -1.4751    5.0812 C.2        1 <1>        0.000
      8 C15         3.5209   -2.3755    6.2027 C.2        1 <1>        0.000
      9 C16         3.4228   -3.7070    6.0991 C.2        1 <1>        0.000
     10 H           3.7972    1.4185   -0.6250 H.spc      1 <1>        0.000
     11 H           4.5712    0.8615    0.8622 H.spc      1 <1>        0.000
     12 H           2.6916   -2.2113    1.2224 H.spc      1 <1>        0.000
     13 H           3.3947    0.2192    2.9201 H.spc      1 <1>        0.000
     14 H           2.7376   -2.7283    3.6512 H.spc      1 <1>        0.000
     15 H           4.0028   -0.4899    5.2599 H.spc      1 <1>        0.000
     16 H           3.5650   -1.9450    7.2031 H.spc      1 <1>        0.000
     17 H           3.3762   -4.1752    5.1159 H.spc      1 <1>        0.000
     18 H           3.3896   -4.3226    6.9980 H.spc      1 <1>        0.000
@<TRIPOS>BOND
     1    7    8 1  
     2    8    9 2  
     3    6    7 2  
     4    1    2 am 
     5    2    3 2  
     6    2    4 1  
     7    4    5 2  
     8    5    6 1  
     9    1   10 1  
    10    1   11 1  
    11    4   12 1  
    12    5   13 1  
    13    6   14 1  
    14    7   15 1  
    15    8   16 1  
    16    9   17 1  
    17    9   18 1  
# Name:          frag3-187-7/31924
# Creation time: Sat Jun  5 12:52:10 2010


@<TRIPOS>MOLECULE
frag3-187-7/31924
   18    17     1     1     1
SMALL
USER_CHARGES


@<TRIPOS>ATOM
      1 N3          3.6529    0.9287   -0.1704 N.am       1 <1>        0.000
      2 C10         3.1316   -0.2384    0.3848 C.2        1 <1>        0.000
      3 O4          2.4968   -1.0347   -0.2974 O.2        1 <1>        0.000
      4 C11         3.3498   -0.5710    1.8149 C.2        1 <1>        0.000
      5 C12         2.3638   -0.7004    2.7290 C.2        1 <1>        0.000
      6 C13         2.5663   -1.0769    4.1079 C.2        1 <1>        0.000
      7 C14         3.1894   -2.1905    4.5381 C.2        1 <1>        0.000
      8 C15         3.4274   -2.5509    5.9132 C.2        1 <1>        0.000
      9 C16         4.1634   -3.5939    6.3093 C.2        1 <1>        0.000
     10 H           3.5087    1.1315   -1.1596 H.spc      1 <1>        0.000
     11 H           4.1787    1.5801    0.4124 H.spc      1 <1>        0.000
     12 H           4.3760   -0.7211    2.1504 H.spc      1 <1>        0.000
     13 H           1.3422   -0.5067    2.4021 H.spc      1 <1>        0.000
     14 H           2.1802   -0.3990    4.8691 H.spc      1 <1>        0.000
     15 H           3.5467   -2.8832    3.7761 H.spc      1 <1>        0.000
     16 H           2.9749   -1.9285    6.6852 H.spc      1 <1>        0.000
     17 H           4.6335   -4.2416    5.5693 H.spc      1 <1>        0.000
     18 H           4.2936   -3.7968    7.3723 H.spc      1 <1>        0.000
@<TRIPOS>BOND
     1    7    8 1  
     2    8    9 2  
     3    6    7 2  
     4    1    2 am 
     5    2    3 2  
     6    2    4 1  
     7    4    5 2  
     8    5    6 1  
     9    1   10 1  
    10    1   11 1  
    11    4   12 1  
    12    5   13 1  
    13    6   14 1  
    14    7   15 1  
    15    8   16 1  
    16    9   17 1  
    17    9   18 1  
# Name:          frag3-187-7/31924
# Creation time: Sat Jun  5 12:52:10 2010


@<TRIPOS>MOLECULE
frag3-187-7/31924
   18    17     1     1     1
SMALL
USER_CHARGES


@<TRIPOS>ATOM
      1 N3          3.9136    0.2252   -0.6397 N.am       1 <1>        0.000
      2 C10         3.0220    0.0495    0.4118 C.2        1 <1>        0.000
      3 O4          1.8217    0.2480    0.2659 O.2        1 <1>        0.000
      4 C11         3.4947   -0.4085    1.7421 C.2        1 <1>        0.000
      5 C12         2.8776   -1.3414    2.4965 C.2        1 <1>        0.000
      6 C13         3.3553   -1.8337    3.7628 C.2        1 <1>        0.000
      7 C14         2.6439   -2.5079    4.6821 C.2        1 <1>        0.000
      8 C15         3.1380   -3.0272    5.9295 C.2        1 <1>        0.000
      9 C16         4.0745   -2.4320    6.6785 C.2        1 <1>        0.000
     10 H           3.5723    0.5246   -1.5531 H.spc      1 <1>        0.000
     11 H           4.9092    0.0548   -0.4980 H.spc      1 <1>        0.000
     12 H           4.4055    0.0409    2.1378 H.spc      1 <1>        0.000
     13 H           1.9432   -1.7554    2.1175 H.spc      1 <1>        0.000
     14 H           4.4013   -1.6395    3.9999 H.spc      1 <1>        0.000
     15 H           1.5901   -2.6778    4.4613 H.spc      1 <1>        0.000
     16 H           2.7219   -3.9684    6.2889 H.spc      1 <1>        0.000
     17 H           4.5149   -1.4895    6.3531 H.spc      1 <1>        0.000
     18 H           4.3966   -2.8899    7.6137 H.spc      1 <1>        0.000
@<TRIPOS>BOND
     1    7    8 1  
     2    8    9 2  
     3    6    7 2  
     4    1    2 am 
     5    2    3 2  
     6    2    4 1  
     7    4    5 2  
     8    5    6 1  
     9    1   10 1  
    10    1   11 1  
    11    4   12 1  
    12    5   13 1  
    13    6   14 1  
    14    7   15 1  
    15    8   16 1  
    16    9   17 1  
    17    9   18 1  
# Name:          frag3-187-7/31924
# Creation time: Sat Jun  5 12:52:10 2010


@<TRIPOS>MOLECULE
frag3-187-7/31924
   18    17     1     1     1
SMALL
USER_CHARGES


@<TRIPOS>ATOM
      1 N3          4.0439    0.3367   -0.3711 N.am       1 <1>        0.000
      2 C10         3.0240   -0.0523    0.4419 C.2        1 <1>        0.000
      3 O4          1.8704   -0.0944    0.0530 O.2        1 <1>        0.000
      4 C11         3.3490   -0.4537    1.8215 C.2        1 <1>        0.000
      5 C12         2.5009   -1.0955    2.6450 C.2        1 <1>        0.000
      6 C13         2.7727   -1.5479    3.9675 C.2        1 <1>        0.000
      7 C14         3.5575   -2.5596    4.3462 C.2        1 <1>        0.000
      8 C15         3.8874   -3.0144    5.6549 C.2        1 <1>        0.000
      9 C16         3.3355   -2.5470    6.7706 C.2        1 <1>        0.000
     10 H           3.8528    0.6038   -1.3368 H.spc      1 <1>        0.000
     11 H           4.9993    0.3611   -0.0147 H.spc      1 <1>        0.000
     12 H           4.3428   -0.2147    2.2002 H.spc      1 <1>        0.000
     13 H           1.5001   -1.2897    2.2593 H.spc      1 <1>        0.000
     14 H           2.2788   -1.0004    4.7703 H.spc      1 <1>        0.000
     15 H           4.0142   -3.1217    3.5316 H.spc      1 <1>        0.000
     16 H           4.6411   -3.7963    5.7479 H.spc      1 <1>        0.000
     17 H           2.5781   -1.7649    6.7178 H.spc      1 <1>        0.000
     18 H           3.6405   -2.9459    7.7381 H.spc      1 <1>        0.000
@<TRIPOS>BOND
     1    7    8 1  
     2    8    9 2  
     3    6    7 2  
     4    1    2 am 
     5    2    3 2  
     6    2    4 1  
     7    4    5 2  
     8    5    6 1  
     9    1   10 1  
    10    1   11 1  
    11    4   12 1  
    12    5   13 1  
    13    6   14 1  
    14    7   15 1  
    15    8   16 1  
    16    9   17 1  
    17    9   18 1  
# Name:          frag3-187-7/31924
# Creation time: Sat Jun  5 12:52:10 2010


@<TRIPOS>MOLECULE
frag3-187-7/31924
   18    17     1     1     1
SMALL
USER_CHARGES


@<TRIPOS>ATOM
      1 N3          4.1290    0.4654    0.0524 N.am       1 <1>        0.000
      2 C10         2.9266   -0.1699    0.3369 C.2        1 <1>        0.000
      3 O4          1.9550   -0.0517   -0.4045 O.2        1 <1>        0.000
      4 C11         2.7788   -1.0349    1.5342 C.2        1 <1>        0.000
      5 C12         2.8881   -0.6028    2.8067 C.2        1 <1>        0.000
      6 C13         2.6986   -1.4237    3.9777 C.2        1 <1>        0.000
      7 C14         3.5860   -2.2949    4.4894 C.2        1 <1>        0.000
      8 C15         3.4087   -3.0911    5.6763 C.2        1 <1>        0.000
      9 C16         3.9704   -2.8245    6.8602 C.2        1 <1>        0.000
     10 H           4.2156    1.0420   -0.7845 H.spc      1 <1>        0.000
     11 H           4.9251    0.3552    0.6804 H.spc      1 <1>        0.000
     12 H           2.5674   -2.0921    1.3736 H.spc      1 <1>        0.000
     13 H           3.1387    0.4465    2.9625 H.spc      1 <1>        0.000
     14 H           1.7451   -1.3287    4.4973 H.spc      1 <1>        0.000
     15 H           4.5291   -2.4093    3.9551 H.spc      1 <1>        0.000
     16 H           2.7720   -3.9729    5.6046 H.spc      1 <1>        0.000
     17 H           4.6139   -1.9521    6.9740 H.spc      1 <1>        0.000
     18 H           3.7847   -3.4796    7.7114 H.spc      1 <1>        0.000
@<TRIPOS>BOND
     1    7    8 1  
     2    8    9 2  
     3    6    7 2  
     4    1    2 am 
     5    2    3 2  
     6    2    4 1  
     7    4    5 2  
     8    5    6 1  
     9    1   10 1  
    10    1   11 1  
    11    4   12 1  
    12    5   13 1  
    13    6   14 1  
    14    7   15 1  
    15    8   16 1  
    16    9   17 1  
    17    9   18 1  
# Name:          frag3-187-7/31924 -- energy: -1.395223
# Creation time: Sat Jun  5 12:52:10 2010


@<TRIPOS>MOLECULE
frag3-187-7/31924 -- energy: -1.395223
   18    17     1     1     1
SMALL
USER_CHARGES


@<TRIPOS>ATOM
      1 N3          4.3027    0.3052   -0.1912 N.am       1 <1>        0.000
      2 C10         3.1464   -0.0870    0.4626 C.2        1 <1>        0.000
      3 O4          2.0687   -0.1413   -0.1203 O.2        1 <1>        0.000
      4 C11         3.1817   -0.4825    1.8919 C.2        1 <1>        0.000
      5 C12         2.2056   -1.1704    2.5262 C.2        1 <1>        0.000
      6 C13         2.2576   -1.6037    3.8973 C.2        1 <1>        0.000
      7 C14         3.3140   -2.1731    4.5085 C.2        1 <1>        0.000
      8 C15         3.3931   -2.5758    5.8841 C.2        1 <1>        0.000
      9 C16         4.4714   -3.0995    6.4703 C.2        1 <1>        0.000
     10 H           4.2697    0.5568   -1.1791 H.spc      1 <1>        0.000
     11 H           5.1873    0.3425    0.3152 H.spc      1 <1>        0.000
     12 H           4.0586   -0.1978    2.4733 H.spc      1 <1>        0.000
     13 H           1.3103   -1.4156    1.9548 H.spc      1 <1>        0.000
     14 H           1.3590   -1.4576    4.4967 H.spc      1 <1>        0.000
     15 H           4.1991   -2.3458    3.8963 H.spc      1 <1>        0.000
     16 H           2.5023   -2.4434    6.4981 H.spc      1 <1>        0.000
     17 H           5.3851   -3.2503    5.8954 H.spc      1 <1>        0.000
     18 H           4.4385   -3.3765    7.5240 H.spc      1 <1>        0.000
@<TRIPOS>BOND
     1    7    8 1  
     2    8    9 2  
     3    6    7 2  
     4    1    2 am 
     5    2    3 2  
     6    2    4 1  
     7    4    5 2  
     8    5    6 1  
     9    1   10 1  
    10    1   11 1  
    11    4   12 1  
    12    5   13 1  
    13    6   14 1  
    14    7   15 1  
    15    8   16 1  
    16    9   17 1  
    17    9   18 1  
# Name:          frag3-187-7/31924 -- energy: -1.268865
# Creation time: Sat Jun  5 12:52:10 2010


@<TRIPOS>MOLECULE
frag3-187-7/31924 -- energy: -1.268865
   18    17     1     1     1
SMALL
USER_CHARGES


@<TRIPOS>ATOM
      1 N3          2.7045   -0.6329   -0.5362 N.am       1 <1>        0.000
      2 C10         3.1142    0.0920    0.5740 C.2        1 <1>        0.000
      3 O4          3.5475    1.2359    0.4616 O.2        1 <1>        0.000
      4 C11         3.0311   -0.4823    1.9394 C.2        1 <1>        0.000
      5 C12         2.4971   -1.6870    2.2297 C.2        1 <1>        0.000
      6 C13         2.4586   -2.2769    3.5440 C.2        1 <1>        0.000
      7 C14         3.3975   -2.1388    4.5000 C.2        1 <1>        0.000
      8 C15         3.3505   -2.6937    5.8263 C.2        1 <1>        0.000
      9 C16         4.2402   -2.4443    6.7906 C.2        1 <1>        0.000
     10 H           2.7604   -0.2170   -1.4659 H.spc      1 <1>        0.000
     11 H           2.3475   -1.5816   -0.4225 H.spc      1 <1>        0.000
     12 H           3.4285    0.1092    2.7642 H.spc      1 <1>        0.000
     13 H           2.0622   -2.2567    1.4085 H.spc      1 <1>        0.000
     14 H           1.5910   -2.8905    3.7865 H.spc      1 <1>        0.000
     15 H           4.2780   -1.5496    4.2438 H.spc      1 <1>        0.000
     16 H           2.5272   -3.3681    6.0619 H.spc      1 <1>        0.000
     17 H           5.0793   -1.7757    6.5983 H.spc      1 <1>        0.000
     18 H           4.1272   -2.9093    7.7699 H.spc      1 <1>        0.000
@<TRIPOS>BOND
     1    7    8 1  
     2    8    9 2  
     3    6    7 2  
     4    1    2 am 
     5    2    3 2  
     6    2    4 1  
     7    4    5 2  
     8    5    6 1  
     9    1   10 1  
    10    1   11 1  
    11    4   12 1  
    12    5   13 1  
    13    6   14 1  
    14    7   15 1  
    15    8   16 1  
    16    9   17 1  
    17    9   18 1  
# Name:          frag3-187-7/31924 -- energy: -1.364047
# Creation time: Sat Jun  5 12:52:10 2010


@<TRIPOS>MOLECULE
frag3-187-7/31924 -- energy: -1.364047
   18    17     1     1     1
SMALL
USER_CHARGES


@<TRIPOS>ATOM
      1 N3          3.8076    0.7740   -0.4605 N.am       1 <1>        0.000
      2 C10         3.0586   -0.0870    0.3428 C.2        1 <1>        0.000
      3 O4          1.9724   -0.5126   -0.0293 O.2        1 <1>        0.000
      4 C11         3.5667   -0.5367    1.6633 C.2        1 <1>        0.000
      5 C12         2.8024   -1.0913    2.6285 C.2        1 <1>        0.000
      6 C13         3.2986   -1.5816    3.8921 C.2        1 <1>        0.000
      7 C14         2.5575   -2.0930    4.8917 C.2        1 <1>        0.000
      8 C15         3.0616   -2.6169    6.1369 C.2        1 <1>        0.000
      9 C16         4.2159   -3.2831    6.2639 C.2        1 <1>        0.000
     10 H           3.4521    1.0583   -1.3733 H.spc      1 <1>        0.000
     11 H           4.7105    1.1190   -0.1348 H.spc      1 <1>        0.000
     12 H           4.6299   -0.4105    1.8677 H.spc      1 <1>        0.000
     13 H           1.7322   -1.1749    2.4395 H.spc      1 <1>        0.000
     14 H           4.3758   -1.5329    4.0516 H.spc      1 <1>        0.000
     15 H           1.4773   -2.1131    4.7471 H.spc      1 <1>        0.000
     16 H           2.4632   -2.4601    7.0343 H.spc      1 <1>        0.000
     17 H           4.8422   -3.4599    5.3895 H.spc      1 <1>        0.000
     18 H           4.5294   -3.6487    7.2417 H.spc      1 <1>        0.000
@<TRIPOS>BOND
     1    7    8 1  
     2    8    9 2  
     3    6    7 2  
     4    1    2 am 
     5    2    3 2  
     6    2    4 1  
     7    4    5 2  
     8    5    6 1  
     9    1   10 1  
    10    1   11 1  
    11    4   12 1  
    12    5   13 1  
    13    6   14 1  
    14    7   15 1  
    15    8   16 1  
    16    9   17 1  
    17    9   18 1  
# Name:          frag3-187-7/31924 -- energy: -1.432482
# Creation time: Sat Jun  5 12:52:10 2010


@<TRIPOS>MOLECULE
frag3-187-7/31924 -- energy: -1.432482
   18    17     1     1     1
SMALL
USER_CHARGES


@<TRIPOS>ATOM
      1 N3          3.9571    0.3700   -0.3827 N.am       1 <1>        0.000
      2 C10         2.9609   -0.0178    0.4556 C.2        1 <1>        0.000
      3 O4          1.7787    0.0848    0.1659 O.2        1 <1>        0.000
      4 C11         3.4176   -0.5966    1.7174 C.2        1 <1>        0.000
      5 C12         2.6627   -1.4397    2.4287 C.2        1 <1>        0.000
      6 C13         2.9446   -2.1191    3.6454 C.2        1 <1>        0.000
      7 C14         3.5346   -1.6712    4.7588 C.2        1 <1>        0.000
      8 C15         3.8717   -2.3132    5.9805 C.2        1 <1>        0.000
      9 C16         3.2133   -3.3254    6.5599 C.2        1 <1>        0.000
     10 H           3.7307    0.7652   -1.2954 H.spc      1 <1>        0.000
     11 H           4.9314    0.2659   -0.0995 H.spc      1 <1>        0.000
     12 H           4.4068   -0.3320    2.0909 H.spc      1 <1>        0.000
     13 H           1.6759   -1.6374    2.0102 H.spc      1 <1>        0.000
     14 H           2.6326   -3.1631    3.6752 H.spc      1 <1>        0.000
     15 H           3.8079   -0.6167    4.7221 H.spc      1 <1>        0.000
     16 H           4.7565   -1.9443    6.4993 H.spc      1 <1>        0.000
     17 H           2.3210   -3.7364    6.0877 H.spc      1 <1>        0.000
     18 H           3.5698   -3.7382    7.5036 H.spc      1 <1>        0.000
@<TRIPOS>BOND
     1    7    8 1  
     2    8    9 2  
     3    6    7 2  
     4    1    2 am 
     5    2    3 2  
     6    2    4 1  
     7    4    5 2  
     8    5    6 1  
     9    1   10 1  
    10    1   11 1  
    11    4   12 1  
    12    5   13 1  
    13    6   14 1  
    14    7   15 1  
    15    8   16 1  
    16    9   17 1  
    17    9   18 1  
# Name:          frag3-187-7/31924 -- energy: -1.562055
# Creation time: Sat Jun  5 12:52:10 2010


@<TRIPOS>MOLECULE
frag3-187-7/31924 -- energy: -1.562055
   18    17     1     1     1
SMALL
USER_CHARGES


@<TRIPOS>ATOM
      1 N3          3.5690    0.8670    0.1390 N.am       1 <1>        0.000
      2 C10         2.8712   -0.2945    0.3942 C.2        1 <1>        0.000
      3 O4          2.0851   -0.7673   -0.4261 O.2        1 <1>        0.000
      4 C11         3.0547   -1.0328    1.6676 C.2        1 <1>        0.000
      5 C12         3.4627   -0.4740    2.8252 C.2        1 <1>        0.000
      6 C13         3.5962   -1.1672    4.0772 C.2        1 <1>        0.000
      7 C14         2.7485   -2.0980    4.5642 C.2        1 <1>        0.000
      8 C15         2.8913   -2.8234    5.7942 C.2        1 <1>        0.000
      9 C16         4.0626   -3.2380    6.2938 C.2        1 <1>        0.000
     10 H           3.4395    1.3555   -0.7470 H.spc      1 <1>        0.000
     11 H           4.2147    1.2377    0.8362 H.spc      1 <1>        0.000
     12 H           2.8450   -2.1024    1.6677 H.spc      1 <1>        0.000
     13 H           3.7108    0.5873    2.8102 H.spc      1 <1>        0.000
     14 H           4.4623   -0.9182    4.6903 H.spc      1 <1>        0.000
     15 H           1.8671   -2.3210    3.9629 H.spc      1 <1>        0.000
     16 H           1.9873   -3.0519    6.3587 H.spc      1 <1>        0.000
     17 H           4.9884   -3.0285    5.7580 H.spc      1 <1>        0.000
     18 H           4.0901   -3.7850    7.2362 H.spc      1 <1>        0.000
@<TRIPOS>BOND
     1    7    8 1  
     2    8    9 2  
     3    6    7 2  
     4    1    2 am 
     5    2    3 2  
     6    2    4 1  
     7    4    5 2  
     8    5    6 1  
     9    1   10 1  
    10    1   11 1  
    11    4   12 1  
    12    5   13 1  
    13    6   14 1  
    14    7   15 1  
    15    8   16 1  
    16    9   17 1  
    17    9   18 1  
# Name:          frag3-187-7/31924 -- energy: -1.359555
# Creation time: Sat Jun  5 12:52:10 2010


@<TRIPOS>MOLECULE
frag3-187-7/31924 -- energy: -1.359555
   18    17     1     1     1
SMALL
USER_CHARGES


@<TRIPOS>ATOM
      1 N3          4.0044    0.5136   -0.3627 N.am       1 <1>        0.000
      2 C10         2.8965   -0.0103    0.3008 C.2        1 <1>        0.000
      3 O4          1.9256   -0.4279   -0.3174 O.2        1 <1>        0.000
      4 C11         2.8678   -0.0968    1.7826 C.2        1 <1>        0.000
      5 C12         3.0575   -1.2333    2.4850 C.2        1 <1>        0.000
      6 C13         3.0894   -1.3187    3.9253 C.2        1 <1>        0.000
      7 C14         3.2646   -2.4345    4.6530 C.2        1 <1>        0.000
      8 C15         3.3347   -2.5101    6.0902 C.2        1 <1>        0.000
      9 C16         3.9008   -3.5100    6.7727 C.2        1 <1>        0.000
     10 H           4.0164    0.5543   -1.3818 H.spc      1 <1>        0.000
     11 H           4.8033    0.8564    0.1708 H.spc      1 <1>        0.000
     12 H           2.6807    0.8202    2.3413 H.spc      1 <1>        0.000
     13 H           3.1971   -2.1563    1.9222 H.spc      1 <1>        0.000
     14 H           2.9586   -0.3874    4.4764 H.spc      1 <1>        0.000
     15 H           3.3630   -3.3711    4.1042 H.spc      1 <1>        0.000
     16 H           2.8944   -1.6931    6.6618 H.spc      1 <1>        0.000
     17 H           4.3526   -4.3465    6.2396 H.spc      1 <1>        0.000
     18 H           3.9107   -3.4890    7.8625 H.spc      1 <1>        0.000
@<TRIPOS>BOND
     1    7    8 1  
     2    8    9 2  
     3    6    7 2  
     4    1    2 am 
     5    2    3 2  
     6    2    4 1  
     7    4    5 2  
     8    5    6 1  
     9    1   10 1  
    10    1   11 1  
    11    4   12 1  
    12    5   13 1  
    13    6   14 1  
    14    7   15 1  
    15    8   16 1  
    16    9   17 1  
    17    9   18 1  
# Name:          frag3-187-7/31924 -- energy: -1.503783
# Creation time: Sat Jun  5 12:52:10 2010


@<TRIPOS>MOLECULE
frag3-187-7/31924 -- energy: -1.503783
   18    17     1     1     1
SMALL
USER_CHARGES


@<TRIPOS>ATOM
      1 N3          3.9839    0.0146   -0.2443 N.am       1 <1>        0.000
      2 C10         2.7712    0.0253    0.4206 C.2        1 <1>        0.000
      3 O4          1.7226    0.2915   -0.1609 O.2        1 <1>        0.000
      4 C11         2.6957   -0.2889    1.8693 C.2        1 <1>        0.000
      5 C12         3.3552   -1.3015    2.4649 C.2        1 <1>        0.000
      6 C13         3.3380   -1.5952    3.8724 C.2        1 <1>        0.000
      7 C14         3.7761   -2.7154    4.4703 C.2        1 <1>        0.000
      8 C15         3.7877   -2.9841    5.8815 C.2        1 <1>        0.000
      9 C16         2.9110   -2.4743    6.7556 C.2        1 <1>        0.000
     10 H           4.0213    0.2310   -1.2404 H.spc      1 <1>        0.000
     11 H           4.8408   -0.2097    0.2614 H.spc      1 <1>        0.000
     12 H           2.0637    0.3426    2.4937 H.spc      1 <1>        0.000
     13 H           3.9519   -1.9528    1.8262 H.spc      1 <1>        0.000
     14 H           2.9248   -0.8257    4.5246 H.spc      1 <1>        0.000
     15 H           4.1617   -3.4997    3.8190 H.spc      1 <1>        0.000
     16 H           4.5622   -3.6475    6.2664 H.spc      1 <1>        0.000
     17 H           2.1218   -1.8068    6.4096 H.spc      1 <1>        0.000
     18 H           2.9864   -2.7268    7.8133 H.spc      1 <1>        0.000
@<TRIPOS>BOND
     1    7    8 1  
     2    8    9 2  
     3    6    7 2  
     4    1    2 am 
     5    2    3 2  
     6    2    4 1  
     7    4    5 2  
     8    5    6 1  
     9    1   10 1  
    10    1   11 1  
    11    4   12 1  
    12    5   13 1  
    13    6   14 1  
    14    7   15 1  
    15    8   16 1  
    16    9   17 1  
    17    9   18 1  
# Name:          frag3-187-7/31924 -- energy: -1.377821
# Creation time: Sat Jun  5 12:52:10 2010


@<TRIPOS>MOLECULE
frag3-187-7/31924 -- energy: -1.377821
   18    17     1     1     1
SMALL
USER_CHARGES


@<TRIPOS>ATOM
      1 N3          4.0221   -0.3785   -0.2446 N.am       1 <1>        0.000
      2 C10         2.9008    0.1012    0.4344 C.2        1 <1>        0.000
      3 O4          2.1687    0.9429   -0.0715 O.2        1 <1>        0.000
      4 C11         2.5478   -0.4065    1.7842 C.2        1 <1>        0.000
      5 C12         2.9749   -1.5821    2.2911 C.2        1 <1>        0.000
      6 C13         2.6841   -2.0572    3.6235 C.2        1 <1>        0.000
      7 C14         3.5781   -2.2242    4.6152 C.2        1 <1>        0.000
      8 C15         3.2814   -2.6603    5.9579 C.2        1 <1>        0.000
      9 C16         4.1834   -2.7635    6.9392 C.2        1 <1>        0.000
     10 H           4.2424   -0.0280   -1.1768 H.spc      1 <1>        0.000
     11 H           4.6211   -1.0795    0.1914 H.spc      1 <1>        0.000
     12 H           1.9008    0.2112    2.4071 H.spc      1 <1>        0.000
     13 H           3.5831   -2.2188    1.6486 H.spc      1 <1>        0.000
     14 H           1.6458   -2.3029    3.8461 H.spc      1 <1>        0.000
     15 H           4.6214   -2.0105    4.3829 H.spc      1 <1>        0.000
     16 H           2.2493   -2.9242    6.1885 H.spc      1 <1>        0.000
     17 H           5.2263   -2.5092    6.7498 H.spc      1 <1>        0.000
     18 H           3.8760   -3.1020    7.9287 H.spc      1 <1>        0.000
@<TRIPOS>BOND
     1    7    8 1  
     2    8    9 2  
     3    6    7 2  
     4    1    2 am 
     5    2    3 2  
     6    2    4 1  
     7    4    5 2  
     8    5    6 1  
     9    1   10 1  
    10    1   11 1  
    11    4   12 1  
    12    5   13 1  
    13    6   14 1  
    14    7   15 1  
    15    8   16 1  
    16    9   17 1  
    17    9   18 1  
# Name:          frag3-187-7/31924 -- energy: -1.455325
# Creation time: Sat Jun  5 12:52:10 2010


@<TRIPOS>MOLECULE
frag3-187-7/31924 -- energy: -1.455325
   18    17     1     1     1
SMALL
USER_CHARGES


@<TRIPOS>ATOM
      1 N3          3.8279    0.7785    0.1686 N.am       1 <1>        0.000
      2 C10         2.8591   -0.2045    0.3046 C.2        1 <1>        0.000
      3 O4          1.9530   -0.3264   -0.5163 O.2        1 <1>        0.000
      4 C11         2.8924   -1.1620    1.4386 C.2        1 <1>        0.000
      5 C12         3.1536   -0.8241    2.7163 C.2        1 <1>        0.000
      6 C13         3.1396   -1.7319    3.8345 C.2        1 <1>        0.000
      7 C14         3.5720   -1.4751    5.0812 C.2        1 <1>        0.000
      8 C15         3.5209   -2.3755    6.2027 C.2        1 <1>        0.000
      9 C16         3.4228   -3.7070    6.0991 C.2        1 <1>        0.000
     10 H           3.7972    1.4185   -0.6250 H.spc      1 <1>        0.000
     11 H           4.5712    0.8615    0.8622 H.spc      1 <1>        0.000
     12 H           2.6916   -2.2113    1.2224 H.spc      1 <1>        0.000
     13 H           3.3947    0.2192    2.9201 H.spc      1 <1>        0.000
     14 H           2.7376   -2.7283    3.6512 H.spc      1 <1>        0.000
     15 H           4.0028   -0.4899    5.2599 H.spc      1 <1>        0.000
     16 H           3.5650   -1.9450    7.2031 H.spc      1 <1>        0.000
     17 H           3.3762   -4.1752    5.1159 H.spc      1 <1>        0.000
     18 H           3.3896   -4.3226    6.9980 H.spc      1 <1>        0.000
@<TRIPOS>BOND
     1    7    8 1  
     2    8    9 2  
     3    6    7 2  
     4    1    2 am 
     5    2    3 2  
     6    2    4 1  
     7    4    5 2  
     8    5    6 1  
     9    1   10 1  
    10    1   11 1  
    11    4   12 1  
    12    5   13 1  
    13    6   14 1  
    14    7   15 1  
    15    8   16 1  
    16    9   17 1  
    17    9   18 1  
# Name:          frag3-187-7/31924 -- energy: -1.452876
# Creation time: Sat Jun  5 12:52:10 2010


@<TRIPOS>MOLECULE
frag3-187-7/31924 -- energy: -1.452876
   18    17     1     1     1
SMALL
USER_CHARGES


@<TRIPOS>ATOM
      1 N3          3.6529    0.9287   -0.1704 N.am       1 <1>        0.000
      2 C10         3.1316   -0.2384    0.3848 C.2        1 <1>        0.000
      3 O4          2.4968   -1.0347   -0.2974 O.2        1 <1>        0.000
      4 C11         3.3498   -0.5710    1.8149 C.2        1 <1>        0.000
      5 C12         2.3638   -0.7004    2.7290 C.2        1 <1>        0.000
      6 C13         2.5663   -1.0769    4.1079 C.2        1 <1>        0.000
      7 C14         3.1894   -2.1905    4.5381 C.2        1 <1>        0.000
      8 C15         3.4274   -2.5509    5.9132 C.2        1 <1>        0.000
      9 C16         4.1634   -3.5939    6.3093 C.2        1 <1>        0.000
     10 H           3.5087    1.1315   -1.1596 H.spc      1 <1>        0.000
     11 H           4.1787    1.5801    0.4124 H.spc      1 <1>        0.000
     12 H           4.3760   -0.7211    2.1504 H.spc      1 <1>        0.000
     13 H           1.3422   -0.5067    2.4021 H.spc      1 <1>        0.000
     14 H           2.1802   -0.3990    4.8691 H.spc      1 <1>        0.000
     15 H           3.5467   -2.8832    3.7761 H.spc      1 <1>        0.000
     16 H           2.9749   -1.9285    6.6852 H.spc      1 <1>        0.000
     17 H           4.6335   -4.2416    5.5693 H.spc      1 <1>        0.000
     18 H           4.2936   -3.7968    7.3723 H.spc      1 <1>        0.000
@<TRIPOS>BOND
     1    7    8 1  
     2    8    9 2  
     3    6    7 2  
     4    1    2 am 
     5    2    3 2  
     6    2    4 1  
     7    4    5 2  
     8    5    6 1  
     9    1   10 1  
    10    1   11 1  
    11    4   12 1  
    12    5   13 1  
    13    6   14 1  
    14    7   15 1  
    15    8   16 1  
    16    9   17 1  
    17    9   18 1  
# Name:          frag3-187-7/31924 -- energy: -1.419483
# Creation time: Sat Jun  5 12:52:10 2010


@<TRIPOS>MOLECULE
frag3-187-7/31924 -- energy: -1.419483
   18    17     1     1     1
SMALL
USER_CHARGES


@<TRIPOS>ATOM
      1 N3          3.9136    0.2252   -0.6397 N.am       1 <1>        0.000
      2 C10         3.0220    0.0495    0.4118 C.2        1 <1>        0.000
      3 O4          1.8217    0.2480    0.2659 O.2        1 <1>        0.000
      4 C11         3.4947   -0.4085    1.7421 C.2        1 <1>        0.000
      5 C12         2.8776   -1.3414    2.4965 C.2        1 <1>        0.000
      6 C13         3.3553   -1.8337    3.7628 C.2        1 <1>        0.000
      7 C14         2.6439   -2.5079    4.6821 C.2        1 <1>        0.000
      8 C15         3.1380   -3.0272    5.9295 C.2        1 <1>        0.000
      9 C16         4.0745   -2.4320    6.6785 C.2        1 <1>        0.000
     10 H           3.5723    0.5246   -1.5531 H.spc      1 <1>        0.000
     11 H           4.9092    0.0548   -0.4980 H.spc      1 <1>        0.000
     12 H           4.4055    0.0409    2.1378 H.spc      1 <1>        0.000
     13 H           1.9432   -1.7554    2.1175 H.spc      1 <1>        0.000
     14 H           4.4013   -1.6395    3.9999 H.spc      1 <1>        0.000
     15 H           1.5901   -2.6778    4.4613 H.spc      1 <1>        0.000
     16 H           2.7219   -3.9684    6.2889 H.spc      1 <1>        0.000
     17 H           4.5149   -1.4895    6.3531 H.spc      1 <1>        0.000
     18 H           4.3966   -2.8899    7.6137 H.spc      1 <1>        0.000
@<TRIPOS>BOND
     1    7    8 1  
     2    8    9 2  
     3    6    7 2  
     4    1    2 am 
     5    2    3 2  
     6    2    4 1  
     7    4    5 2  
     8    5    6 1  
     9    1   10 1  
    10    1   11 1  
    11    4   12 1  
    12    5   13 1  
    13    6   14 1  
    14    7   15 1  
    15    8   16 1  
    16    9   17 1  
    17    9   18 1  
# Name:          frag3-187-7/31924 -- energy: -1.331083
# Creation time: Sat Jun  5 12:52:10 2010


@<TRIPOS>MOLECULE
frag3-187-7/31924 -- energy: -1.331083
   18    17     1     1     1
SMALL
USER_CHARGES


@<TRIPOS>ATOM
      1 N3          4.0439    0.3367   -0.3711 N.am       1 <1>        0.000
      2 C10         3.0240   -0.0523    0.4419 C.2        1 <1>        0.000
      3 O4          1.8704   -0.0944    0.0530 O.2        1 <1>        0.000
      4 C11         3.3490   -0.4537    1.8215 C.2        1 <1>        0.000
      5 C12         2.5009   -1.0955    2.6450 C.2        1 <1>        0.000
      6 C13         2.7727   -1.5479    3.9675 C.2        1 <1>        0.000
      7 C14         3.5575   -2.5596    4.3462 C.2        1 <1>        0.000
      8 C15         3.8874   -3.0144    5.6549 C.2        1 <1>        0.000
      9 C16         3.3355   -2.5470    6.7706 C.2        1 <1>        0.000
     10 H           3.8528    0.6038   -1.3368 H.spc      1 <1>        0.000
     11 H           4.9993    0.3611   -0.0147 H.spc      1 <1>        0.000
     12 H           4.3428   -0.2147    2.2002 H.spc      1 <1>        0.000
     13 H           1.5001   -1.2897    2.2593 H.spc      1 <1>        0.000
     14 H           2.2788   -1.0004    4.7703 H.spc      1 <1>        0.000
     15 H           4.0142   -3.1217    3.5316 H.spc      1 <1>        0.000
     16 H           4.6411   -3.7963    5.7479 H.spc      1 <1>        0.000
     17 H           2.5781   -1.7649    6.7178 H.spc      1 <1>        0.000
     18 H           3.6405   -2.9459    7.7381 H.spc      1 <1>        0.000
@<TRIPOS>BOND
     1    7    8 1  
     2    8    9 2  
     3    6    7 2  
     4    1    2 am 
     5    2    3 2  
     6    2    4 1  
     7    4    5 2  
     8    5    6 1  
     9    1   10 1  
    10    1   11 1  
    11    4   12 1  
    12    5   13 1  
    13    6   14 1  
    14    7   15 1  
    15    8   16 1  
    16    9   17 1  
    17    9   18 1  
# Name:          frag3-187-7/31924 -- energy: -1.492253
# Creation time: Sat Jun  5 12:52:10 2010


@<TRIPOS>MOLECULE
frag3-187-7/31924 -- energy: -1.492253
   18    17     1     1     1
SMALL
USER_CHARGES


@<TRIPOS>ATOM
      1 N3          4.1290    0.4654    0.0524 N.am       1 <1>        0.000
      2 C10         2.9266   -0.1699    0.3369 C.2        1 <1>        0.000
      3 O4          1.9550   -0.0517   -0.4045 O.2        1 <1>        0.000
      4 C11         2.7788   -1.0349    1.5342 C.2        1 <1>        0.000
      5 C12         2.8881   -0.6028    2.8067 C.2        1 <1>        0.000
      6 C13         2.6986   -1.4237    3.9777 C.2        1 <1>        0.000
      7 C14         3.5860   -2.2949    4.4894 C.2        1 <1>        0.000
      8 C15         3.4087   -3.0911    5.6763 C.2        1 <1>        0.000
      9 C16         3.9704   -2.8245    6.8602 C.2        1 <1>        0.000
     10 H           4.2156    1.0420   -0.7845 H.spc      1 <1>        0.000
     11 H           4.9251    0.3552    0.6804 H.spc      1 <1>        0.000
     12 H           2.5674   -2.0921    1.3736 H.spc      1 <1>        0.000
     13 H           3.1387    0.4465    2.9625 H.spc      1 <1>        0.000
     14 H           1.7451   -1.3287    4.4973 H.spc      1 <1>        0.000
     15 H           4.5291   -2.4093    3.9551 H.spc      1 <1>        0.000
     16 H           2.7720   -3.9729    5.6046 H.spc      1 <1>        0.000
     17 H           4.6139   -1.9521    6.9740 H.spc      1 <1>        0.000
     18 H           3.7847   -3.4796    7.7114 H.spc      1 <1>        0.000
@<TRIPOS>BOND
     1    7    8 1  
     2    8    9 2  
     3    6    7 2  
     4    1    2 am 
     5    2    3 2  
     6    2    4 1  
     7    4    5 2  
     8    5    6 1  
     9    1   10 1  
    10    1   11 1  
    11    4   12 1  
    12    5   13 1  
    13    6   14 1  
    14    7   15 1  
    15    8   16 1  
    16    9   17 1  
    17    9   18 1  
