#      Rotatable Fragment
#      Build by yxyuan
#
# Name:          frag5-537-79/41815
# Creation time: Sat Jun  5 12:52:52 2010


@<TRIPOS>MOLECULE
frag5-537-79/41815
   13    14     1     1     1
SMALL
USER_CHARGES


@<TRIPOS>ATOM
      1 N1         -1.2917   -1.0203    0.0750 N.ar       1 <1>        0.000
      2 C1         -1.5705    0.2000   -0.0079 C.ar       1 <1>        0.000
      3 N2         -0.4872    0.9996   -0.1086 N.ar       1 <1>        0.000
      4 C2          0.8183    0.5018   -0.0759 C.ar       1 <1>        0.000
      5 N3          2.1033    1.0119   -0.1378 N.ar       1 <1>        0.000
      6 C3          2.9669   -0.1280   -0.0308 C.ar       1 <1>        0.000
      7 N4          2.2893   -1.2167    0.0617 N.ar       1 <1>        0.000
      8 C4          0.9446   -0.9337    0.0499 C.ar       1 <1>        0.000
      9 C5         -0.1132   -1.6811    0.1166 C.ar       1 <1>        0.000
     10 O1         -0.1467   -2.8493    0.2285 O.2        1 <1>        0.000
     11 N5         -2.6845    0.7443    0.0389 N.2        1 <1>        0.000
     12 H           4.0557   -0.0779   -0.0282 H.spc      1 <1>        0.000
     13 H          -3.5242    0.1779    0.1594 H.spc      1 <1>        0.000
@<TRIPOS>BOND
     1    8    9 ar 
     2    9   10 2  
     3    7    8 ar 
     4    6    7 ar 
     5    1    2 ar 
     6    1    9 ar 
     7    2    3 ar 
     8    2   11 2  
     9    3    4 ar 
    10    4    5 ar 
    11    4    8 ar 
    12    5    6 ar 
    13    6   12 1  
    14   11   13 1  
# Name:          frag5-537-79/41815 -- energy: -0.233657
# Creation time: Sat Jun  5 12:52:52 2010


@<TRIPOS>MOLECULE
frag5-537-79/41815 -- energy: -0.233657
   13    14     1     1     1
SMALL
USER_CHARGES


@<TRIPOS>ATOM
      1 N1         -1.2917   -1.0203    0.0750 N.ar       1 <1>        0.000
      2 C1         -1.5705    0.2000   -0.0079 C.ar       1 <1>        0.000
      3 N2         -0.4872    0.9996   -0.1086 N.ar       1 <1>        0.000
      4 C2          0.8183    0.5018   -0.0759 C.ar       1 <1>        0.000
      5 N3          2.1033    1.0119   -0.1378 N.ar       1 <1>        0.000
      6 C3          2.9669   -0.1280   -0.0308 C.ar       1 <1>        0.000
      7 N4          2.2893   -1.2167    0.0617 N.ar       1 <1>        0.000
      8 C4          0.9446   -0.9337    0.0499 C.ar       1 <1>        0.000
      9 C5         -0.1132   -1.6811    0.1166 C.ar       1 <1>        0.000
     10 O1         -0.1467   -2.8493    0.2285 O.2        1 <1>        0.000
     11 N5         -2.6845    0.7443    0.0389 N.2        1 <1>        0.000
     12 H           4.0557   -0.0779   -0.0282 H.spc      1 <1>        0.000
     13 H          -3.5242    0.1779    0.1594 H.spc      1 <1>        0.000
@<TRIPOS>BOND
     1    8    9 ar 
     2    9   10 2  
     3    7    8 ar 
     4    6    7 ar 
     5    1    2 ar 
     6    1    9 ar 
     7    2    3 ar 
     8    2   11 2  
     9    3    4 ar 
    10    4    5 ar 
    11    4    8 ar 
    12    5    6 ar 
    13    6   12 1  
    14   11   13 1  
