#      Rotatable Fragment
#      Build by yxyuan
#
# Name:          frag3-170-9/31924
# Creation time: Sat Jun  5 12:52:06 2010


@<TRIPOS>MOLECULE
frag3-170-9/31924
    6     5     1     1     1
SMALL
USER_CHARGES


@<TRIPOS>ATOM
      1 Cl1         1.9358    0.6675   -0.2601 Cl         1 <1>        0.000
      2 C1          0.2203    0.4852   -0.2050 C.2        1 <1>        0.000
      3 C2         -0.2958   -0.6503    0.2737 C.2        1 <1>        0.000
      4 Cl2        -0.8471    1.7283   -0.7497 Cl         1 <1>        0.000
      5 H          -1.3770   -0.7821    0.3164 H.spc      1 <1>        0.000
      6 H           0.3643   -1.4449    0.6216 H.spc      1 <1>        0.000
@<TRIPOS>BOND
     1    1    2 1  
     2    2    3 2  
     3    2    4 1  
     4    3    5 1  
     5    3    6 1  
# Name:          frag3-170-9/31924 -- energy: -0.147213
# Creation time: Sat Jun  5 12:52:06 2010


@<TRIPOS>MOLECULE
frag3-170-9/31924 -- energy: -0.147213
    6     5     1     1     1
SMALL
USER_CHARGES


@<TRIPOS>ATOM
      1 Cl1         1.9358    0.6675   -0.2601 Cl         1 <1>        0.000
      2 C1          0.2203    0.4852   -0.2050 C.2        1 <1>        0.000
      3 C2         -0.2958   -0.6503    0.2737 C.2        1 <1>        0.000
      4 Cl2        -0.8471    1.7283   -0.7497 Cl         1 <1>        0.000
      5 H          -1.3770   -0.7821    0.3164 H.spc      1 <1>        0.000
      6 H           0.3643   -1.4449    0.6216 H.spc      1 <1>        0.000
@<TRIPOS>BOND
     1    1    2 1  
     2    2    3 2  
     3    2    4 1  
     4    3    5 1  
     5    3    6 1  
