#      Rotatable Fragment
#      Build by yxyuan
#
# Name:          frag3-125-39/31924
# Creation time: Sat Jun  5 12:52:02 2010


@<TRIPOS>MOLECULE
frag3-125-39/31924
    8     7     1     1     1
SMALL
USER_CHARGES


@<TRIPOS>ATOM
      1 S1         -1.1461    1.1937   -0.3711 S.3        1 <1>        0.000
      2 C9         -0.0844   -0.0880   -0.0430 C.2        1 <1>        0.000
      3 N1          1.1636    0.0509   -0.2759 N.2        1 <1>        0.000
      4 N2         -0.3993   -1.2872    0.4765 N.pl3      1 <1>        0.000
      5 H          -2.3864    0.8318   -0.0555 H.spc      1 <1>        0.000
      6 H           1.8093   -0.7105   -0.0666 H.spc      1 <1>        0.000
      7 H           0.3321   -1.9778    0.6455 H.spc      1 <1>        0.000
      8 H          -1.3697   -1.5066    0.7017 H.spc      1 <1>        0.000
@<TRIPOS>BOND
     1    1    2 1  
     2    2    3 2  
     3    2    4 1  
     4    1    5 1  
     5    3    6 1  
     6    4    7 1  
     7    4    8 1  
# Name:          frag3-125-39/31924 -- energy: -0.111230
# Creation time: Sat Jun  5 12:52:02 2010


@<TRIPOS>MOLECULE
frag3-125-39/31924 -- energy: -0.111230
    8     7     1     1     1
SMALL
USER_CHARGES


@<TRIPOS>ATOM
      1 S1         -1.1461    1.1937   -0.3711 S.3        1 <1>        0.000
      2 C9         -0.0844   -0.0880   -0.0430 C.2        1 <1>        0.000
      3 N1          1.1636    0.0509   -0.2759 N.2        1 <1>        0.000
      4 N2         -0.3993   -1.2872    0.4765 N.pl3      1 <1>        0.000
      5 H          -2.3864    0.8318   -0.0555 H.spc      1 <1>        0.000
      6 H           1.8093   -0.7105   -0.0666 H.spc      1 <1>        0.000
      7 H           0.3321   -1.9778    0.6455 H.spc      1 <1>        0.000
      8 H          -1.3697   -1.5066    0.7017 H.spc      1 <1>        0.000
@<TRIPOS>BOND
     1    1    2 1  
     2    2    3 2  
     3    2    4 1  
     4    1    5 1  
     5    3    6 1  
     6    4    7 1  
     7    4    8 1  
