#      Rotatable Fragment
#      Build by yxyuan
#
# Name:          frag5-503-238/41815
# Creation time: Sat Jun  5 12:52:50 2010


@<TRIPOS>MOLECULE
frag5-503-238/41815
   37    40     1     1     1
SMALL
USER_CHARGES


@<TRIPOS>ATOM
      1 C6         -1.0756   -1.0458    1.3880 C.3        1 <1>        0.000
      2 C7         -1.0683   -2.3967    2.1113 C.3        1 <1>        0.000
      3 C8          0.3663   -2.9270    2.2108 C.3        1 <1>        0.000
      4 C9          1.4313   -1.9521    2.7367 C.3        1 <1>        0.000
      5 C10         1.4662   -0.8785    1.6640 C.ar       1 <1>        0.000
      6 C11         0.2829   -0.4462    1.0350 C.ar       1 <1>        0.000
      7 C12         0.3210    0.5742    0.0613 C.ar       1 <1>        0.000
      8 C20         4.2502    4.3640   -3.1126 C.ar       1 <1>        0.000
      9 C13         1.5671    1.1256   -0.2936 C.ar       1 <1>        0.000
     10 C14         2.7367    0.6792    0.3066 C.ar       1 <1>        0.000
     11 C15         2.7058   -0.3317    1.2812 C.ar       1 <1>        0.000
     12 O3          3.8586   -0.7856    1.8604 O.3        1 <1>        0.000
     13 C16         4.0616    1.2898   -0.0982 C.2        1 <1>        0.000
     14 C17         4.1640    2.3632   -1.1566 C.ar       1 <1>        0.000
     15 C18         2.9782    2.8132   -1.7496 C.ar       1 <1>        0.000
     16 C19         3.0292    3.8173   -2.7238 C.ar       1 <1>        0.000
     17 C21         5.4189    3.9047   -2.5249 C.ar       1 <1>        0.000
     18 C22         5.4208    2.9001   -1.5374 C.ar       1 <1>        0.000
     19 O4          6.6046    2.4935   -1.0000 O.3        1 <1>        0.000
     20 C23         1.6648    2.2167   -1.3358 C.2        1 <1>        0.000
     21 O5          0.6322    2.6332   -1.8703 O.2        1 <1>        0.000
     22 O6          5.0995    0.8983    0.4487 O.2        1 <1>        0.000
     23 O7         -0.8632    0.9811   -0.4988 O.3        1 <1>        0.000
     24 H          -1.5825   -1.2177    0.4385 H.spc      1 <1>        0.000
     25 H          -1.5441   -0.3412    2.0751 H.spc      1 <1>        0.000
     26 H          -1.4752   -2.2697    3.1145 H.spc      1 <1>        0.000
     27 H          -1.6765   -3.1075    1.5518 H.spc      1 <1>        0.000
     28 H           0.3326   -3.7479    2.9271 H.spc      1 <1>        0.000
     29 H           0.6648   -3.1748    1.1922 H.spc      1 <1>        0.000
     30 H           1.1930   -1.5567    3.7241 H.spc      1 <1>        0.000
     31 H           2.4000   -2.4268    2.8926 H.spc      1 <1>        0.000
     32 H           4.2863    5.1454   -3.8717 H.spc      1 <1>        0.000
     33 H           4.6084   -0.3132    1.4912 H.spc      1 <1>        0.000
     34 H           2.1066    4.1741   -3.1816 H.spc      1 <1>        0.000
     35 H           6.3697    4.3361   -2.8380 H.spc      1 <1>        0.000
     36 H           6.4401    1.8094   -0.3469 H.spc      1 <1>        0.000
     37 H          -1.5861    0.4783   -0.1166 H.spc      1 <1>        0.000
@<TRIPOS>BOND
     1    9   20 1  
     2    7    9 ar 
     3    4    5 1  
     4    6    7 ar 
     5    1    6 1  
     6    5   11 ar 
     7    3    4 1  
     8    2    3 1  
     9    1    2 1  
    10    9   10 ar 
    11    5    6 ar 
    12    7   23 1  
    13   20   21 2  
    14   18   19 1  
    15   17   18 ar 
    16    8   17 ar 
    17   16    8 ar 
    18   15   20 1  
    19   15   16 ar 
    20   14   18 ar 
    21   14   15 ar 
    22   13   22 2  
    23   13   14 1  
    24   10   13 1  
    25   11   12 1  
    26   10   11 ar 
    27    1   24 1  
    28    1   25 1  
    29    2   26 1  
    30    2   27 1  
    31    3   28 1  
    32    3   29 1  
    33    4   30 1  
    34    4   31 1  
    35    8   32 1  
    36   12   33 1  
    37   16   34 1  
    38   17   35 1  
    39   19   36 1  
    40   23   37 1  
