#      Rotatable Fragment
#      Build by yxyuan
#
# Name:          frag5-556-167/138278
# Creation time: Sat Jun  5 12:53:43 2010


@<TRIPOS>MOLECULE
frag5-556-167/138278
   13    13     1     1     1
SMALL
USER_CHARGES


@<TRIPOS>ATOM
      1 O4          2.3256    0.3247   -0.0297 O.3        1 <1>        0.000
      2 C30         3.4306   -0.5110   -0.0004 C.ar       1 <1>        0.000
      3 C31         4.7202    0.0503   -0.0101 C.ar       1 <1>        0.000
      4 C32         3.2938   -1.9050    0.0419 C.ar       1 <1>        0.000
      5 C33         5.8419   -0.7841   -0.0332 C.ar       1 <1>        0.000
      6 Cl1         4.9096    1.7845    0.0039 Cl         1 <1>        0.000
      7 C34         4.4162   -2.7317    0.0292 C.ar       1 <1>        0.000
      8 C35         5.6943   -2.1690   -0.0193 C.ar       1 <1>        0.000
      9 H           1.5249   -0.2048   -0.0185 H.spc      1 <1>        0.000
     10 H           2.2987   -2.3478    0.0852 H.spc      1 <1>        0.000
     11 H           6.8401   -0.3472   -0.0623 H.spc      1 <1>        0.000
     12 H           4.2970   -3.8148    0.0570 H.spc      1 <1>        0.000
     13 H           6.5738   -2.8124   -0.0462 H.spc      1 <1>        0.000
@<TRIPOS>BOND
     1    1    2 1  
     2    2    3 ar 
     3    3    5 ar 
     4    2    4 ar 
     5    3    6 1  
     6    4    7 ar 
     7    5    8 ar 
     8    7    8 ar 
     9    1    9 1  
    10    4   10 1  
    11    5   11 1  
    12    7   12 1  
    13    8   13 1  
# Name:          frag5-556-167/138278 -- energy: -0.222567
# Creation time: Sat Jun  5 12:53:43 2010


@<TRIPOS>MOLECULE
frag5-556-167/138278 -- energy: -0.222567
   13    13     1     1     1
SMALL
USER_CHARGES


@<TRIPOS>ATOM
      1 O4          2.3256    0.3247   -0.0297 O.3        1 <1>        0.000
      2 C30         3.4306   -0.5110   -0.0004 C.ar       1 <1>        0.000
      3 C31         4.7202    0.0503   -0.0101 C.ar       1 <1>        0.000
      4 C32         3.2938   -1.9050    0.0419 C.ar       1 <1>        0.000
      5 C33         5.8419   -0.7841   -0.0332 C.ar       1 <1>        0.000
      6 Cl1         4.9096    1.7845    0.0039 Cl         1 <1>        0.000
      7 C34         4.4162   -2.7317    0.0292 C.ar       1 <1>        0.000
      8 C35         5.6943   -2.1690   -0.0193 C.ar       1 <1>        0.000
      9 H           1.5249   -0.2048   -0.0185 H.spc      1 <1>        0.000
     10 H           2.2987   -2.3478    0.0852 H.spc      1 <1>        0.000
     11 H           6.8401   -0.3472   -0.0623 H.spc      1 <1>        0.000
     12 H           4.2970   -3.8148    0.0570 H.spc      1 <1>        0.000
     13 H           6.5738   -2.8124   -0.0462 H.spc      1 <1>        0.000
@<TRIPOS>BOND
     1    1    2 1  
     2    2    3 ar 
     3    3    5 ar 
     4    2    4 ar 
     5    3    6 1  
     6    4    7 ar 
     7    5    8 ar 
     8    7    8 ar 
     9    1    9 1  
    10    4   10 1  
    11    5   11 1  
    12    7   12 1  
    13    8   13 1  
