#      Rotatable Fragment
#      Build by yxyuan
#
# Name:          frag3-161-18/96164
# Creation time: Sat Jun  5 12:53:06 2010


@<TRIPOS>MOLECULE
frag3-161-18/96164
    6     5     1     1     1
SMALL
USER_CHARGES


@<TRIPOS>ATOM
      1 C3          0.7335    0.1753   -0.0004 C.2        1 <1>        0.000
      2 C6         -0.7346   -0.1694   -0.0007 C.2        1 <1>        0.000
      3 O1          1.5561   -0.6004    0.4526 O.2        1 <1>        0.000
      4 O3         -1.5809    0.7046   -0.0604 O.2        1 <1>        0.000
      5 H           1.0625    1.1301   -0.4105 H.spc      1 <1>        0.000
      6 H          -1.0423   -1.2137    0.0532 H.spc      1 <1>        0.000
@<TRIPOS>BOND
     1    1    2 1  
     2    1    3 2  
     3    2    4 2  
     4    1    5 1  
     5    2    6 1  
# Name:          frag3-161-18/96164
# Creation time: Sat Jun  5 12:53:06 2010


@<TRIPOS>MOLECULE
frag3-161-18/96164
    6     5     1     1     1
SMALL
USER_CHARGES


@<TRIPOS>ATOM
      1 C3          0.7411   -0.2961   -0.3134 C.2        1 <1>        0.000
      2 C6         -0.6938    0.0998   -0.4977 C.2        1 <1>        0.000
      3 O1          1.2840   -0.2247    0.7741 O.2        1 <1>        0.000
      4 O3         -1.3573    0.5311    0.4281 O.2        1 <1>        0.000
      5 H           1.3098   -0.6553   -1.1711 H.spc      1 <1>        0.000
      6 H          -1.1526   -0.0006   -1.4813 H.spc      1 <1>        0.000
@<TRIPOS>BOND
     1    1    2 1  
     2    1    3 2  
     3    2    4 2  
     4    1    5 1  
     5    2    6 1  
# Name:          frag3-161-18/96164 -- energy: -0.118939
# Creation time: Sat Jun  5 12:53:06 2010


@<TRIPOS>MOLECULE
frag3-161-18/96164 -- energy: -0.118939
    6     5     1     1     1
SMALL
USER_CHARGES


@<TRIPOS>ATOM
      1 C3          0.7335    0.1753   -0.0004 C.2        1 <1>        0.000
      2 C6         -0.7346   -0.1694   -0.0007 C.2        1 <1>        0.000
      3 O1          1.5561   -0.6004    0.4526 O.2        1 <1>        0.000
      4 O3         -1.5809    0.7046   -0.0604 O.2        1 <1>        0.000
      5 H           1.0625    1.1301   -0.4105 H.spc      1 <1>        0.000
      6 H          -1.0423   -1.2137    0.0532 H.spc      1 <1>        0.000
@<TRIPOS>BOND
     1    1    2 1  
     2    1    3 2  
     3    2    4 2  
     4    1    5 1  
     5    2    6 1  
# Name:          frag3-161-18/96164 -- energy: -0.079378
# Creation time: Sat Jun  5 12:53:06 2010


@<TRIPOS>MOLECULE
frag3-161-18/96164 -- energy: -0.079378
    6     5     1     1     1
SMALL
USER_CHARGES


@<TRIPOS>ATOM
      1 C3          0.7411   -0.2961   -0.3134 C.2        1 <1>        0.000
      2 C6         -0.6938    0.0998   -0.4977 C.2        1 <1>        0.000
      3 O1          1.2840   -0.2247    0.7741 O.2        1 <1>        0.000
      4 O3         -1.3573    0.5311    0.4281 O.2        1 <1>        0.000
      5 H           1.3098   -0.6553   -1.1711 H.spc      1 <1>        0.000
      6 H          -1.1526   -0.0006   -1.4813 H.spc      1 <1>        0.000
@<TRIPOS>BOND
     1    1    2 1  
     2    1    3 2  
     3    2    4 2  
     4    1    5 1  
     5    2    6 1  
