#      Rotatable Fragment
#      Build by yxyuan
#
# Name:          frag3-094-12952/31924
# Creation time: Sat Jun  5 12:51:58 2010


@<TRIPOS>MOLECULE
frag3-094-12952/31924
    6     5     1     1     1
SMALL
USER_CHARGES


@<TRIPOS>ATOM
      1 C5          0.6440    0.1029    0.0692 C.2        1 <1>        0.000
      2 O1          1.1885    1.1449    0.3906 O.2        1 <1>        0.000
      3 N2         -0.6789   -0.1248   -0.0768 N.am       1 <1>        0.000
      4 H           1.3021   -0.7445   -0.1229 H.spc      1 <1>        0.000
      5 H          -1.3472    0.6278    0.0885 H.spc      1 <1>        0.000
      6 H          -1.0099   -1.0494   -0.3524 H.spc      1 <1>        0.000
@<TRIPOS>BOND
     1    1    2 2  
     2    1    3 am 
     3    1    4 1  
     4    3    5 1  
     5    3    6 1  
# Name:          frag3-094-12952/31924 -- energy: -0.083639
# Creation time: Sat Jun  5 12:51:59 2010


@<TRIPOS>MOLECULE
frag3-094-12952/31924 -- energy: -0.083639
    6     5     1     1     1
SMALL
USER_CHARGES


@<TRIPOS>ATOM
      1 C5          0.6440    0.1029    0.0692 C.2        1 <1>        0.000
      2 O1          1.1885    1.1449    0.3906 O.2        1 <1>        0.000
      3 N2         -0.6789   -0.1248   -0.0768 N.am       1 <1>        0.000
      4 H           1.3021   -0.7445   -0.1229 H.spc      1 <1>        0.000
      5 H          -1.3472    0.6278    0.0885 H.spc      1 <1>        0.000
      6 H          -1.0099   -1.0494   -0.3524 H.spc      1 <1>        0.000
@<TRIPOS>BOND
     1    1    2 2  
     2    1    3 am 
     3    1    4 1  
     4    3    5 1  
     5    3    6 1  
