#      Rotatable Fragment
#      Build by yxyuan
#
# Name:          frag3-206-5/31924
# Creation time: Sat Jun  5 12:52:20 2010


@<TRIPOS>MOLECULE
frag3-206-5/31924
   12    11     1     1     1
SMALL
USER_CHARGES


@<TRIPOS>ATOM
      1 S1          2.3032    4.0154    3.2526 S.3        1 <1>        0.000
      2 S2          1.3927    2.6825    2.0455 S.3        1 <1>        0.000
      3 C1          2.4875    2.6849    0.6500 C.2        1 <1>        0.000
      4 C2          3.5565    1.8567    0.6109 C.2        1 <1>        0.000
      5 N1          4.4629    1.7262   -0.3421 N.am       1 <1>        0.000
      6 C9          5.5950    0.9825   -0.3916 C.2        1 <1>        0.000
      7 O1          6.3734    0.9004   -1.3177 O.2        1 <1>        0.000
      8 H           1.6033    4.1440    4.3762 H.spc      1 <1>        0.000
      9 H           2.2971    3.3602   -0.1842 H.spc      1 <1>        0.000
     10 H           3.6876    1.2120    1.4800 H.spc      1 <1>        0.000
     11 H           4.2799    2.2774   -1.1806 H.spc      1 <1>        0.000
     12 H           5.8309    0.3955    0.4960 H.spc      1 <1>        0.000
@<TRIPOS>BOND
     1    1    2 1  
     2    2    3 1  
     3    3    4 2  
     4    4    5 1  
     5    6    7 2  
     6    5    6 am 
     7    1    8 1  
     8    3    9 1  
     9    4   10 1  
    10    5   11 1  
    11    6   12 1  
# Name:          frag3-206-5/31924
# Creation time: Sat Jun  5 12:52:20 2010


@<TRIPOS>MOLECULE
frag3-206-5/31924
   12    11     1     1     1
SMALL
USER_CHARGES


@<TRIPOS>ATOM
      1 S1          2.0872    4.0819    3.2607 S.3        1 <1>        0.000
      2 S2          1.7287    2.3868    2.2365 S.3        1 <1>        0.000
      3 C1          2.6629    2.7120    0.7624 C.2        1 <1>        0.000
      4 C2          3.6337    1.8884    0.3613 C.2        1 <1>        0.000
      5 N1          4.4199    1.9874   -0.7186 N.am       1 <1>        0.000
      6 C9          5.5209    1.2872   -1.0654 C.2        1 <1>        0.000
      7 O1          6.1178    0.5049   -0.3291 O.2        1 <1>        0.000
      8 H           1.4558    4.0333    4.4303 H.spc      1 <1>        0.000
      9 H           2.4394    3.6015    0.1734 H.spc      1 <1>        0.000
     10 H           3.8100    1.0204    0.9966 H.spc      1 <1>        0.000
     11 H           4.1423    2.7072   -1.3859 H.spc      1 <1>        0.000
     12 H           5.9096    1.4262   -2.0742 H.spc      1 <1>        0.000
@<TRIPOS>BOND
     1    1    2 1  
     2    2    3 1  
     3    3    4 2  
     4    4    5 1  
     5    6    7 2  
     6    5    6 am 
     7    1    8 1  
     8    3    9 1  
     9    4   10 1  
    10    5   11 1  
    11    6   12 1  
# Name:          frag3-206-5/31924
# Creation time: Sat Jun  5 12:52:20 2010


@<TRIPOS>MOLECULE
frag3-206-5/31924
   12    11     1     1     1
SMALL
USER_CHARGES


@<TRIPOS>ATOM
      1 S1          1.5906    4.2747    3.1543 S.3        1 <1>        0.000
      2 S2          1.4710    2.6165    2.0243 S.3        1 <1>        0.000
      3 C1          3.0924    2.7511    1.3113 C.2        1 <1>        0.000
      4 C2          3.5768    1.8093    0.4959 C.2        1 <1>        0.000
      5 N1          4.7498    1.7561   -0.1215 N.am       1 <1>        0.000
      6 C9          5.3009    0.8038   -0.9123 C.2        1 <1>        0.000
      7 O1          6.3896    0.8372   -1.4444 O.2        1 <1>        0.000
      8 H           0.4568    4.4302    3.8320 H.spc      1 <1>        0.000
      9 H           3.7061    3.6213    1.5440 H.spc      1 <1>        0.000
     10 H           2.9133    0.9643    0.3119 H.spc      1 <1>        0.000
     11 H           5.3399    2.5751    0.0246 H.spc      1 <1>        0.000
     12 H           4.7005   -0.0886   -1.0891 H.spc      1 <1>        0.000
@<TRIPOS>BOND
     1    1    2 1  
     2    2    3 1  
     3    3    4 2  
     4    4    5 1  
     5    6    7 2  
     6    5    6 am 
     7    1    8 1  
     8    3    9 1  
     9    4   10 1  
    10    5   11 1  
    11    6   12 1  
# Name:          frag3-206-5/31924
# Creation time: Sat Jun  5 12:52:20 2010


@<TRIPOS>MOLECULE
frag3-206-5/31924
   12    11     1     1     1
SMALL
USER_CHARGES


@<TRIPOS>ATOM
      1 S1          2.9130    3.6647    3.0823 S.3        1 <1>        0.000
      2 S2          1.5746    3.4195    1.6079 S.3        1 <1>        0.000
      3 C1          2.2443    2.0158    0.8481 C.2        1 <1>        0.000
      4 C2          3.5242    1.9666    0.4150 C.2        1 <1>        0.000
      5 N1          4.1992    0.9713   -0.1628 N.am       1 <1>        0.000
      6 C9          5.4715    0.9297   -0.6147 C.2        1 <1>        0.000
      7 O1          6.2444    1.8812   -0.6680 O.2        1 <1>        0.000
      8 H           2.5769    4.7245    3.8123 H.spc      1 <1>        0.000
      9 H           1.6107    1.1391    0.7138 H.spc      1 <1>        0.000
     10 H           4.0941    2.8842    0.5608 H.spc      1 <1>        0.000
     11 H           3.6719    0.1063   -0.2820 H.spc      1 <1>        0.000
     12 H           5.8443   -0.0337   -0.9625 H.spc      1 <1>        0.000
@<TRIPOS>BOND
     1    1    2 1  
     2    2    3 1  
     3    3    4 2  
     4    4    5 1  
     5    6    7 2  
     6    5    6 am 
     7    1    8 1  
     8    3    9 1  
     9    4   10 1  
    10    5   11 1  
    11    6   12 1  
# Name:          frag3-206-5/31924
# Creation time: Sat Jun  5 12:52:20 2010


@<TRIPOS>MOLECULE
frag3-206-5/31924
   12    11     1     1     1
SMALL
USER_CHARGES


@<TRIPOS>ATOM
      1 S1          2.2538    4.0963    3.3867 S.3        1 <1>        0.000
      2 S2          1.5632    2.9106    1.9119 S.3        1 <1>        0.000
      3 C1          3.0601    2.5737    1.0123 C.2        1 <1>        0.000
      4 C2          3.1575    1.5177    0.1979 C.2        1 <1>        0.000
      5 N1          4.1955    1.1442   -0.5385 N.am       1 <1>        0.000
      6 C9          5.4853    1.5900   -0.5095 C.2        1 <1>        0.000
      7 O1          6.4557    1.0161   -0.9530 O.2        1 <1>        0.000
      8 H           1.2445    4.4531    4.1759 H.spc      1 <1>        0.000
      9 H           3.9144    3.2408    1.1271 H.spc      1 <1>        0.000
     10 H           2.2729    0.8844    0.1308 H.spc      1 <1>        0.000
     11 H           4.0015    0.4174   -1.2274 H.spc      1 <1>        0.000
     12 H           5.6595    2.5585   -0.0408 H.spc      1 <1>        0.000
@<TRIPOS>BOND
     1    1    2 1  
     2    2    3 1  
     3    3    4 2  
     4    4    5 1  
     5    6    7 2  
     6    5    6 am 
     7    1    8 1  
     8    3    9 1  
     9    4   10 1  
    10    5   11 1  
    11    6   12 1  
# Name:          frag3-206-5/31924
# Creation time: Sat Jun  5 12:52:20 2010


@<TRIPOS>MOLECULE
frag3-206-5/31924
   12    11     1     1     1
SMALL
USER_CHARGES


@<TRIPOS>ATOM
      1 S1          2.3796    3.9023    3.0325 S.3        1 <1>        0.000
      2 S2          1.3822    2.6033    1.8805 S.3        1 <1>        0.000
      3 C1          2.7045    1.8953    1.0597 C.2        1 <1>        0.000
      4 C2          3.6339    2.6147    0.3917 C.2        1 <1>        0.000
      5 N1          4.7163    2.2208   -0.2600 N.am       1 <1>        0.000
      6 C9          5.1418    0.9698   -0.5602 C.2        1 <1>        0.000
      7 O1          6.2128    0.6424   -1.0365 O.2        1 <1>        0.000
      8 H           1.5159    4.5835    3.7800 H.spc      1 <1>        0.000
      9 H           2.8030    0.8099    1.0758 H.spc      1 <1>        0.000
     10 H           3.4647    3.6915    0.3895 H.spc      1 <1>        0.000
     11 H           5.3226    2.9735   -0.5860 H.spc      1 <1>        0.000
     12 H           4.4420    0.1610   -0.3502 H.spc      1 <1>        0.000
@<TRIPOS>BOND
     1    1    2 1  
     2    2    3 1  
     3    3    4 2  
     4    4    5 1  
     5    6    7 2  
     6    5    6 am 
     7    1    8 1  
     8    3    9 1  
     9    4   10 1  
    10    5   11 1  
    11    6   12 1  
# Name:          frag3-206-5/31924
# Creation time: Sat Jun  5 12:52:20 2010


@<TRIPOS>MOLECULE
frag3-206-5/31924
   12    11     1     1     1
SMALL
USER_CHARGES


@<TRIPOS>ATOM
      1 S1          2.5348    3.8779    3.0570 S.3        1 <1>        0.000
      2 S2          1.6989    2.3774    2.0151 S.3        1 <1>        0.000
      3 C1          3.0302    1.8379    1.0217 C.2        1 <1>        0.000
      4 C2          3.4478    2.5442   -0.0554 C.2        1 <1>        0.000
      5 N1          4.4470    2.2803   -0.8997 N.am       1 <1>        0.000
      6 C9          5.4134    1.3315   -0.7994 C.2        1 <1>        0.000
      7 O1          5.5990    0.5995    0.1684 O.2        1 <1>        0.000
      8 H           1.6296    4.4043    3.8770 H.spc      1 <1>        0.000
      9 H           3.5385    0.9077    1.2756 H.spc      1 <1>        0.000
     10 H           2.8891    3.4570   -0.2620 H.spc      1 <1>        0.000
     11 H           4.4907    2.8697   -1.7310 H.spc      1 <1>        0.000
     12 H           6.0819    1.2094   -1.6517 H.spc      1 <1>        0.000
@<TRIPOS>BOND
     1    1    2 1  
     2    2    3 1  
     3    3    4 2  
     4    4    5 1  
     5    6    7 2  
     6    5    6 am 
     7    1    8 1  
     8    3    9 1  
     9    4   10 1  
    10    5   11 1  
    11    6   12 1  
# Name:          frag3-206-5/31924
# Creation time: Sat Jun  5 12:52:20 2010


@<TRIPOS>MOLECULE
frag3-206-5/31924
   12    11     1     1     1
SMALL
USER_CHARGES


@<TRIPOS>ATOM
      1 S1          2.6830    4.0331    3.2129 S.3        1 <1>        0.000
      2 S2          1.7448    3.0501    1.7261 S.3        1 <1>        0.000
      3 C1          3.1060    2.5134    0.7218 C.2        1 <1>        0.000
      4 C2          3.1895    1.2539    0.2859 C.2        1 <1>        0.000
      5 N1          4.1408    0.7007   -0.4771 N.am       1 <1>        0.000
      6 C9          5.3902    1.1625   -0.7484 C.2        1 <1>        0.000
      7 O1          5.9168    2.1349   -0.2133 O.2        1 <1>        0.000
      8 H           1.7808    4.5063    4.0678 H.spc      1 <1>        0.000
      9 H           3.8880    3.2247    0.4560 H.spc      1 <1>        0.000
     10 H           2.3794    0.5911    0.5902 H.spc      1 <1>        0.000
     11 H           3.8946   -0.1875   -0.9139 H.spc      1 <1>        0.000
     12 H           5.9707    0.6277   -1.5002 H.spc      1 <1>        0.000
@<TRIPOS>BOND
     1    1    2 1  
     2    2    3 1  
     3    3    4 2  
     4    4    5 1  
     5    6    7 2  
     6    5    6 am 
     7    1    8 1  
     8    3    9 1  
     9    4   10 1  
    10    5   11 1  
    11    6   12 1  
# Name:          frag3-206-5/31924
# Creation time: Sat Jun  5 12:52:20 2010


@<TRIPOS>MOLECULE
frag3-206-5/31924
   12    11     1     1     1
SMALL
USER_CHARGES


@<TRIPOS>ATOM
      1 S1          2.4408    3.8429    3.0497 S.3        1 <1>        0.000
      2 S2          1.3553    2.9882    1.5977 S.3        1 <1>        0.000
      3 C1          2.6212    2.4294    0.5888 C.2        1 <1>        0.000
      4 C2          3.7014    1.7715    1.0708 C.2        1 <1>        0.000
      5 N1          4.7607    1.2895    0.4392 N.am       1 <1>        0.000
      6 C9          5.1011    1.3708   -0.8699 C.2        1 <1>        0.000
      7 O1          6.1907    1.1563   -1.3685 O.2        1 <1>        0.000
      8 H           1.6257    4.3565    3.9666 H.spc      1 <1>        0.000
      9 H           2.5544    2.6107   -0.4839 H.spc      1 <1>        0.000
     10 H           3.6989    1.6135    2.1493 H.spc      1 <1>        0.000
     11 H           5.4203    0.7799    1.0271 H.spc      1 <1>        0.000
     12 H           4.3065    1.6623   -1.5567 H.spc      1 <1>        0.000
@<TRIPOS>BOND
     1    1    2 1  
     2    2    3 1  
     3    3    4 2  
     4    4    5 1  
     5    6    7 2  
     6    5    6 am 
     7    1    8 1  
     8    3    9 1  
     9    4   10 1  
    10    5   11 1  
    11    6   12 1  
# Name:          frag3-206-5/31924
# Creation time: Sat Jun  5 12:52:20 2010


@<TRIPOS>MOLECULE
frag3-206-5/31924
   12    11     1     1     1
SMALL
USER_CHARGES


@<TRIPOS>ATOM
      1 S1          1.2517    4.0933    3.0645 S.3        1 <1>        0.000
      2 S2          1.5540    2.5772    1.7716 S.3        1 <1>        0.000
      3 C1          3.2987    2.6992    1.4374 C.2        1 <1>        0.000
      4 C2          3.8694    1.9579    0.4959 C.2        1 <1>        0.000
      5 N1          5.1584    1.9328    0.1209 N.am       1 <1>        0.000
      6 C9          5.7967    1.1401   -0.7667 C.2        1 <1>        0.000
      7 O1          5.2423    0.4482   -1.6159 O.2        1 <1>        0.000
      8 H          -0.0318    4.1290    3.4111 H.spc      1 <1>        0.000
      9 H           3.9080    3.3940    2.0154 H.spc      1 <1>        0.000
     10 H           3.2055    1.2818   -0.0428 H.spc      1 <1>        0.000
     11 H           5.7511    2.6240    0.5806 H.spc      1 <1>        0.000
     12 H           6.8856    1.1125   -0.7261 H.spc      1 <1>        0.000
@<TRIPOS>BOND
     1    1    2 1  
     2    2    3 1  
     3    3    4 2  
     4    4    5 1  
     5    6    7 2  
     6    5    6 am 
     7    1    8 1  
     8    3    9 1  
     9    4   10 1  
    10    5   11 1  
    11    6   12 1  
# Name:          frag3-206-5/31924
# Creation time: Sat Jun  5 12:52:20 2010


@<TRIPOS>MOLECULE
frag3-206-5/31924
   12    11     1     1     1
SMALL
USER_CHARGES


@<TRIPOS>ATOM
      1 S1          2.6666    3.6046    3.1607 S.3        1 <1>        0.000
      2 S2          1.3365    3.2668    1.6954 S.3        1 <1>        0.000
      3 C1          2.2665    2.0112    0.9165 C.2        1 <1>        0.000
      4 C2          3.5385    2.2190    0.5006 C.2        1 <1>        0.000
      5 N1          4.3811    1.3891   -0.0882 N.am       1 <1>        0.000
      6 C9          5.6631    1.5543   -0.4913 C.2        1 <1>        0.000
      7 O1          6.3188    0.8036   -1.1860 O.2        1 <1>        0.000
      8 H           2.2099    4.5652    3.9591 H.spc      1 <1>        0.000
      9 H           1.8109    1.0333    0.7607 H.spc      1 <1>        0.000
     10 H           3.9255    3.2224    0.6785 H.spc      1 <1>        0.000
     11 H           3.9989    0.4613   -0.2712 H.spc      1 <1>        0.000
     12 H           6.1629    2.4626   -0.1548 H.spc      1 <1>        0.000
@<TRIPOS>BOND
     1    1    2 1  
     2    2    3 1  
     3    3    4 2  
     4    4    5 1  
     5    6    7 2  
     6    5    6 am 
     7    1    8 1  
     8    3    9 1  
     9    4   10 1  
    10    5   11 1  
    11    6   12 1  
# Name:          frag3-206-5/31924 -- energy: -0.824397
# Creation time: Sat Jun  5 12:52:20 2010


@<TRIPOS>MOLECULE
frag3-206-5/31924 -- energy: -0.824397
   12    11     1     1     1
SMALL
USER_CHARGES


@<TRIPOS>ATOM
      1 S1          2.3032    4.0154    3.2526 S.3        1 <1>        0.000
      2 S2          1.3927    2.6825    2.0455 S.3        1 <1>        0.000
      3 C1          2.4875    2.6849    0.6500 C.2        1 <1>        0.000
      4 C2          3.5565    1.8567    0.6109 C.2        1 <1>        0.000
      5 N1          4.4629    1.7262   -0.3421 N.am       1 <1>        0.000
      6 C9          5.5950    0.9825   -0.3916 C.2        1 <1>        0.000
      7 O1          6.3734    0.9004   -1.3177 O.2        1 <1>        0.000
      8 H           1.6033    4.1440    4.3762 H.spc      1 <1>        0.000
      9 H           2.2971    3.3602   -0.1842 H.spc      1 <1>        0.000
     10 H           3.6876    1.2120    1.4800 H.spc      1 <1>        0.000
     11 H           4.2799    2.2774   -1.1806 H.spc      1 <1>        0.000
     12 H           5.8309    0.3955    0.4960 H.spc      1 <1>        0.000
@<TRIPOS>BOND
     1    1    2 1  
     2    2    3 1  
     3    3    4 2  
     4    4    5 1  
     5    6    7 2  
     6    5    6 am 
     7    1    8 1  
     8    3    9 1  
     9    4   10 1  
    10    5   11 1  
    11    6   12 1  
# Name:          frag3-206-5/31924 -- energy: -0.789928
# Creation time: Sat Jun  5 12:52:20 2010


@<TRIPOS>MOLECULE
frag3-206-5/31924 -- energy: -0.789928
   12    11     1     1     1
SMALL
USER_CHARGES


@<TRIPOS>ATOM
      1 S1          2.0872    4.0819    3.2607 S.3        1 <1>        0.000
      2 S2          1.7287    2.3868    2.2365 S.3        1 <1>        0.000
      3 C1          2.6629    2.7120    0.7624 C.2        1 <1>        0.000
      4 C2          3.6337    1.8884    0.3613 C.2        1 <1>        0.000
      5 N1          4.4199    1.9874   -0.7186 N.am       1 <1>        0.000
      6 C9          5.5209    1.2872   -1.0654 C.2        1 <1>        0.000
      7 O1          6.1178    0.5049   -0.3291 O.2        1 <1>        0.000
      8 H           1.4558    4.0333    4.4303 H.spc      1 <1>        0.000
      9 H           2.4394    3.6015    0.1734 H.spc      1 <1>        0.000
     10 H           3.8100    1.0204    0.9966 H.spc      1 <1>        0.000
     11 H           4.1423    2.7072   -1.3859 H.spc      1 <1>        0.000
     12 H           5.9096    1.4262   -2.0742 H.spc      1 <1>        0.000
@<TRIPOS>BOND
     1    1    2 1  
     2    2    3 1  
     3    3    4 2  
     4    4    5 1  
     5    6    7 2  
     6    5    6 am 
     7    1    8 1  
     8    3    9 1  
     9    4   10 1  
    10    5   11 1  
    11    6   12 1  
# Name:          frag3-206-5/31924 -- energy: -0.705408
# Creation time: Sat Jun  5 12:52:20 2010


@<TRIPOS>MOLECULE
frag3-206-5/31924 -- energy: -0.705408
   12    11     1     1     1
SMALL
USER_CHARGES


@<TRIPOS>ATOM
      1 S1          1.5906    4.2747    3.1543 S.3        1 <1>        0.000
      2 S2          1.4710    2.6165    2.0243 S.3        1 <1>        0.000
      3 C1          3.0924    2.7511    1.3113 C.2        1 <1>        0.000
      4 C2          3.5768    1.8093    0.4959 C.2        1 <1>        0.000
      5 N1          4.7498    1.7561   -0.1215 N.am       1 <1>        0.000
      6 C9          5.3009    0.8038   -0.9123 C.2        1 <1>        0.000
      7 O1          6.3896    0.8372   -1.4444 O.2        1 <1>        0.000
      8 H           0.4568    4.4302    3.8320 H.spc      1 <1>        0.000
      9 H           3.7061    3.6213    1.5440 H.spc      1 <1>        0.000
     10 H           2.9133    0.9643    0.3119 H.spc      1 <1>        0.000
     11 H           5.3399    2.5751    0.0246 H.spc      1 <1>        0.000
     12 H           4.7005   -0.0886   -1.0891 H.spc      1 <1>        0.000
@<TRIPOS>BOND
     1    1    2 1  
     2    2    3 1  
     3    3    4 2  
     4    4    5 1  
     5    6    7 2  
     6    5    6 am 
     7    1    8 1  
     8    3    9 1  
     9    4   10 1  
    10    5   11 1  
    11    6   12 1  
# Name:          frag3-206-5/31924 -- energy: -0.907693
# Creation time: Sat Jun  5 12:52:20 2010


@<TRIPOS>MOLECULE
frag3-206-5/31924 -- energy: -0.907693
   12    11     1     1     1
SMALL
USER_CHARGES


@<TRIPOS>ATOM
      1 S1          2.9130    3.6647    3.0823 S.3        1 <1>        0.000
      2 S2          1.5746    3.4195    1.6079 S.3        1 <1>        0.000
      3 C1          2.2443    2.0158    0.8481 C.2        1 <1>        0.000
      4 C2          3.5242    1.9666    0.4150 C.2        1 <1>        0.000
      5 N1          4.1992    0.9713   -0.1628 N.am       1 <1>        0.000
      6 C9          5.4715    0.9297   -0.6147 C.2        1 <1>        0.000
      7 O1          6.2444    1.8812   -0.6680 O.2        1 <1>        0.000
      8 H           2.5769    4.7245    3.8123 H.spc      1 <1>        0.000
      9 H           1.6107    1.1391    0.7138 H.spc      1 <1>        0.000
     10 H           4.0941    2.8842    0.5608 H.spc      1 <1>        0.000
     11 H           3.6719    0.1063   -0.2820 H.spc      1 <1>        0.000
     12 H           5.8443   -0.0337   -0.9625 H.spc      1 <1>        0.000
@<TRIPOS>BOND
     1    1    2 1  
     2    2    3 1  
     3    3    4 2  
     4    4    5 1  
     5    6    7 2  
     6    5    6 am 
     7    1    8 1  
     8    3    9 1  
     9    4   10 1  
    10    5   11 1  
    11    6   12 1  
# Name:          frag3-206-5/31924 -- energy: -0.822181
# Creation time: Sat Jun  5 12:52:20 2010


@<TRIPOS>MOLECULE
frag3-206-5/31924 -- energy: -0.822181
   12    11     1     1     1
SMALL
USER_CHARGES


@<TRIPOS>ATOM
      1 S1          2.2538    4.0963    3.3867 S.3        1 <1>        0.000
      2 S2          1.5632    2.9106    1.9119 S.3        1 <1>        0.000
      3 C1          3.0601    2.5737    1.0123 C.2        1 <1>        0.000
      4 C2          3.1575    1.5177    0.1979 C.2        1 <1>        0.000
      5 N1          4.1955    1.1442   -0.5385 N.am       1 <1>        0.000
      6 C9          5.4853    1.5900   -0.5095 C.2        1 <1>        0.000
      7 O1          6.4557    1.0161   -0.9530 O.2        1 <1>        0.000
      8 H           1.2445    4.4531    4.1759 H.spc      1 <1>        0.000
      9 H           3.9144    3.2408    1.1271 H.spc      1 <1>        0.000
     10 H           2.2729    0.8844    0.1308 H.spc      1 <1>        0.000
     11 H           4.0015    0.4174   -1.2274 H.spc      1 <1>        0.000
     12 H           5.6595    2.5585   -0.0408 H.spc      1 <1>        0.000
@<TRIPOS>BOND
     1    1    2 1  
     2    2    3 1  
     3    3    4 2  
     4    4    5 1  
     5    6    7 2  
     6    5    6 am 
     7    1    8 1  
     8    3    9 1  
     9    4   10 1  
    10    5   11 1  
    11    6   12 1  
# Name:          frag3-206-5/31924 -- energy: -0.961310
# Creation time: Sat Jun  5 12:52:20 2010


@<TRIPOS>MOLECULE
frag3-206-5/31924 -- energy: -0.961310
   12    11     1     1     1
SMALL
USER_CHARGES


@<TRIPOS>ATOM
      1 S1          2.3796    3.9023    3.0325 S.3        1 <1>        0.000
      2 S2          1.3822    2.6033    1.8805 S.3        1 <1>        0.000
      3 C1          2.7045    1.8953    1.0597 C.2        1 <1>        0.000
      4 C2          3.6339    2.6147    0.3917 C.2        1 <1>        0.000
      5 N1          4.7163    2.2208   -0.2600 N.am       1 <1>        0.000
      6 C9          5.1418    0.9698   -0.5602 C.2        1 <1>        0.000
      7 O1          6.2128    0.6424   -1.0365 O.2        1 <1>        0.000
      8 H           1.5159    4.5835    3.7800 H.spc      1 <1>        0.000
      9 H           2.8030    0.8099    1.0758 H.spc      1 <1>        0.000
     10 H           3.4647    3.6915    0.3895 H.spc      1 <1>        0.000
     11 H           5.3226    2.9735   -0.5860 H.spc      1 <1>        0.000
     12 H           4.4420    0.1610   -0.3502 H.spc      1 <1>        0.000
@<TRIPOS>BOND
     1    1    2 1  
     2    2    3 1  
     3    3    4 2  
     4    4    5 1  
     5    6    7 2  
     6    5    6 am 
     7    1    8 1  
     8    3    9 1  
     9    4   10 1  
    10    5   11 1  
    11    6   12 1  
# Name:          frag3-206-5/31924 -- energy: -0.849032
# Creation time: Sat Jun  5 12:52:20 2010


@<TRIPOS>MOLECULE
frag3-206-5/31924 -- energy: -0.849032
   12    11     1     1     1
SMALL
USER_CHARGES


@<TRIPOS>ATOM
      1 S1          2.5348    3.8779    3.0570 S.3        1 <1>        0.000
      2 S2          1.6989    2.3774    2.0151 S.3        1 <1>        0.000
      3 C1          3.0302    1.8379    1.0217 C.2        1 <1>        0.000
      4 C2          3.4478    2.5442   -0.0554 C.2        1 <1>        0.000
      5 N1          4.4470    2.2803   -0.8997 N.am       1 <1>        0.000
      6 C9          5.4134    1.3315   -0.7994 C.2        1 <1>        0.000
      7 O1          5.5990    0.5995    0.1684 O.2        1 <1>        0.000
      8 H           1.6296    4.4043    3.8770 H.spc      1 <1>        0.000
      9 H           3.5385    0.9077    1.2756 H.spc      1 <1>        0.000
     10 H           2.8891    3.4570   -0.2620 H.spc      1 <1>        0.000
     11 H           4.4907    2.8697   -1.7310 H.spc      1 <1>        0.000
     12 H           6.0819    1.2094   -1.6517 H.spc      1 <1>        0.000
@<TRIPOS>BOND
     1    1    2 1  
     2    2    3 1  
     3    3    4 2  
     4    4    5 1  
     5    6    7 2  
     6    5    6 am 
     7    1    8 1  
     8    3    9 1  
     9    4   10 1  
    10    5   11 1  
    11    6   12 1  
# Name:          frag3-206-5/31924 -- energy: -0.790979
# Creation time: Sat Jun  5 12:52:20 2010


@<TRIPOS>MOLECULE
frag3-206-5/31924 -- energy: -0.790979
   12    11     1     1     1
SMALL
USER_CHARGES


@<TRIPOS>ATOM
      1 S1          2.6830    4.0331    3.2129 S.3        1 <1>        0.000
      2 S2          1.7448    3.0501    1.7261 S.3        1 <1>        0.000
      3 C1          3.1060    2.5134    0.7218 C.2        1 <1>        0.000
      4 C2          3.1895    1.2539    0.2859 C.2        1 <1>        0.000
      5 N1          4.1408    0.7007   -0.4771 N.am       1 <1>        0.000
      6 C9          5.3902    1.1625   -0.7484 C.2        1 <1>        0.000
      7 O1          5.9168    2.1349   -0.2133 O.2        1 <1>        0.000
      8 H           1.7808    4.5063    4.0678 H.spc      1 <1>        0.000
      9 H           3.8880    3.2247    0.4560 H.spc      1 <1>        0.000
     10 H           2.3794    0.5911    0.5902 H.spc      1 <1>        0.000
     11 H           3.8946   -0.1875   -0.9139 H.spc      1 <1>        0.000
     12 H           5.9707    0.6277   -1.5002 H.spc      1 <1>        0.000
@<TRIPOS>BOND
     1    1    2 1  
     2    2    3 1  
     3    3    4 2  
     4    4    5 1  
     5    6    7 2  
     6    5    6 am 
     7    1    8 1  
     8    3    9 1  
     9    4   10 1  
    10    5   11 1  
    11    6   12 1  
# Name:          frag3-206-5/31924 -- energy: -0.864601
# Creation time: Sat Jun  5 12:52:20 2010


@<TRIPOS>MOLECULE
frag3-206-5/31924 -- energy: -0.864601
   12    11     1     1     1
SMALL
USER_CHARGES


@<TRIPOS>ATOM
      1 S1          2.4408    3.8429    3.0497 S.3        1 <1>        0.000
      2 S2          1.3553    2.9882    1.5977 S.3        1 <1>        0.000
      3 C1          2.6212    2.4294    0.5888 C.2        1 <1>        0.000
      4 C2          3.7014    1.7715    1.0708 C.2        1 <1>        0.000
      5 N1          4.7607    1.2895    0.4392 N.am       1 <1>        0.000
      6 C9          5.1011    1.3708   -0.8699 C.2        1 <1>        0.000
      7 O1          6.1907    1.1563   -1.3685 O.2        1 <1>        0.000
      8 H           1.6257    4.3565    3.9666 H.spc      1 <1>        0.000
      9 H           2.5544    2.6107   -0.4839 H.spc      1 <1>        0.000
     10 H           3.6989    1.6135    2.1493 H.spc      1 <1>        0.000
     11 H           5.4203    0.7799    1.0271 H.spc      1 <1>        0.000
     12 H           4.3065    1.6623   -1.5567 H.spc      1 <1>        0.000
@<TRIPOS>BOND
     1    1    2 1  
     2    2    3 1  
     3    3    4 2  
     4    4    5 1  
     5    6    7 2  
     6    5    6 am 
     7    1    8 1  
     8    3    9 1  
     9    4   10 1  
    10    5   11 1  
    11    6   12 1  
# Name:          frag3-206-5/31924 -- energy: -0.742674
# Creation time: Sat Jun  5 12:52:20 2010


@<TRIPOS>MOLECULE
frag3-206-5/31924 -- energy: -0.742674
   12    11     1     1     1
SMALL
USER_CHARGES


@<TRIPOS>ATOM
      1 S1          1.2517    4.0933    3.0645 S.3        1 <1>        0.000
      2 S2          1.5540    2.5772    1.7716 S.3        1 <1>        0.000
      3 C1          3.2987    2.6992    1.4374 C.2        1 <1>        0.000
      4 C2          3.8694    1.9579    0.4959 C.2        1 <1>        0.000
      5 N1          5.1584    1.9328    0.1209 N.am       1 <1>        0.000
      6 C9          5.7967    1.1401   -0.7667 C.2        1 <1>        0.000
      7 O1          5.2423    0.4482   -1.6159 O.2        1 <1>        0.000
      8 H          -0.0318    4.1290    3.4111 H.spc      1 <1>        0.000
      9 H           3.9080    3.3940    2.0154 H.spc      1 <1>        0.000
     10 H           3.2055    1.2818   -0.0428 H.spc      1 <1>        0.000
     11 H           5.7511    2.6240    0.5806 H.spc      1 <1>        0.000
     12 H           6.8856    1.1125   -0.7261 H.spc      1 <1>        0.000
@<TRIPOS>BOND
     1    1    2 1  
     2    2    3 1  
     3    3    4 2  
     4    4    5 1  
     5    6    7 2  
     6    5    6 am 
     7    1    8 1  
     8    3    9 1  
     9    4   10 1  
    10    5   11 1  
    11    6   12 1  
# Name:          frag3-206-5/31924 -- energy: -0.834266
# Creation time: Sat Jun  5 12:52:20 2010


@<TRIPOS>MOLECULE
frag3-206-5/31924 -- energy: -0.834266
   12    11     1     1     1
SMALL
USER_CHARGES


@<TRIPOS>ATOM
      1 S1          2.6666    3.6046    3.1607 S.3        1 <1>        0.000
      2 S2          1.3365    3.2668    1.6954 S.3        1 <1>        0.000
      3 C1          2.2665    2.0112    0.9165 C.2        1 <1>        0.000
      4 C2          3.5385    2.2190    0.5006 C.2        1 <1>        0.000
      5 N1          4.3811    1.3891   -0.0882 N.am       1 <1>        0.000
      6 C9          5.6631    1.5543   -0.4913 C.2        1 <1>        0.000
      7 O1          6.3188    0.8036   -1.1860 O.2        1 <1>        0.000
      8 H           2.2099    4.5652    3.9591 H.spc      1 <1>        0.000
      9 H           1.8109    1.0333    0.7607 H.spc      1 <1>        0.000
     10 H           3.9255    3.2224    0.6785 H.spc      1 <1>        0.000
     11 H           3.9989    0.4613   -0.2712 H.spc      1 <1>        0.000
     12 H           6.1629    2.4626   -0.1548 H.spc      1 <1>        0.000
@<TRIPOS>BOND
     1    1    2 1  
     2    2    3 1  
     3    3    4 2  
     4    4    5 1  
     5    6    7 2  
     6    5    6 am 
     7    1    8 1  
     8    3    9 1  
     9    4   10 1  
    10    5   11 1  
    11    6   12 1  
