#      Rotatable Fragment
#      Build by yxyuan
#
# Name:          frag5-693-22/41815
# Creation time: Sat Jun  5 12:53:04 2010


@<TRIPOS>MOLECULE
frag5-693-22/41815
   19    19     1     1     1
SMALL
USER_CHARGES


@<TRIPOS>ATOM
      1 C17        -3.7561    1.4820    0.5641 C.2        1 <1>        0.000
      2 O3         -2.6697    1.3237    0.0342 O.2        1 <1>        0.000
      3 N1         -4.9295    1.0067    0.1035 N.am       1 <1>        0.000
      4 C18        -5.0211    0.2986   -1.1852 C.3        1 <1>        0.000
      5 C19        -5.9807    1.0253   -2.1223 C.3        1 <1>        0.000
      6 N2         -7.2451    1.4594   -1.4813 N.4        1 <1>        0.000
      7 C20        -7.3673    0.8901   -0.1187 C.3        1 <1>        0.000
      8 C21        -6.1938    1.2708    0.7683 C.3        1 <1>        0.000
      9 H          -3.7802    2.0572    1.4896 H.spc      1 <1>        0.000
     10 H          -5.3915   -0.7115   -1.0104 H.spc      1 <1>        0.000
     11 H          -4.0329    0.2656   -1.6439 H.spc      1 <1>        0.000
     12 H          -5.4715    1.9242   -2.4698 H.spc      1 <1>        0.000
     13 H          -6.2460    0.3265   -2.9156 H.spc      1 <1>        0.000
     14 H          -7.2469    2.4772   -1.4137 H.spc      1 <1>        0.000
     15 H          -8.0291    1.1322   -2.0458 H.spc      1 <1>        0.000
     16 H          -7.3892   -0.1962   -0.2052 H.spc      1 <1>        0.000
     17 H          -8.2771    1.2846    0.3338 H.spc      1 <1>        0.000
     18 H          -6.2390    0.6768    1.6811 H.spc      1 <1>        0.000
     19 H          -6.2554    2.3361    0.9906 H.spc      1 <1>        0.000
@<TRIPOS>BOND
     1    6    7 1  
     2    5    6 1  
     3    7    8 1  
     4    1    2 2  
     5    1    3 am 
     6    3    4 1  
     7    3    8 1  
     8    4    5 1  
     9    1    9 1  
    10    4   10 1  
    11    4   11 1  
    12    5   12 1  
    13    5   13 1  
    14    6   14 1  
    15    6   15 1  
    16    7   16 1  
    17    7   17 1  
    18    8   18 1  
    19    8   19 1  
# Name:          frag5-693-22/41815
# Creation time: Sat Jun  5 12:53:04 2010


@<TRIPOS>MOLECULE
frag5-693-22/41815
   19    19     1     1     1
SMALL
USER_CHARGES


@<TRIPOS>ATOM
      1 C17        -3.7459    1.0964    0.6513 C.2        1 <1>        0.000
      2 O3         -2.6816    0.9850    0.0676 O.2        1 <1>        0.000
      3 N1         -4.9374    1.3064    0.0697 N.am       1 <1>        0.000
      4 C18        -6.1948    1.1459    0.7787 C.3        1 <1>        0.000
      5 C19        -7.3404    1.4232   -0.1696 C.3        1 <1>        0.000
      6 N2         -7.2873    0.5803   -1.3857 N.4        1 <1>        0.000
      7 C20        -5.9768    0.6410   -2.0685 C.3        1 <1>        0.000
      8 C21        -4.9990    1.5785   -1.3807 C.3        1 <1>        0.000
      9 H          -3.7287    1.0189    1.7384 H.spc      1 <1>        0.000
     10 H          -6.2349    1.8444    1.6145 H.spc      1 <1>        0.000
     11 H          -6.2729    0.1271    1.1583 H.spc      1 <1>        0.000
     12 H          -8.2707    1.2008    0.3531 H.spc      1 <1>        0.000
     13 H          -7.2746    2.4659   -0.4803 H.spc      1 <1>        0.000
     14 H          -7.4476   -0.3865   -1.1028 H.spc      1 <1>        0.000
     15 H          -7.9942    0.9246   -2.0354 H.spc      1 <1>        0.000
     16 H          -6.1433    1.0143   -3.0790 H.spc      1 <1>        0.000
     17 H          -5.5460   -0.3602   -2.0547 H.spc      1 <1>        0.000
     18 H          -5.3340    2.6049   -1.5304 H.spc      1 <1>        0.000
     19 H          -4.0080    1.4255   -1.8079 H.spc      1 <1>        0.000
@<TRIPOS>BOND
     1    6    7 1  
     2    5    6 1  
     3    7    8 1  
     4    1    2 2  
     5    1    3 am 
     6    3    4 1  
     7    3    8 1  
     8    4    5 1  
     9    1    9 1  
    10    4   10 1  
    11    4   11 1  
    12    5   12 1  
    13    5   13 1  
    14    6   14 1  
    15    6   15 1  
    16    7   16 1  
    17    7   17 1  
    18    8   18 1  
    19    8   19 1  
# Name:          frag5-693-22/41815
# Creation time: Sat Jun  5 12:53:04 2010


@<TRIPOS>MOLECULE
frag5-693-22/41815
   19    19     1     1     1
SMALL
USER_CHARGES


@<TRIPOS>ATOM
      1 C17        -3.6499    1.1747    0.0964 C.2        1 <1>        0.000
      2 O3         -3.4839    2.2586    0.6462 O.2        1 <1>        0.000
      3 N1         -4.8017    0.4458   -0.0492 N.am       1 <1>        0.000
      4 C18        -5.1753   -0.1219   -1.3347 C.3        1 <1>        0.000
      5 C19        -6.1517    0.7455   -2.1398 C.3        1 <1>        0.000
      6 N2         -7.0381    1.6862   -1.4214 N.4        1 <1>        0.000
      7 C20        -6.8842    1.7872    0.0423 C.3        1 <1>        0.000
      8 C21        -5.9785    0.7805    0.7230 C.3        1 <1>        0.000
      9 H          -2.7553    0.7281   -0.3376 H.spc      1 <1>        0.000
     10 H          -5.6736   -1.0709   -1.1366 H.spc      1 <1>        0.000
     11 H          -4.2634   -0.2147   -1.9245 H.spc      1 <1>        0.000
     12 H          -5.5176    1.3776   -2.7615 H.spc      1 <1>        0.000
     13 H          -6.8261    0.0363   -2.6196 H.spc      1 <1>        0.000
     14 H          -6.8085    2.6110   -1.7854 H.spc      1 <1>        0.000
     15 H          -7.9855    1.3405   -1.5739 H.spc      1 <1>        0.000
     16 H          -7.8782    1.6125    0.4541 H.spc      1 <1>        0.000
     17 H          -6.4279    2.7606    0.2224 H.spc      1 <1>        0.000
     18 H          -6.5523   -0.1363    0.8586 H.spc      1 <1>        0.000
     19 H          -5.6400    1.2255    1.6587 H.spc      1 <1>        0.000
@<TRIPOS>BOND
     1    6    7 1  
     2    5    6 1  
     3    7    8 1  
     4    1    2 2  
     5    1    3 am 
     6    3    4 1  
     7    3    8 1  
     8    4    5 1  
     9    1    9 1  
    10    4   10 1  
    11    4   11 1  
    12    5   12 1  
    13    5   13 1  
    14    6   14 1  
    15    6   15 1  
    16    7   16 1  
    17    7   17 1  
    18    8   18 1  
    19    8   19 1  
# Name:          frag5-693-22/41815 -- energy: -1.214626
# Creation time: Sat Jun  5 12:53:04 2010


@<TRIPOS>MOLECULE
frag5-693-22/41815 -- energy: -1.214626
   19    19     1     1     1
SMALL
USER_CHARGES


@<TRIPOS>ATOM
      1 C17        -3.7561    1.4820    0.5641 C.2        1 <1>        0.000
      2 O3         -2.6697    1.3237    0.0342 O.2        1 <1>        0.000
      3 N1         -4.9295    1.0067    0.1035 N.am       1 <1>        0.000
      4 C18        -5.0211    0.2986   -1.1852 C.3        1 <1>        0.000
      5 C19        -5.9807    1.0253   -2.1223 C.3        1 <1>        0.000
      6 N2         -7.2451    1.4594   -1.4813 N.4        1 <1>        0.000
      7 C20        -7.3673    0.8901   -0.1187 C.3        1 <1>        0.000
      8 C21        -6.1938    1.2708    0.7683 C.3        1 <1>        0.000
      9 H          -3.7802    2.0572    1.4896 H.spc      1 <1>        0.000
     10 H          -5.3915   -0.7115   -1.0104 H.spc      1 <1>        0.000
     11 H          -4.0329    0.2656   -1.6439 H.spc      1 <1>        0.000
     12 H          -5.4715    1.9242   -2.4698 H.spc      1 <1>        0.000
     13 H          -6.2460    0.3265   -2.9156 H.spc      1 <1>        0.000
     14 H          -7.2469    2.4772   -1.4137 H.spc      1 <1>        0.000
     15 H          -8.0291    1.1322   -2.0458 H.spc      1 <1>        0.000
     16 H          -7.3892   -0.1962   -0.2052 H.spc      1 <1>        0.000
     17 H          -8.2771    1.2846    0.3338 H.spc      1 <1>        0.000
     18 H          -6.2390    0.6768    1.6811 H.spc      1 <1>        0.000
     19 H          -6.2554    2.3361    0.9906 H.spc      1 <1>        0.000
@<TRIPOS>BOND
     1    6    7 1  
     2    5    6 1  
     3    7    8 1  
     4    1    2 2  
     5    1    3 am 
     6    3    4 1  
     7    3    8 1  
     8    4    5 1  
     9    1    9 1  
    10    4   10 1  
    11    4   11 1  
    12    5   12 1  
    13    5   13 1  
    14    6   14 1  
    15    6   15 1  
    16    7   16 1  
    17    7   17 1  
    18    8   18 1  
    19    8   19 1  
# Name:          frag5-693-22/41815 -- energy: -1.084571
# Creation time: Sat Jun  5 12:53:04 2010


@<TRIPOS>MOLECULE
frag5-693-22/41815 -- energy: -1.084571
   19    19     1     1     1
SMALL
USER_CHARGES


@<TRIPOS>ATOM
      1 C17        -3.7459    1.0964    0.6513 C.2        1 <1>        0.000
      2 O3         -2.6816    0.9850    0.0676 O.2        1 <1>        0.000
      3 N1         -4.9374    1.3064    0.0697 N.am       1 <1>        0.000
      4 C18        -6.1948    1.1459    0.7787 C.3        1 <1>        0.000
      5 C19        -7.3404    1.4232   -0.1696 C.3        1 <1>        0.000
      6 N2         -7.2873    0.5803   -1.3857 N.4        1 <1>        0.000
      7 C20        -5.9768    0.6410   -2.0685 C.3        1 <1>        0.000
      8 C21        -4.9990    1.5785   -1.3807 C.3        1 <1>        0.000
      9 H          -3.7287    1.0189    1.7384 H.spc      1 <1>        0.000
     10 H          -6.2349    1.8444    1.6145 H.spc      1 <1>        0.000
     11 H          -6.2729    0.1271    1.1583 H.spc      1 <1>        0.000
     12 H          -8.2707    1.2008    0.3531 H.spc      1 <1>        0.000
     13 H          -7.2746    2.4659   -0.4803 H.spc      1 <1>        0.000
     14 H          -7.4476   -0.3865   -1.1028 H.spc      1 <1>        0.000
     15 H          -7.9942    0.9246   -2.0354 H.spc      1 <1>        0.000
     16 H          -6.1433    1.0143   -3.0790 H.spc      1 <1>        0.000
     17 H          -5.5460   -0.3602   -2.0547 H.spc      1 <1>        0.000
     18 H          -5.3340    2.6049   -1.5304 H.spc      1 <1>        0.000
     19 H          -4.0080    1.4255   -1.8079 H.spc      1 <1>        0.000
@<TRIPOS>BOND
     1    6    7 1  
     2    5    6 1  
     3    7    8 1  
     4    1    2 2  
     5    1    3 am 
     6    3    4 1  
     7    3    8 1  
     8    4    5 1  
     9    1    9 1  
    10    4   10 1  
    11    4   11 1  
    12    5   12 1  
    13    5   13 1  
    14    6   14 1  
    15    6   15 1  
    16    7   16 1  
    17    7   17 1  
    18    8   18 1  
    19    8   19 1  
# Name:          frag5-693-22/41815 -- energy: -1.739275
# Creation time: Sat Jun  5 12:53:04 2010


@<TRIPOS>MOLECULE
frag5-693-22/41815 -- energy: -1.739275
   19    19     1     1     1
SMALL
USER_CHARGES


@<TRIPOS>ATOM
      1 C17        -3.6499    1.1747    0.0964 C.2        1 <1>        0.000
      2 O3         -3.4839    2.2586    0.6462 O.2        1 <1>        0.000
      3 N1         -4.8017    0.4458   -0.0492 N.am       1 <1>        0.000
      4 C18        -5.1753   -0.1219   -1.3347 C.3        1 <1>        0.000
      5 C19        -6.1517    0.7455   -2.1398 C.3        1 <1>        0.000
      6 N2         -7.0381    1.6862   -1.4214 N.4        1 <1>        0.000
      7 C20        -6.8842    1.7872    0.0423 C.3        1 <1>        0.000
      8 C21        -5.9785    0.7805    0.7230 C.3        1 <1>        0.000
      9 H          -2.7553    0.7281   -0.3376 H.spc      1 <1>        0.000
     10 H          -5.6736   -1.0709   -1.1366 H.spc      1 <1>        0.000
     11 H          -4.2634   -0.2147   -1.9245 H.spc      1 <1>        0.000
     12 H          -5.5176    1.3776   -2.7615 H.spc      1 <1>        0.000
     13 H          -6.8261    0.0363   -2.6196 H.spc      1 <1>        0.000
     14 H          -6.8085    2.6110   -1.7854 H.spc      1 <1>        0.000
     15 H          -7.9855    1.3405   -1.5739 H.spc      1 <1>        0.000
     16 H          -7.8782    1.6125    0.4541 H.spc      1 <1>        0.000
     17 H          -6.4279    2.7606    0.2224 H.spc      1 <1>        0.000
     18 H          -6.5523   -0.1363    0.8586 H.spc      1 <1>        0.000
     19 H          -5.6400    1.2255    1.6587 H.spc      1 <1>        0.000
@<TRIPOS>BOND
     1    6    7 1  
     2    5    6 1  
     3    7    8 1  
     4    1    2 2  
     5    1    3 am 
     6    3    4 1  
     7    3    8 1  
     8    4    5 1  
     9    1    9 1  
    10    4   10 1  
    11    4   11 1  
    12    5   12 1  
    13    5   13 1  
    14    6   14 1  
    15    6   15 1  
    16    7   16 1  
    17    7   17 1  
    18    8   18 1  
    19    8   19 1  
