#      Rotatable Fragment
#      Build by yxyuan
#
# Name:          frag3-119-75/96164
# Creation time: Sat Jun  5 12:52:50 2010


@<TRIPOS>MOLECULE
frag3-119-75/96164
    8     7     1     1     1
SMALL
USER_CHARGES


@<TRIPOS>ATOM
      1 O1         -1.6419   -0.2196    0.5945 O.3        1 <1>        0.000
      2 P1         -2.8861   -0.7712   -0.2086 P.3        1 <1>        0.000
      3 O3         -2.9850    0.0423   -1.5560 O.3        1 <1>        0.000
      4 O4         -2.5722   -2.2810   -0.5529 O.3        1 <1>        0.000
      5 O5         -4.0864   -0.6535    0.5685 O.2        1 <1>        0.000
      6 H          -0.8511   -0.3077    0.0574 H.spc      1 <1>        0.000
      7 H          -2.1678   -0.0580   -2.0497 H.spc      1 <1>        0.000
      8 H          -1.7660   -2.3287   -1.0719 H.spc      1 <1>        0.000
@<TRIPOS>BOND
     1    1    2 1  
     2    2    3 1  
     3    2    4 1  
     4    2    5 2  
     5    1    6 1  
     6    3    7 1  
     7    4    8 1  
# Name:          frag3-119-75/96164 -- energy: -0.384786
# Creation time: Sat Jun  5 12:52:50 2010


@<TRIPOS>MOLECULE
frag3-119-75/96164 -- energy: -0.384786
    8     7     1     1     1
SMALL
USER_CHARGES


@<TRIPOS>ATOM
      1 O1         -1.6419   -0.2196    0.5945 O.3        1 <1>        0.000
      2 P1         -2.8861   -0.7712   -0.2086 P.3        1 <1>        0.000
      3 O3         -2.9850    0.0423   -1.5560 O.3        1 <1>        0.000
      4 O4         -2.5722   -2.2810   -0.5529 O.3        1 <1>        0.000
      5 O5         -4.0864   -0.6535    0.5685 O.2        1 <1>        0.000
      6 H          -0.8511   -0.3077    0.0574 H.spc      1 <1>        0.000
      7 H          -2.1678   -0.0580   -2.0497 H.spc      1 <1>        0.000
      8 H          -1.7660   -2.3287   -1.0719 H.spc      1 <1>        0.000
@<TRIPOS>BOND
     1    1    2 1  
     2    2    3 1  
     3    2    4 1  
     4    2    5 2  
     5    1    6 1  
     6    3    7 1  
     7    4    8 1  
