#      Rotatable Fragment
#      Build by yxyuan
#
# Name:          frag4-371-283/150395
# Creation time: Sat Jun  5 12:53:32 2010


@<TRIPOS>MOLECULE
frag4-371-283/150395
   18    19     1     1     1
SMALL
USER_CHARGES


@<TRIPOS>ATOM
      1 C1         -2.9435    0.4297   -0.1251 C.ar       1 <1>        0.000
      2 C2         -2.9426   -0.9791   -0.0313 C.ar       1 <1>        0.000
      3 O1         -1.7489    1.1276   -0.2627 O.3        1 <1>        0.000
      4 C3         -4.1568    1.1199   -0.0827 C.ar       1 <1>        0.000
      5 O2         -1.7478   -1.6907   -0.0632 O.3        1 <1>        0.000
      6 C4         -4.1562   -1.6589    0.0977 C.ar       1 <1>        0.000
      7 C5         -0.6211    0.3123    0.0706 C.3        1 <1>        0.000
      8 C6         -5.3639    0.4329    0.0457 C.ar       1 <1>        0.000
      9 C7         -0.5813   -1.0709   -0.6087 C.3        1 <1>        0.000
     10 C8         -5.3637   -0.9615    0.1356 C.ar       1 <1>        0.000
     11 H          -4.1605    2.2078   -0.1507 H.spc      1 <1>        0.000
     12 H          -4.1596   -2.7465    0.1695 H.spc      1 <1>        0.000
     13 H           0.2636    0.8512   -0.2686 H.spc      1 <1>        0.000
     14 H          -0.6749    0.1305    1.1440 H.spc      1 <1>        0.000
     15 H          -6.3048    0.9823    0.0758 H.spc      1 <1>        0.000
     16 H           0.3374   -1.6250   -0.4162 H.spc      1 <1>        0.000
     17 H          -0.5822   -1.0221   -1.6976 H.spc      1 <1>        0.000
     18 H          -6.3045   -1.5028    0.2351 H.spc      1 <1>        0.000
@<TRIPOS>BOND
     1    6   10 ar 
     2    7    9 1  
     3    8   10 ar 
     4    5    9 1  
     5    1    2 ar 
     6    1    4 ar 
     7    1    3 1  
     8    2    5 1  
     9    2    6 ar 
    10    3    7 1  
    11    4    8 ar 
    12    4   11 1  
    13    6   12 1  
    14    7   13 1  
    15    7   14 1  
    16    8   15 1  
    17    9   16 1  
    18    9   17 1  
    19   10   18 1  
# Name:          frag4-371-283/150395 -- energy: -0.230863
# Creation time: Sat Jun  5 12:53:32 2010


@<TRIPOS>MOLECULE
frag4-371-283/150395 -- energy: -0.230863
   18    19     1     1     1
SMALL
USER_CHARGES


@<TRIPOS>ATOM
      1 C1         -2.9435    0.4297   -0.1251 C.ar       1 <1>        0.000
      2 C2         -2.9426   -0.9791   -0.0313 C.ar       1 <1>        0.000
      3 O1         -1.7489    1.1276   -0.2627 O.3        1 <1>        0.000
      4 C3         -4.1568    1.1199   -0.0827 C.ar       1 <1>        0.000
      5 O2         -1.7478   -1.6907   -0.0632 O.3        1 <1>        0.000
      6 C4         -4.1562   -1.6589    0.0977 C.ar       1 <1>        0.000
      7 C5         -0.6211    0.3123    0.0706 C.3        1 <1>        0.000
      8 C6         -5.3639    0.4329    0.0457 C.ar       1 <1>        0.000
      9 C7         -0.5813   -1.0709   -0.6087 C.3        1 <1>        0.000
     10 C8         -5.3637   -0.9615    0.1356 C.ar       1 <1>        0.000
     11 H          -4.1605    2.2078   -0.1507 H.spc      1 <1>        0.000
     12 H          -4.1596   -2.7465    0.1695 H.spc      1 <1>        0.000
     13 H           0.2636    0.8512   -0.2686 H.spc      1 <1>        0.000
     14 H          -0.6749    0.1305    1.1440 H.spc      1 <1>        0.000
     15 H          -6.3048    0.9823    0.0758 H.spc      1 <1>        0.000
     16 H           0.3374   -1.6250   -0.4162 H.spc      1 <1>        0.000
     17 H          -0.5822   -1.0221   -1.6976 H.spc      1 <1>        0.000
     18 H          -6.3045   -1.5028    0.2351 H.spc      1 <1>        0.000
@<TRIPOS>BOND
     1    6   10 ar 
     2    7    9 1  
     3    8   10 ar 
     4    5    9 1  
     5    1    2 ar 
     6    1    4 ar 
     7    1    3 1  
     8    2    5 1  
     9    2    6 ar 
    10    3    7 1  
    11    4    8 ar 
    12    4   11 1  
    13    6   12 1  
    14    7   13 1  
    15    7   14 1  
    16    8   15 1  
    17    9   16 1  
    18    9   17 1  
    19   10   18 1  
