#      Rotatable Fragment
#      Build by yxyuan
#
# Name:          frag3-143-22/31924
# Creation time: Sat Jun  5 12:52:04 2010


@<TRIPOS>MOLECULE
frag3-143-22/31924
    8     7     1     1     1
SMALL
USER_CHARGES


@<TRIPOS>ATOM
      1 S1         -1.7387   -0.2165    0.0420 S.3        1 <1>        0.000
      2 P1         -3.4272   -1.2594   -0.3351 P.3        1 <1>        0.000
      3 S2         -4.9568   -0.0765   -0.3955 S.2        1 <1>        0.000
      4 O1         -3.7369   -2.4080    0.7302 O.3        1 <1>        0.000
      5 O2         -3.3818   -2.0491   -1.7292 O.3        1 <1>        0.000
      6 H          -0.7032   -1.0504    0.0785 H.spc      1 <1>        0.000
      7 H          -2.9897   -3.0089    0.7776 H.spc      1 <1>        0.000
      8 H          -2.6311   -2.6474   -1.7324 H.spc      1 <1>        0.000
@<TRIPOS>BOND
     1    1    2 1  
     2    2    3 2  
     3    2    4 1  
     4    2    5 1  
     5    1    6 1  
     6    4    7 1  
     7    5    8 1  
# Name:          frag3-143-22/31924 -- energy: -0.346498
# Creation time: Sat Jun  5 12:52:04 2010


@<TRIPOS>MOLECULE
frag3-143-22/31924 -- energy: -0.346498
    8     7     1     1     1
SMALL
USER_CHARGES


@<TRIPOS>ATOM
      1 S1         -1.7387   -0.2165    0.0420 S.3        1 <1>        0.000
      2 P1         -3.4272   -1.2594   -0.3351 P.3        1 <1>        0.000
      3 S2         -4.9568   -0.0765   -0.3955 S.2        1 <1>        0.000
      4 O1         -3.7369   -2.4080    0.7302 O.3        1 <1>        0.000
      5 O2         -3.3818   -2.0491   -1.7292 O.3        1 <1>        0.000
      6 H          -0.7032   -1.0504    0.0785 H.spc      1 <1>        0.000
      7 H          -2.9897   -3.0089    0.7776 H.spc      1 <1>        0.000
      8 H          -2.6311   -2.6474   -1.7324 H.spc      1 <1>        0.000
@<TRIPOS>BOND
     1    1    2 1  
     2    2    3 2  
     3    2    4 1  
     4    2    5 1  
     5    1    6 1  
     6    4    7 1  
     7    5    8 1  
