#      Rotatable Fragment
#      Build by yxyuan
#
# Name:          frag2-043-209/319335
# Creation time: Sat Jun  5 12:53:35 2010


@<TRIPOS>MOLECULE
frag2-043-209/319335
   10    10     1     1     1
SMALL
USER_CHARGES


@<TRIPOS>ATOM
      1 C14         0.7287    0.7478   -0.0847 C.ar       1 <1>        0.000
      2 C15        -0.6613    0.8102   -0.0713 C.ar       1 <1>        0.000
      3 C16         1.3401   -0.4872    0.0278 C.ar       1 <1>        0.000
      4 C17        -1.3782   -0.3658    0.0549 C.ar       1 <1>        0.000
      5 N4          0.6240   -1.6178    0.1665 N.ar       1 <1>        0.000
      6 N5         -0.7629   -1.5574    0.1670 N.ar       1 <1>        0.000
      7 H           1.3243    1.6554   -0.1821 H.spc      1 <1>        0.000
      8 H          -1.1753    1.7675   -0.1586 H.spc      1 <1>        0.000
      9 H           2.4282   -0.5463    0.0035 H.spc      1 <1>        0.000
     10 H          -2.4675   -0.3265    0.0638 H.spc      1 <1>        0.000
@<TRIPOS>BOND
     1    1    2 ar 
     2    1    3 ar 
     3    2    4 ar 
     4    3    5 ar 
     5    4    6 ar 
     6    5    6 ar 
     7    1    7 1  
     8    2    8 1  
     9    3    9 1  
    10    4   10 1  
# Name:          frag2-043-209/319335 -- energy: 0.255649
# Creation time: Sat Jun  5 12:53:35 2010


@<TRIPOS>MOLECULE
frag2-043-209/319335 -- energy: 0.255649
   10    10     1     1     1
SMALL
USER_CHARGES


@<TRIPOS>ATOM
      1 C14         0.7287    0.7478   -0.0847 C.ar       1 <1>        0.000
      2 C15        -0.6613    0.8102   -0.0713 C.ar       1 <1>        0.000
      3 C16         1.3401   -0.4872    0.0278 C.ar       1 <1>        0.000
      4 C17        -1.3782   -0.3658    0.0549 C.ar       1 <1>        0.000
      5 N4          0.6240   -1.6178    0.1665 N.ar       1 <1>        0.000
      6 N5         -0.7629   -1.5574    0.1670 N.ar       1 <1>        0.000
      7 H           1.3243    1.6554   -0.1821 H.spc      1 <1>        0.000
      8 H          -1.1753    1.7675   -0.1586 H.spc      1 <1>        0.000
      9 H           2.4282   -0.5463    0.0035 H.spc      1 <1>        0.000
     10 H          -2.4675   -0.3265    0.0638 H.spc      1 <1>        0.000
@<TRIPOS>BOND
     1    1    2 ar 
     2    1    3 ar 
     3    2    4 ar 
     4    3    5 ar 
     5    4    6 ar 
     6    5    6 ar 
     7    1    7 1  
     8    2    8 1  
     9    3    9 1  
    10    4   10 1  
