#      Rotatable Fragment
#      Build by yxyuan
#
# Name:          frag2-082-1/319335
# Creation time: Sat Jun  5 12:52:04 2010


@<TRIPOS>MOLECULE
frag2-082-1/319335
   30    33     1     1     1
SMALL
USER_CHARGES


@<TRIPOS>ATOM
      1 C1         -0.1905   -0.2255   -0.0205 C.ar       1 <1>        0.000
      2 C2         -0.1906    1.1768    0.0132 C.ar       1 <1>        0.000
      3 C3         -1.3941   -0.9378   -0.0838 C.ar       1 <1>        0.000
      4 C4          1.0182   -0.9274    0.0192 C.ar       1 <1>        0.000
      5 C5          1.0300    1.8689   -0.1042 C.ar       1 <1>        0.000
      6 C6         -1.4255    1.8222    0.1783 C.ar       1 <1>        0.000
      7 C7         -2.6213   -0.2703   -0.0428 C.ar       1 <1>        0.000
      8 C17        -5.0463   -0.2988   -0.0610 C.ar       1 <1>        0.000
      9 C9          2.2255   -0.2339    0.1004 C.ar       1 <1>        0.000
     10 C10         2.2356    1.1632    0.0360 C.ar       1 <1>        0.000
     11 C11         1.1081    3.2460   -0.3663 C.ar       1 <1>        0.000
     12 C12        -2.6347    1.1217    0.0936 C.ar       1 <1>        0.000
     13 C13        -3.8269   -0.9775   -0.1284 C.ar       1 <1>        0.000
     14 C14         3.4588    1.8417    0.1066 C.ar       1 <1>        0.000
     15 C15         2.3233    3.9303   -0.2766 C.ar       1 <1>        0.000
     16 C16        -3.8597    1.7987    0.1483 C.ar       1 <1>        0.000
     17 C19         3.5017    3.2314   -0.0122 C.ar       1 <1>        0.000
     18 C20        -5.0623    1.0910    0.0759 C.ar       1 <1>        0.000
     19 H          -1.3739   -2.0245   -0.1659 H.spc      1 <1>        0.000
     20 H           1.0169   -2.0169   -0.0133 H.spc      1 <1>        0.000
     21 H          -1.4438    2.8938    0.3771 H.spc      1 <1>        0.000
     22 H          -5.9834   -0.8530   -0.1152 H.spc      1 <1>        0.000
     23 H           3.1615   -0.7809    0.2141 H.spc      1 <1>        0.000
     24 H           0.2058    3.7905   -0.6444 H.spc      1 <1>        0.000
     25 H          -3.8140   -2.0608   -0.2480 H.spc      1 <1>        0.000
     26 H           4.3819    1.2814    0.2551 H.spc      1 <1>        0.000
     27 H           2.3506    5.0113   -0.4133 H.spc      1 <1>        0.000
     28 H          -3.8749    2.8840    0.2479 H.spc      1 <1>        0.000
     29 H           4.4454    3.7651    0.1003 H.spc      1 <1>        0.000
     30 H          -6.0122    1.6232    0.1262 H.spc      1 <1>        0.000
@<TRIPOS>BOND
     1   16   18 ar 
     2    5   10 ar 
     3    8   18 ar 
     4    2    6 ar 
     5    3    7 ar 
     6   15   17 ar 
     7   13    8 ar 
     8   14   17 ar 
     9    5   11 ar 
    10    7   12 ar 
    11    9   10 ar 
    12    6   12 ar 
    13    7   13 ar 
    14   10   14 ar 
    15    4    9 ar 
    16    1    2 ar 
    17    2    5 ar 
    18   11   15 ar 
    19   12   16 ar 
    20    1    4 ar 
    21    1    3 ar 
    22    3   19 1  
    23    4   20 1  
    24    6   21 1  
    25    8   22 1  
    26    9   23 1  
    27   11   24 1  
    28   13   25 1  
    29   14   26 1  
    30   15   27 1  
    31   16   28 1  
    32   17   29 1  
    33   18   30 1  
# Name:          frag2-082-1/319335 -- energy: -1.377925
# Creation time: Sat Jun  5 12:52:04 2010


@<TRIPOS>MOLECULE
frag2-082-1/319335 -- energy: -1.377925
   30    33     1     1     1
SMALL
USER_CHARGES


@<TRIPOS>ATOM
      1 C1         -0.1905   -0.2255   -0.0205 C.ar       1 <1>        0.000
      2 C2         -0.1906    1.1768    0.0132 C.ar       1 <1>        0.000
      3 C3         -1.3941   -0.9378   -0.0838 C.ar       1 <1>        0.000
      4 C4          1.0182   -0.9274    0.0192 C.ar       1 <1>        0.000
      5 C5          1.0300    1.8689   -0.1042 C.ar       1 <1>        0.000
      6 C6         -1.4255    1.8222    0.1783 C.ar       1 <1>        0.000
      7 C7         -2.6213   -0.2703   -0.0428 C.ar       1 <1>        0.000
      8 C17        -5.0463   -0.2988   -0.0610 C.ar       1 <1>        0.000
      9 C9          2.2255   -0.2339    0.1004 C.ar       1 <1>        0.000
     10 C10         2.2356    1.1632    0.0360 C.ar       1 <1>        0.000
     11 C11         1.1081    3.2460   -0.3663 C.ar       1 <1>        0.000
     12 C12        -2.6347    1.1217    0.0936 C.ar       1 <1>        0.000
     13 C13        -3.8269   -0.9775   -0.1284 C.ar       1 <1>        0.000
     14 C14         3.4588    1.8417    0.1066 C.ar       1 <1>        0.000
     15 C15         2.3233    3.9303   -0.2766 C.ar       1 <1>        0.000
     16 C16        -3.8597    1.7987    0.1483 C.ar       1 <1>        0.000
     17 C19         3.5017    3.2314   -0.0122 C.ar       1 <1>        0.000
     18 C20        -5.0623    1.0910    0.0759 C.ar       1 <1>        0.000
     19 H          -1.3739   -2.0245   -0.1659 H.spc      1 <1>        0.000
     20 H           1.0169   -2.0169   -0.0133 H.spc      1 <1>        0.000
     21 H          -1.4438    2.8938    0.3771 H.spc      1 <1>        0.000
     22 H          -5.9834   -0.8530   -0.1152 H.spc      1 <1>        0.000
     23 H           3.1615   -0.7809    0.2141 H.spc      1 <1>        0.000
     24 H           0.2058    3.7905   -0.6444 H.spc      1 <1>        0.000
     25 H          -3.8140   -2.0608   -0.2480 H.spc      1 <1>        0.000
     26 H           4.3819    1.2814    0.2551 H.spc      1 <1>        0.000
     27 H           2.3506    5.0113   -0.4133 H.spc      1 <1>        0.000
     28 H          -3.8749    2.8840    0.2479 H.spc      1 <1>        0.000
     29 H           4.4454    3.7651    0.1003 H.spc      1 <1>        0.000
     30 H          -6.0122    1.6232    0.1262 H.spc      1 <1>        0.000
@<TRIPOS>BOND
     1   16   18 ar 
     2    5   10 ar 
     3    8   18 ar 
     4    2    6 ar 
     5    3    7 ar 
     6   15   17 ar 
     7   13    8 ar 
     8   14   17 ar 
     9    5   11 ar 
    10    7   12 ar 
    11    9   10 ar 
    12    6   12 ar 
    13    7   13 ar 
    14   10   14 ar 
    15    4    9 ar 
    16    1    2 ar 
    17    2    5 ar 
    18   11   15 ar 
    19   12   16 ar 
    20    1    4 ar 
    21    1    3 ar 
    22    3   19 1  
    23    4   20 1  
    24    6   21 1  
    25    8   22 1  
    26    9   23 1  
    27   11   24 1  
    28   13   25 1  
    29   14   26 1  
    30   15   27 1  
    31   16   28 1  
    32   17   29 1  
    33   18   30 1  
