#      Rotatable Fragment
#      Build by yxyuan
#
# Name:          frag3-136-28/31924
# Creation time: Sat Jun  5 12:52:03 2010


@<TRIPOS>MOLECULE
frag3-136-28/31924
   13    12     1     1     1
SMALL
USER_CHARGES


@<TRIPOS>ATOM
      1 P1         -2.7463   -1.4899   -0.7737 P.3        1 <1>        0.000
      2 O1         -1.8749   -2.2017   -1.6831 O.2        1 <1>        0.000
      3 O2         -3.4007   -2.3695    0.3208 O.3        1 <1>        0.000
      4 P2         -4.8353   -2.0592    0.8657 P.3        1 <1>        0.000
      5 O3         -5.0428   -0.6130    0.6582 O.2        1 <1>        0.000
      6 O4         -4.9776   -2.3234    2.4046 O.3        1 <1>        0.000
      7 O5         -5.8773   -2.9023    0.0450 O.3        1 <1>        0.000
      8 O6         -1.9907   -0.3080   -0.0721 O.3        1 <1>        0.000
      9 O10        -3.9656   -0.7880   -1.5556 O.3        1 <1>        0.000
     10 H          -4.8485   -3.2582    2.5809 H.spc      1 <1>        0.000
     11 H          -5.7213   -3.8373    0.1968 H.spc      1 <1>        0.000
     12 H          -2.5914    0.1454    0.5239 H.spc      1 <1>        0.000
     13 H          -4.5238   -0.3254   -0.9263 H.spc      1 <1>        0.000
@<TRIPOS>BOND
     1    1    2 2  
     2    1    3 1  
     3    1    8 1  
     4    1    9 1  
     5    3    4 1  
     6    4    5 2  
     7    4    6 1  
     8    4    7 1  
     9    6   10 1  
    10    7   11 1  
    11    8   12 1  
    12    9   13 1  
# Name:          frag3-136-28/31924
# Creation time: Sat Jun  5 12:52:03 2010


@<TRIPOS>MOLECULE
frag3-136-28/31924
   13    12     1     1     1
SMALL
USER_CHARGES


@<TRIPOS>ATOM
      1 P1         -2.8276   -1.4792   -0.8559 P.3        1 <1>        0.000
      2 O1         -1.5610   -2.0666   -1.2420 O.2        1 <1>        0.000
      3 O2         -3.8489   -2.4988   -0.3069 O.3        1 <1>        0.000
      4 P2         -4.8467   -2.1068    0.8185 P.3        1 <1>        0.000
      5 O3         -5.0733   -0.6456    0.6803 O.2        1 <1>        0.000
      6 O4         -4.2875   -2.3305    2.2759 O.3        1 <1>        0.000
      7 O5         -6.2576   -2.7612    0.6600 O.3        1 <1>        0.000
      8 O6         -2.5953   -0.4351    0.3069 O.3        1 <1>        0.000
      9 O10        -3.4133   -0.7313   -2.1268 O.3        1 <1>        0.000
     10 H          -4.1241   -3.2663    2.4146 H.spc      1 <1>        0.000
     11 H          -6.1778   -3.7145    0.7403 H.spc      1 <1>        0.000
     12 H          -3.4363   -0.0478    0.5604 H.spc      1 <1>        0.000
     13 H          -4.2558   -0.3305   -1.9007 H.spc      1 <1>        0.000
@<TRIPOS>BOND
     1    1    2 2  
     2    1    3 1  
     3    1    8 1  
     4    1    9 1  
     5    3    4 1  
     6    4    5 2  
     7    4    6 1  
     8    4    7 1  
     9    6   10 1  
    10    7   11 1  
    11    8   12 1  
    12    9   13 1  
# Name:          frag3-136-28/31924
# Creation time: Sat Jun  5 12:52:03 2010


@<TRIPOS>MOLECULE
frag3-136-28/31924
   13    12     1     1     1
SMALL
USER_CHARGES


@<TRIPOS>ATOM
      1 P1         -2.8896   -1.4345   -0.9518 P.3        1 <1>        0.000
      2 O1         -1.8074   -2.1615   -0.3426 O.2        1 <1>        0.000
      3 O2         -4.2498   -2.1347   -0.5871 O.3        1 <1>        0.000
      4 P2         -4.8670   -2.0058    0.8487 P.3        1 <1>        0.000
      5 O3         -4.6842   -0.6380    1.2873 O.2        1 <1>        0.000
      6 O4         -4.1122   -3.0232    1.8173 O.3        1 <1>        0.000
      7 O5         -6.3659   -2.4480    0.8423 O.3        1 <1>        0.000
      8 O6         -2.9878   -0.0184   -0.2293 O.3        1 <1>        0.000
      9 O10        -2.7474   -1.1910   -2.4750 O.3        1 <1>        0.000
     10 H          -4.2486   -3.9209    1.5056 H.spc      1 <1>        0.000
     11 H          -6.4285   -3.3586    0.5448 H.spc      1 <1>        0.000
     12 H          -3.7043    0.4888   -0.6178 H.spc      1 <1>        0.000
     13 H          -3.5103   -0.7022   -2.7924 H.spc      1 <1>        0.000
@<TRIPOS>BOND
     1    1    2 2  
     2    1    3 1  
     3    1    8 1  
     4    1    9 1  
     5    3    4 1  
     6    4    5 2  
     7    4    6 1  
     8    4    7 1  
     9    6   10 1  
    10    7   11 1  
    11    8   12 1  
    12    9   13 1  
# Name:          frag3-136-28/31924
# Creation time: Sat Jun  5 12:52:03 2010


@<TRIPOS>MOLECULE
frag3-136-28/31924
   13    12     1     1     1
SMALL
USER_CHARGES


@<TRIPOS>ATOM
      1 P1         -2.7828   -1.4510   -0.8222 P.3        1 <1>        0.000
      2 O1         -1.6955   -2.1189   -1.4879 O.2        1 <1>        0.000
      3 O2         -3.9812   -2.3816   -0.4798 O.3        1 <1>        0.000
      4 P2         -4.9781   -2.0380    0.6773 P.3        1 <1>        0.000
      5 O3         -5.6960   -0.8256    0.3395 O.2        1 <1>        0.000
      6 O4         -4.0789   -1.8267    1.9941 O.3        1 <1>        0.000
      7 O5         -5.9018   -3.2398    1.0341 O.3        1 <1>        0.000
      8 O6         -2.2422   -0.9452    0.5789 O.3        1 <1>        0.000
      9 O10        -3.3546   -0.2283   -1.6244 O.3        1 <1>        0.000
     10 H          -3.6142   -2.6418    2.1971 H.spc      1 <1>        0.000
     11 H          -5.3621   -4.0049    1.2461 H.spc      1 <1>        0.000
     12 H          -2.9473   -0.4937    1.0486 H.spc      1 <1>        0.000
     13 H          -4.0732    0.1706   -1.1283 H.spc      1 <1>        0.000
@<TRIPOS>BOND
     1    1    2 2  
     2    1    3 1  
     3    1    8 1  
     4    1    9 1  
     5    3    4 1  
     6    4    5 2  
     7    4    6 1  
     8    4    7 1  
     9    6   10 1  
    10    7   11 1  
    11    8   12 1  
    12    9   13 1  
# Name:          frag3-136-28/31924
# Creation time: Sat Jun  5 12:52:03 2010


@<TRIPOS>MOLECULE
frag3-136-28/31924
   13    12     1     1     1
SMALL
USER_CHARGES


@<TRIPOS>ATOM
      1 P1         -4.9791   -1.9840    0.7444 P.3        1 <1>        0.000
      2 O1         -5.4948   -0.6885    1.1064 O.2        1 <1>        0.000
      3 O2         -4.3240   -1.9459   -0.6621 O.3        1 <1>        0.000
      4 P2         -2.8759   -1.4239   -0.8821 P.3        1 <1>        0.000
      5 O3         -1.9226   -2.5090   -0.8592 O.2        1 <1>        0.000
      6 O4         -2.4991   -0.4362    0.3282 O.3        1 <1>        0.000
      7 O5         -2.8060   -0.5550   -2.1772 O.3        1 <1>        0.000
      8 O6         -3.7939   -2.3620    1.7335 O.3        1 <1>        0.000
      9 O10        -6.0159   -3.1505    0.8779 O.3        1 <1>        0.000
     10 H          -3.1153    0.2998    0.3428 H.spc      1 <1>        0.000
     11 H          -3.4620    0.1441   -2.1279 H.spc      1 <1>        0.000
     12 H          -3.4450   -3.2248    1.4981 H.spc      1 <1>        0.000
     13 H          -5.6009   -3.9770    0.6206 H.spc      1 <1>        0.000
@<TRIPOS>BOND
     1    1    2 2  
     2    1    3 1  
     3    1    8 1  
     4    1    9 1  
     5    3    4 1  
     6    4    5 2  
     7    4    6 1  
     8    4    7 1  
     9    6   10 1  
    10    7   11 1  
    11    8   12 1  
    12    9   13 1  
# Name:          frag3-136-28/31924
# Creation time: Sat Jun  5 12:52:03 2010


@<TRIPOS>MOLECULE
frag3-136-28/31924
   13    12     1     1     1
SMALL
USER_CHARGES


@<TRIPOS>ATOM
      1 P1         -2.7629   -1.3657   -0.7340 P.3        1 <1>        0.000
      2 O1         -2.6626   -0.3963    0.3692 O.2        1 <1>        0.000
      3 O2         -3.7233   -2.4916   -0.2464 O.3        1 <1>        0.000
      4 P2         -4.9160   -2.1735    0.7116 P.3        1 <1>        0.000
      5 O3         -5.3958   -0.8306    0.3614 O.2        1 <1>        0.000
      6 O4         -4.3463   -2.1941    2.1949 O.3        1 <1>        0.000
      7 O5         -6.1302   -3.1472    0.5973 O.3        1 <1>        0.000
      8 O6         -3.4581   -0.6476   -1.9455 O.3        1 <1>        0.000
      9 O10        -1.3161   -1.8084   -1.0987 O.3        1 <1>        0.000
     10 H          -4.0379   -3.0784    2.4058 H.spc      1 <1>        0.000
     11 H          -5.8476   -4.0370    0.8210 H.spc      1 <1>        0.000
     12 H          -3.5347   -1.2620   -2.6791 H.spc      1 <1>        0.000
     13 H          -1.3487   -2.4432   -1.8181 H.spc      1 <1>        0.000
@<TRIPOS>BOND
     1    1    2 2  
     2    1    3 1  
     3    1    8 1  
     4    1    9 1  
     5    3    4 1  
     6    4    5 2  
     7    4    6 1  
     8    4    7 1  
     9    6   10 1  
    10    7   11 1  
    11    8   12 1  
    12    9   13 1  
# Name:          frag3-136-28/31924
# Creation time: Sat Jun  5 12:52:03 2010


@<TRIPOS>MOLECULE
frag3-136-28/31924
   13    12     1     1     1
SMALL
USER_CHARGES


@<TRIPOS>ATOM
      1 P1         -4.8439   -2.0075    0.8865 P.3        1 <1>        0.000
      2 O1         -5.0806   -0.6065    0.6877 O.2        1 <1>        0.000
      3 O2         -3.4214   -2.3318    0.3193 O.3        1 <1>        0.000
      4 P2         -2.7734   -1.3924   -0.7565 P.3        1 <1>        0.000
      5 O3         -2.6608   -0.0716   -0.1971 O.2        1 <1>        0.000
      6 O4         -3.7366   -1.4366   -2.0278 O.3        1 <1>        0.000
      7 O5         -1.3467   -1.9051   -1.1457 O.3        1 <1>        0.000
      8 O6         -4.9611   -2.3964    2.3749 O.3        1 <1>        0.000
      9 O10        -5.8867   -2.9072    0.0686 O.3        1 <1>        0.000
     10 H          -3.7795   -2.3347   -2.3643 H.spc      1 <1>        0.000
     11 H          -1.4157   -2.7865   -1.5197 H.spc      1 <1>        0.000
     12 H          -4.7975   -3.3373    2.4725 H.spc      1 <1>        0.000
     13 H          -5.6985   -3.8355    0.2252 H.spc      1 <1>        0.000
@<TRIPOS>BOND
     1    1    2 2  
     2    1    3 1  
     3    1    8 1  
     4    1    9 1  
     5    3    4 1  
     6    4    5 2  
     7    4    6 1  
     8    4    7 1  
     9    6   10 1  
    10    7   11 1  
    11    8   12 1  
    12    9   13 1  
# Name:          frag3-136-28/31924
# Creation time: Sat Jun  5 12:52:03 2010


@<TRIPOS>MOLECULE
frag3-136-28/31924
   13    12     1     1     1
SMALL
USER_CHARGES


@<TRIPOS>ATOM
      1 P1         -2.7396   -1.3904   -0.7109 P.3        1 <1>        0.000
      2 O1         -2.5011   -2.6110   -1.4441 O.2        1 <1>        0.000
      3 O2         -3.3110   -1.6972    0.6968 O.3        1 <1>        0.000
      4 P2         -4.8203   -1.9516    0.9356 P.3        1 <1>        0.000
      5 O3         -5.5585   -0.7123    0.7852 O.2        1 <1>        0.000
      6 O4         -5.1870   -2.7158    2.2457 O.3        1 <1>        0.000
      7 O5         -5.2473   -2.9916   -0.2118 O.3        1 <1>        0.000
      8 O6         -1.4813   -0.4920   -0.6593 O.3        1 <1>        0.000
      9 O10        -3.8650   -0.4931   -1.4272 O.3        1 <1>        0.000
     10 H          -4.6733   -3.5252    2.2972 H.spc      1 <1>        0.000
     11 H          -4.7531   -3.8074   -0.1027 H.spc      1 <1>        0.000
     12 H          -1.6798    0.3067   -0.1651 H.spc      1 <1>        0.000
     13 H          -4.0031    0.3101   -0.9198 H.spc      1 <1>        0.000
@<TRIPOS>BOND
     1    1    2 2  
     2    1    3 1  
     3    1    8 1  
     4    1    9 1  
     5    3    4 1  
     6    4    5 2  
     7    4    6 1  
     8    4    7 1  
     9    6   10 1  
    10    7   11 1  
    11    8   12 1  
    12    9   13 1  
# Name:          frag3-136-28/31924
# Creation time: Sat Jun  5 12:52:03 2010


@<TRIPOS>MOLECULE
frag3-136-28/31924
   13    12     1     1     1
SMALL
USER_CHARGES


@<TRIPOS>ATOM
      1 P1         -2.7493   -1.4857   -0.7577 P.3        1 <1>        0.000
      2 O1         -1.8855   -2.4956   -1.3388 O.2        1 <1>        0.000
      3 O2         -3.2537   -1.8415    0.6440 O.3        1 <1>        0.000
      4 P2         -4.7499   -1.9375    1.0067 P.3        1 <1>        0.000
      5 O3         -5.2198   -0.6616    1.5224 O.2        1 <1>        0.000
      6 O4         -5.1907   -3.0280    2.0129 O.3        1 <1>        0.000
      7 O5         -5.5699   -2.1084   -0.3381 O.3        1 <1>        0.000
      8 O6         -2.0970   -0.0850   -0.7897 O.3        1 <1>        0.000
      9 O10        -3.9954   -1.4118   -1.7520 O.3        1 <1>        0.000
     10 H          -4.8954   -3.8869    1.7019 H.spc      1 <1>        0.000
     11 H          -5.3244   -2.9359   -0.7583 H.spc      1 <1>        0.000
     12 H          -2.6961    0.5548   -0.3981 H.spc      1 <1>        0.000
     13 H          -4.6203   -0.7570   -1.4320 H.spc      1 <1>        0.000
@<TRIPOS>BOND
     1    1    2 2  
     2    1    3 1  
     3    1    8 1  
     4    1    9 1  
     5    3    4 1  
     6    4    5 2  
     7    4    6 1  
     8    4    7 1  
     9    6   10 1  
    10    7   11 1  
    11    8   12 1  
    12    9   13 1  
# Name:          frag3-136-28/31924 -- energy: 0.038527
# Creation time: Sat Jun  5 12:52:03 2010


@<TRIPOS>MOLECULE
frag3-136-28/31924 -- energy: 0.038527
   13    12     1     1     1
SMALL
USER_CHARGES


@<TRIPOS>ATOM
      1 P1         -2.8896   -1.4345   -0.9518 P.3        1 <1>        0.000
      2 O1         -1.8074   -2.1615   -0.3426 O.2        1 <1>        0.000
      3 O2         -4.2498   -2.1347   -0.5871 O.3        1 <1>        0.000
      4 P2         -4.8670   -2.0058    0.8487 P.3        1 <1>        0.000
      5 O3         -4.6842   -0.6380    1.2873 O.2        1 <1>        0.000
      6 O4         -4.1122   -3.0232    1.8173 O.3        1 <1>        0.000
      7 O5         -6.3659   -2.4480    0.8423 O.3        1 <1>        0.000
      8 O6         -2.9878   -0.0184   -0.2293 O.3        1 <1>        0.000
      9 O10        -2.7474   -1.1910   -2.4750 O.3        1 <1>        0.000
     10 H          -4.2486   -3.9209    1.5056 H.spc      1 <1>        0.000
     11 H          -6.4285   -3.3586    0.5448 H.spc      1 <1>        0.000
     12 H          -3.7043    0.4888   -0.6178 H.spc      1 <1>        0.000
     13 H          -3.5103   -0.7022   -2.7924 H.spc      1 <1>        0.000
@<TRIPOS>BOND
     1    1    2 2  
     2    1    3 1  
     3    1    8 1  
     4    1    9 1  
     5    3    4 1  
     6    4    5 2  
     7    4    6 1  
     8    4    7 1  
     9    6   10 1  
    10    7   11 1  
    11    8   12 1  
    12    9   13 1  
# Name:          frag3-136-28/31924 -- energy: 1.184421
# Creation time: Sat Jun  5 12:52:03 2010


@<TRIPOS>MOLECULE
frag3-136-28/31924 -- energy: 1.184421
   13    12     1     1     1
SMALL
USER_CHARGES


@<TRIPOS>ATOM
      1 P1         -2.7828   -1.4510   -0.8222 P.3        1 <1>        0.000
      2 O1         -1.6955   -2.1189   -1.4879 O.2        1 <1>        0.000
      3 O2         -3.9812   -2.3816   -0.4798 O.3        1 <1>        0.000
      4 P2         -4.9781   -2.0380    0.6773 P.3        1 <1>        0.000
      5 O3         -5.6960   -0.8256    0.3395 O.2        1 <1>        0.000
      6 O4         -4.0789   -1.8267    1.9941 O.3        1 <1>        0.000
      7 O5         -5.9018   -3.2398    1.0341 O.3        1 <1>        0.000
      8 O6         -2.2422   -0.9452    0.5789 O.3        1 <1>        0.000
      9 O10        -3.3546   -0.2283   -1.6244 O.3        1 <1>        0.000
     10 H          -3.6142   -2.6418    2.1971 H.spc      1 <1>        0.000
     11 H          -5.3621   -4.0049    1.2461 H.spc      1 <1>        0.000
     12 H          -2.9473   -0.4937    1.0486 H.spc      1 <1>        0.000
     13 H          -4.0732    0.1706   -1.1283 H.spc      1 <1>        0.000
@<TRIPOS>BOND
     1    1    2 2  
     2    1    3 1  
     3    1    8 1  
     4    1    9 1  
     5    3    4 1  
     6    4    5 2  
     7    4    6 1  
     8    4    7 1  
     9    6   10 1  
    10    7   11 1  
    11    8   12 1  
    12    9   13 1  
# Name:          frag3-136-28/31924 -- energy: -1.646625
# Creation time: Sat Jun  5 12:52:03 2010


@<TRIPOS>MOLECULE
frag3-136-28/31924 -- energy: -1.646625
   13    12     1     1     1
SMALL
USER_CHARGES


@<TRIPOS>ATOM
      1 P1         -4.9791   -1.9840    0.7444 P.3        1 <1>        0.000
      2 O1         -5.4948   -0.6885    1.1064 O.2        1 <1>        0.000
      3 O2         -4.3240   -1.9459   -0.6621 O.3        1 <1>        0.000
      4 P2         -2.8759   -1.4239   -0.8821 P.3        1 <1>        0.000
      5 O3         -1.9226   -2.5090   -0.8592 O.2        1 <1>        0.000
      6 O4         -2.4991   -0.4362    0.3282 O.3        1 <1>        0.000
      7 O5         -2.8060   -0.5550   -2.1772 O.3        1 <1>        0.000
      8 O6         -3.7939   -2.3620    1.7335 O.3        1 <1>        0.000
      9 O10        -6.0159   -3.1505    0.8779 O.3        1 <1>        0.000
     10 H          -3.1153    0.2998    0.3428 H.spc      1 <1>        0.000
     11 H          -3.4620    0.1441   -2.1279 H.spc      1 <1>        0.000
     12 H          -3.4450   -3.2248    1.4981 H.spc      1 <1>        0.000
     13 H          -5.6009   -3.9770    0.6206 H.spc      1 <1>        0.000
@<TRIPOS>BOND
     1    1    2 2  
     2    1    3 1  
     3    1    8 1  
     4    1    9 1  
     5    3    4 1  
     6    4    5 2  
     7    4    6 1  
     8    4    7 1  
     9    6   10 1  
    10    7   11 1  
    11    8   12 1  
    12    9   13 1  
# Name:          frag3-136-28/31924 -- energy: -1.220387
# Creation time: Sat Jun  5 12:52:03 2010


@<TRIPOS>MOLECULE
frag3-136-28/31924 -- energy: -1.220387
   13    12     1     1     1
SMALL
USER_CHARGES


@<TRIPOS>ATOM
      1 P1         -2.7629   -1.3657   -0.7340 P.3        1 <1>        0.000
      2 O1         -2.6626   -0.3963    0.3692 O.2        1 <1>        0.000
      3 O2         -3.7233   -2.4916   -0.2464 O.3        1 <1>        0.000
      4 P2         -4.9160   -2.1735    0.7116 P.3        1 <1>        0.000
      5 O3         -5.3958   -0.8306    0.3614 O.2        1 <1>        0.000
      6 O4         -4.3463   -2.1941    2.1949 O.3        1 <1>        0.000
      7 O5         -6.1302   -3.1472    0.5973 O.3        1 <1>        0.000
      8 O6         -3.4581   -0.6476   -1.9455 O.3        1 <1>        0.000
      9 O10        -1.3161   -1.8084   -1.0987 O.3        1 <1>        0.000
     10 H          -4.0379   -3.0784    2.4058 H.spc      1 <1>        0.000
     11 H          -5.8476   -4.0370    0.8210 H.spc      1 <1>        0.000
     12 H          -3.5347   -1.2620   -2.6791 H.spc      1 <1>        0.000
     13 H          -1.3487   -2.4432   -1.8181 H.spc      1 <1>        0.000
@<TRIPOS>BOND
     1    1    2 2  
     2    1    3 1  
     3    1    8 1  
     4    1    9 1  
     5    3    4 1  
     6    4    5 2  
     7    4    6 1  
     8    4    7 1  
     9    6   10 1  
    10    7   11 1  
    11    8   12 1  
    12    9   13 1  
# Name:          frag3-136-28/31924 -- energy: -1.155724
# Creation time: Sat Jun  5 12:52:03 2010


@<TRIPOS>MOLECULE
frag3-136-28/31924 -- energy: -1.155724
   13    12     1     1     1
SMALL
USER_CHARGES


@<TRIPOS>ATOM
      1 P1         -4.8439   -2.0075    0.8865 P.3        1 <1>        0.000
      2 O1         -5.0806   -0.6065    0.6877 O.2        1 <1>        0.000
      3 O2         -3.4214   -2.3318    0.3193 O.3        1 <1>        0.000
      4 P2         -2.7734   -1.3924   -0.7565 P.3        1 <1>        0.000
      5 O3         -2.6608   -0.0716   -0.1971 O.2        1 <1>        0.000
      6 O4         -3.7366   -1.4366   -2.0278 O.3        1 <1>        0.000
      7 O5         -1.3467   -1.9051   -1.1457 O.3        1 <1>        0.000
      8 O6         -4.9611   -2.3964    2.3749 O.3        1 <1>        0.000
      9 O10        -5.8867   -2.9072    0.0686 O.3        1 <1>        0.000
     10 H          -3.7795   -2.3347   -2.3643 H.spc      1 <1>        0.000
     11 H          -1.4157   -2.7865   -1.5197 H.spc      1 <1>        0.000
     12 H          -4.7975   -3.3373    2.4725 H.spc      1 <1>        0.000
     13 H          -5.6985   -3.8355    0.2252 H.spc      1 <1>        0.000
@<TRIPOS>BOND
     1    1    2 2  
     2    1    3 1  
     3    1    8 1  
     4    1    9 1  
     5    3    4 1  
     6    4    5 2  
     7    4    6 1  
     8    4    7 1  
     9    6   10 1  
    10    7   11 1  
    11    8   12 1  
    12    9   13 1  
# Name:          frag3-136-28/31924 -- energy: -1.648033
# Creation time: Sat Jun  5 12:52:03 2010


@<TRIPOS>MOLECULE
frag3-136-28/31924 -- energy: -1.648033
   13    12     1     1     1
SMALL
USER_CHARGES


@<TRIPOS>ATOM
      1 P1         -2.7396   -1.3904   -0.7109 P.3        1 <1>        0.000
      2 O1         -2.5011   -2.6110   -1.4441 O.2        1 <1>        0.000
      3 O2         -3.3110   -1.6972    0.6968 O.3        1 <1>        0.000
      4 P2         -4.8203   -1.9516    0.9356 P.3        1 <1>        0.000
      5 O3         -5.5585   -0.7123    0.7852 O.2        1 <1>        0.000
      6 O4         -5.1870   -2.7158    2.2457 O.3        1 <1>        0.000
      7 O5         -5.2473   -2.9916   -0.2118 O.3        1 <1>        0.000
      8 O6         -1.4813   -0.4920   -0.6593 O.3        1 <1>        0.000
      9 O10        -3.8650   -0.4931   -1.4272 O.3        1 <1>        0.000
     10 H          -4.6733   -3.5252    2.2972 H.spc      1 <1>        0.000
     11 H          -4.7531   -3.8074   -0.1027 H.spc      1 <1>        0.000
     12 H          -1.6798    0.3067   -0.1651 H.spc      1 <1>        0.000
     13 H          -4.0031    0.3101   -0.9198 H.spc      1 <1>        0.000
@<TRIPOS>BOND
     1    1    2 2  
     2    1    3 1  
     3    1    8 1  
     4    1    9 1  
     5    3    4 1  
     6    4    5 2  
     7    4    6 1  
     8    4    7 1  
     9    6   10 1  
    10    7   11 1  
    11    8   12 1  
    12    9   13 1  
