#      Rotatable Fragment
#      Build by yxyuan
#
# Name:          frag3-103-292/96164
# Creation time: Sat Jun  5 12:53:06 2010


@<TRIPOS>MOLECULE
frag3-103-292/96164
    6     5     1     1     1
SMALL
USER_CHARGES


@<TRIPOS>ATOM
      1 O5          1.0335    0.6382   -0.2128 O.3        1 <1>        0.000
      2 C19         0.0082   -0.1899   -0.0118 C.2        1 <1>        0.000
      3 O6         -1.1049    0.5278   -0.1677 O.3        1 <1>        0.000
      4 O7          0.0726   -1.3696    0.2561 O.2        1 <1>        0.000
      5 H           0.7001    1.5168   -0.4089 H.spc      1 <1>        0.000
      6 H          -0.8724    1.4357   -0.3757 H.spc      1 <1>        0.000
@<TRIPOS>BOND
     1    1    2 1  
     2    2    3 1  
     3    2    4 2  
     4    1    5 1  
     5    3    6 1  
