#      Rotatable Fragment
#      Build by yxyuan
#
# Name:          frag4-319-284/48856
# Creation time: Sat Jun  5 12:53:44 2010


@<TRIPOS>MOLECULE
frag4-319-284/48856
   16    16     1     1     1
SMALL
USER_CHARGES


@<TRIPOS>ATOM
      1 C12        -1.3475    1.0715   -1.1396 C.2        1 <1>        0.000
      2 C13        -1.7736    1.6256    0.0064 C.2        1 <1>        0.000
      3 C14        -2.9254    1.0782    0.8060 C.3        1 <1>        0.000
      4 C15        -3.7758    0.0767   -0.0008 C.3        1 <1>        0.000
      5 C16        -2.8557   -0.9178   -0.7256 C.3        1 <1>        0.000
      6 C17        -1.9690   -0.1628   -1.7359 C.3        1 <1>        0.000
      7 H          -0.5124    1.5372   -1.6628 H.spc      1 <1>        0.000
      8 H          -1.2612    2.5141    0.3754 H.spc      1 <1>        0.000
      9 H          -3.5660    1.9130    1.0904 H.spc      1 <1>        0.000
     10 H          -2.5177    0.5551    1.6710 H.spc      1 <1>        0.000
     11 H          -4.3722    0.6183   -0.7350 H.spc      1 <1>        0.000
     12 H          -4.4333   -0.4675    0.6772 H.spc      1 <1>        0.000
     13 H          -3.4627   -1.6520   -1.2553 H.spc      1 <1>        0.000
     14 H          -2.2229   -1.4228    0.0042 H.spc      1 <1>        0.000
     15 H          -1.1650   -0.8305   -2.0453 H.spc      1 <1>        0.000
     16 H          -2.5962    0.1448   -2.5726 H.spc      1 <1>        0.000
@<TRIPOS>BOND
     1    1    2 2  
     2    1    6 1  
     3    2    3 1  
     4    3    4 1  
     5    4    5 1  
     6    5    6 1  
     7    1    7 1  
     8    2    8 1  
     9    3    9 1  
    10    3   10 1  
    11    4   11 1  
    12    4   12 1  
    13    5   13 1  
    14    5   14 1  
    15    6   15 1  
    16    6   16 1  
# Name:          frag4-319-284/48856 -- energy: -0.980426
# Creation time: Sat Jun  5 12:53:44 2010


@<TRIPOS>MOLECULE
frag4-319-284/48856 -- energy: -0.980426
   16    16     1     1     1
SMALL
USER_CHARGES


@<TRIPOS>ATOM
      1 C12        -1.3475    1.0715   -1.1396 C.2        1 <1>        0.000
      2 C13        -1.7736    1.6256    0.0064 C.2        1 <1>        0.000
      3 C14        -2.9254    1.0782    0.8060 C.3        1 <1>        0.000
      4 C15        -3.7758    0.0767   -0.0008 C.3        1 <1>        0.000
      5 C16        -2.8557   -0.9178   -0.7256 C.3        1 <1>        0.000
      6 C17        -1.9690   -0.1628   -1.7359 C.3        1 <1>        0.000
      7 H          -0.5124    1.5372   -1.6628 H.spc      1 <1>        0.000
      8 H          -1.2612    2.5141    0.3754 H.spc      1 <1>        0.000
      9 H          -3.5660    1.9130    1.0904 H.spc      1 <1>        0.000
     10 H          -2.5177    0.5551    1.6710 H.spc      1 <1>        0.000
     11 H          -4.3722    0.6183   -0.7350 H.spc      1 <1>        0.000
     12 H          -4.4333   -0.4675    0.6772 H.spc      1 <1>        0.000
     13 H          -3.4627   -1.6520   -1.2553 H.spc      1 <1>        0.000
     14 H          -2.2229   -1.4228    0.0042 H.spc      1 <1>        0.000
     15 H          -1.1650   -0.8305   -2.0453 H.spc      1 <1>        0.000
     16 H          -2.5962    0.1448   -2.5726 H.spc      1 <1>        0.000
@<TRIPOS>BOND
     1    1    2 2  
     2    1    6 1  
     3    2    3 1  
     4    3    4 1  
     5    4    5 1  
     6    5    6 1  
     7    1    7 1  
     8    2    8 1  
     9    3    9 1  
    10    3   10 1  
    11    4   11 1  
    12    4   12 1  
    13    5   13 1  
    14    5   14 1  
    15    6   15 1  
    16    6   16 1  
