#      Rotatable Fragment
#      Build by yxyuan
#
# Name:          frag2-087-1/319335
# Creation time: Sat Jun  5 12:52:11 2010


@<TRIPOS>MOLECULE
frag2-087-1/319335
   15    16     1     1     1
SMALL
USER_CHARGES


@<TRIPOS>ATOM
      1 C33         2.3633    0.0329    0.0217 C.ar       1 <1>        0.000
      2 C34         1.3726   -0.9279    0.1358 C.ar       1 <1>        0.000
      3 C35         2.0086    1.3639   -0.1546 C.ar       1 <1>        0.000
      4 C36         0.0332   -0.5462    0.0716 C.ar       1 <1>        0.000
      5 N4          0.7045    1.7149   -0.2117 N.ar       1 <1>        0.000
      6 C37        -0.2841    0.7984   -0.1051 C.ar       1 <1>        0.000
      7 N5         -0.9627   -1.4567    0.1774 N.ar       1 <1>        0.000
      8 N6         -1.5805    1.1739   -0.1681 N.ar       1 <1>        0.000
      9 C38        -2.2571   -1.0717    0.1128 C.ar       1 <1>        0.000
     10 C39        -2.5700    0.2629   -0.0624 C.ar       1 <1>        0.000
     11 H           3.4139   -0.2535    0.0699 H.spc      1 <1>        0.000
     12 H           1.6382   -1.9758    0.2749 H.spc      1 <1>        0.000
     13 H           2.7823    2.1261   -0.2470 H.spc      1 <1>        0.000
     14 H          -3.0522   -1.8124    0.1987 H.spc      1 <1>        0.000
     15 H          -3.6121    0.5783   -0.1150 H.spc      1 <1>        0.000
@<TRIPOS>BOND
     1    9   10 ar 
     2    1    2 ar 
     3    1    3 ar 
     4    2    4 ar 
     5    3    5 ar 
     6    4    6 ar 
     7    4    7 ar 
     8    5    6 ar 
     9    6    8 ar 
    10    7    9 ar 
    11    8   10 ar 
    12    1   11 1  
    13    2   12 1  
    14    3   13 1  
    15    9   14 1  
    16   10   15 1  
# Name:          frag2-087-1/319335 -- energy: 0.373140
# Creation time: Sat Jun  5 12:52:11 2010


@<TRIPOS>MOLECULE
frag2-087-1/319335 -- energy: 0.373140
   15    16     1     1     1
SMALL
USER_CHARGES


@<TRIPOS>ATOM
      1 C33         2.3633    0.0329    0.0217 C.ar       1 <1>        0.000
      2 C34         1.3726   -0.9279    0.1358 C.ar       1 <1>        0.000
      3 C35         2.0086    1.3639   -0.1546 C.ar       1 <1>        0.000
      4 C36         0.0332   -0.5462    0.0716 C.ar       1 <1>        0.000
      5 N4          0.7045    1.7149   -0.2117 N.ar       1 <1>        0.000
      6 C37        -0.2841    0.7984   -0.1051 C.ar       1 <1>        0.000
      7 N5         -0.9627   -1.4567    0.1774 N.ar       1 <1>        0.000
      8 N6         -1.5805    1.1739   -0.1681 N.ar       1 <1>        0.000
      9 C38        -2.2571   -1.0717    0.1128 C.ar       1 <1>        0.000
     10 C39        -2.5700    0.2629   -0.0624 C.ar       1 <1>        0.000
     11 H           3.4139   -0.2535    0.0699 H.spc      1 <1>        0.000
     12 H           1.6382   -1.9758    0.2749 H.spc      1 <1>        0.000
     13 H           2.7823    2.1261   -0.2470 H.spc      1 <1>        0.000
     14 H          -3.0522   -1.8124    0.1987 H.spc      1 <1>        0.000
     15 H          -3.6121    0.5783   -0.1150 H.spc      1 <1>        0.000
@<TRIPOS>BOND
     1    9   10 ar 
     2    1    2 ar 
     3    1    3 ar 
     4    2    4 ar 
     5    3    5 ar 
     6    4    6 ar 
     7    4    7 ar 
     8    5    6 ar 
     9    6    8 ar 
    10    7    9 ar 
    11    8   10 ar 
    12    1   11 1  
    13    2   12 1  
    14    3   13 1  
    15    9   14 1  
    16   10   15 1  
