#      Rotatable Fragment
#      Build by yxyuan
#
# Name:          frag4-347-428/150395
# Creation time: Sat Jun  5 12:53:31 2010


@<TRIPOS>MOLECULE
frag4-347-428/150395
   11    11     1     1     1
SMALL
USER_CHARGES


@<TRIPOS>ATOM
      1 C1         -1.6576    0.3852   -0.0031 C.2        1 <1>        0.000
      2 C3         -2.1499    1.6237   -0.0036 C.2        1 <1>        0.000
      3 C4         -2.8562   -0.4522    0.0008 C.3        1 <1>        0.000
      4 C7         -3.6587    1.6094    0.0003 C.3        1 <1>        0.000
      5 O2         -4.0104    0.2095    0.0023 O.3        1 <1>        0.000
      6 H          -0.6135    0.0721   -0.0051 H.spc      1 <1>        0.000
      7 H          -1.5421    2.5285   -0.0065 H.spc      1 <1>        0.000
      8 H          -2.8281   -1.0340    0.9221 H.spc      1 <1>        0.000
      9 H          -2.8322   -1.0368   -0.9189 H.spc      1 <1>        0.000
     10 H          -4.0731    2.1321   -0.8617 H.spc      1 <1>        0.000
     11 H          -4.0687    2.1335    0.8637 H.spc      1 <1>        0.000
@<TRIPOS>BOND
     1    1    2 2  
     2    1    3 1  
     3    2    4 1  
     4    3    5 1  
     5    4    5 1  
     6    1    6 1  
     7    2    7 1  
     8    3    8 1  
     9    3    9 1  
    10    4   10 1  
    11    4   11 1  
# Name:          frag4-347-428/150395 -- energy: -0.463522
# Creation time: Sat Jun  5 12:53:31 2010


@<TRIPOS>MOLECULE
frag4-347-428/150395 -- energy: -0.463522
   11    11     1     1     1
SMALL
USER_CHARGES


@<TRIPOS>ATOM
      1 C1         -1.6576    0.3852   -0.0031 C.2        1 <1>        0.000
      2 C3         -2.1499    1.6237   -0.0036 C.2        1 <1>        0.000
      3 C4         -2.8562   -0.4522    0.0008 C.3        1 <1>        0.000
      4 C7         -3.6587    1.6094    0.0003 C.3        1 <1>        0.000
      5 O2         -4.0104    0.2095    0.0023 O.3        1 <1>        0.000
      6 H          -0.6135    0.0721   -0.0051 H.spc      1 <1>        0.000
      7 H          -1.5421    2.5285   -0.0065 H.spc      1 <1>        0.000
      8 H          -2.8281   -1.0340    0.9221 H.spc      1 <1>        0.000
      9 H          -2.8322   -1.0368   -0.9189 H.spc      1 <1>        0.000
     10 H          -4.0731    2.1321   -0.8617 H.spc      1 <1>        0.000
     11 H          -4.0687    2.1335    0.8637 H.spc      1 <1>        0.000
@<TRIPOS>BOND
     1    1    2 2  
     2    1    3 1  
     3    2    4 1  
     4    3    5 1  
     5    4    5 1  
     6    1    6 1  
     7    2    7 1  
     8    3    8 1  
     9    3    9 1  
    10    4   10 1  
    11    4   11 1  
