#      Rotatable Fragment
#      Build by yxyuan
#
# Name:          frag2-032-342/92655
# Creation time: Sat Jun  5 12:51:57 2010


@<TRIPOS>MOLECULE
frag2-032-342/92655
    4     3     1     1     1
SMALL
USER_CHARGES


@<TRIPOS>ATOM
      1 C10        -0.1186   -0.0155    0.0028 C.2        1 <1>        0.000
      2 S2          1.5418    0.1891   -0.0363 S.2        1 <1>        0.000
      3 H          -0.7174    0.5260    0.7352 H.spc      1 <1>        0.000
      4 H          -0.6014   -0.6903   -0.7041 H.spc      1 <1>        0.000
@<TRIPOS>BOND
     1    1    2 2  
     2    1    3 1  
     3    1    4 1  
# Name:          frag2-032-342/92655 -- energy: 0.000000
# Creation time: Sat Jun  5 12:51:57 2010


@<TRIPOS>MOLECULE
frag2-032-342/92655 -- energy: 0.000000
    4     3     1     1     1
SMALL
USER_CHARGES


@<TRIPOS>ATOM
      1 C10        -0.1186   -0.0155    0.0028 C.2        1 <1>        0.000
      2 S2          1.5418    0.1891   -0.0363 S.2        1 <1>        0.000
      3 H          -0.7174    0.5260    0.7352 H.spc      1 <1>        0.000
      4 H          -0.6014   -0.6903   -0.7041 H.spc      1 <1>        0.000
@<TRIPOS>BOND
     1    1    2 2  
     2    1    3 1  
     3    1    4 1  
