#      Rotatable Fragment
#      Build by yxyuan
#
# Name:          frag5-609-33/41815
# Creation time: Sat Jun  5 12:52:58 2010


@<TRIPOS>MOLECULE
frag5-609-33/41815
   65    67     1     1     1
SMALL
USER_CHARGES


@<TRIPOS>ATOM
      1 N1         13.6582    1.5586   -0.2248 N.am       1 <1>        0.000
      2 C1         13.5171    0.4391    0.6679 C.3        1 <1>        0.000
      3 C2         12.3116   -0.4614    0.3426 C.2        1 <1>        0.000
      4 N2         12.1005   -1.5918    1.0789 N.am       1 <1>        0.000
      5 C3         10.9617   -2.4960    0.9171 C.3        1 <1>        0.000
      6 C4         11.3333   -3.8195    1.5375 C.3        1 <1>        0.000
      7 C5         12.2894   -3.4312    2.6283 C.3        1 <1>        0.000
      8 C6         12.9268   -2.1682    2.1133 C.3        1 <1>        0.000
      9 N5          5.6466    2.6109    1.4850 N.am       1 <1>        0.000
     10 C7          9.6893   -1.8369    1.5264 C.2        1 <1>        0.000
     11 N4          8.4819   -2.4726    1.3927 N.am       1 <1>        0.000
     12 C8          7.2099   -1.7979    1.2594 C.3        1 <1>        0.000
     13 C9          6.7800   -1.5708   -0.1748 C.3        1 <1>        0.000
     14 C10         5.7576   -0.5635   -0.6475 C.3        1 <1>        0.000
     15 C11         5.9086    0.9037   -0.3163 C.3        1 <1>        0.000
     16 C12         5.3189    1.3764    1.0086 C.2        1 <1>        0.000
     17 O5          5.9757    5.0504    2.7518 O.2        1 <1>        0.000
     18 O7          4.5365    0.6495    1.6141 O.2        1 <1>        0.000
     19 C13         6.4832    3.6366    0.9024 C.3        1 <1>        0.000
     20 C14         6.7834    4.8095    1.8390 C.2        1 <1>        0.000
     21 N6          7.8804    5.5885    1.6390 N.am       1 <1>        0.000
     22 C15         8.9484    5.4305    0.6489 C.3        1 <1>        0.000
     23 C16         9.6707    6.7478    0.5313 C.3        1 <1>        0.000
     24 C17         9.5453    7.3210    1.9130 C.3        1 <1>        0.000
     25 C18         8.2482    6.7458    2.4263 C.3        1 <1>        0.000
     26 C19         9.8867    4.2952    1.1389 C.2        1 <1>        0.000
     27 N7         11.0561    4.0472    0.4852 N.am       1 <1>        0.000
     28 C20        12.0101    3.0572    0.9086 C.3        1 <1>        0.000
     29 C21        13.0127    2.7475   -0.1919 C.2        1 <1>        0.000
     30 O2         13.2544    3.6025   -1.0444 O.2        1 <1>        0.000
     31 O4          9.5772    3.6180    2.1142 O.2        1 <1>        0.000
     32 O10         9.7650   -0.7514    2.0978 O.2        1 <1>        0.000
     33 O11        11.5536   -0.1476   -0.5719 O.2        1 <1>        0.000
     34 H          14.3326    1.4408   -0.9809 H.spc      1 <1>        0.000
     35 H          14.4155   -0.1706    0.5716 H.spc      1 <1>        0.000
     36 H          13.3653    0.8382    1.6708 H.spc      1 <1>        0.000
     37 H          10.7237   -2.6837   -0.1299 H.spc      1 <1>        0.000
     38 H          10.4677   -4.3659    1.9121 H.spc      1 <1>        0.000
     39 H          11.7734   -4.5115    0.8195 H.spc      1 <1>        0.000
     40 H          11.7895   -3.2836    3.5856 H.spc      1 <1>        0.000
     41 H          13.0219   -4.2113    2.8357 H.spc      1 <1>        0.000
     42 H          13.9092   -2.4012    1.7026 H.spc      1 <1>        0.000
     43 H          13.0296   -1.4560    2.9320 H.spc      1 <1>        0.000
     44 H           5.2398    2.8471    2.3901 H.spc      1 <1>        0.000
     45 H           8.4808   -3.4926    1.3869 H.spc      1 <1>        0.000
     46 H           6.4568   -2.4330    1.7258 H.spc      1 <1>        0.000
     47 H           7.3136   -0.8177    1.7248 H.spc      1 <1>        0.000
     48 H           6.2920   -2.5154   -0.4150 H.spc      1 <1>        0.000
     49 H           7.6960   -1.1893   -0.6259 H.spc      1 <1>        0.000
     50 H           4.8389   -0.8581   -0.1403 H.spc      1 <1>        0.000
     51 H           5.8300   -0.6002   -1.7345 H.spc      1 <1>        0.000
     52 H           6.9812    1.0852   -0.2472 H.spc      1 <1>        0.000
     53 H           5.3663    1.4424   -1.0934 H.spc      1 <1>        0.000
     54 H           5.9461    4.0402    0.0440 H.spc      1 <1>        0.000
     55 H           7.4371    3.1709    0.6547 H.spc      1 <1>        0.000
     56 H           8.5661    5.1604   -0.3355 H.spc      1 <1>        0.000
     57 H           9.2484    7.3959   -0.2366 H.spc      1 <1>        0.000
     58 H          10.7066    6.6363    0.2109 H.spc      1 <1>        0.000
     59 H           9.5434    8.4110    1.9110 H.spc      1 <1>        0.000
     60 H          10.3931    7.0627    2.5475 H.spc      1 <1>        0.000
     61 H           8.3724    6.4489    3.4677 H.spc      1 <1>        0.000
     62 H           7.4640    7.4989    2.3487 H.spc      1 <1>        0.000
     63 H          11.2667    4.5934   -0.3501 H.spc      1 <1>        0.000
     64 H          11.4727    2.1415    1.1553 H.spc      1 <1>        0.000
     65 H          12.5516    3.4447    1.7715 H.spc      1 <1>        0.000
@<TRIPOS>BOND
     1   26   27 am 
     2   26   31 2  
     3   27   28 1  
     4   28   29 1  
     5   29   30 2  
     6   12   13 1  
     7   11   12 1  
     8   10   32 2  
     9   10   11 am 
    10    7    8 1  
    11    6    7 1  
    12    5   10 1  
    13    5    6 1  
    14    4    5 1  
    15    4    8 1  
    16    3   33 2  
    17    3    4 am 
    18    1   29 am 
    19    2    3 1  
    20    1    2 1  
    21   15   16 1  
    22   13   14 1  
    23   14   15 1  
    24   16    9 am 
    25    9   19 1  
    26   16   18 2  
    27   19   20 1  
    28   20   17 2  
    29   20   21 am 
    30   21   22 1  
    31   21   25 1  
    32   22   23 1  
    33   22   26 1  
    34   23   24 1  
    35   24   25 1  
    36    1   34 1  
    37    2   35 1  
    38    2   36 1  
    39    5   37 1  
    40    6   38 1  
    41    6   39 1  
    42    7   40 1  
    43    7   41 1  
    44    8   42 1  
    45    8   43 1  
    46    9   44 1  
    47   11   45 1  
    48   12   46 1  
    49   12   47 1  
    50   13   48 1  
    51   13   49 1  
    52   14   50 1  
    53   14   51 1  
    54   15   52 1  
    55   15   53 1  
    56   19   54 1  
    57   19   55 1  
    58   22   56 1  
    59   23   57 1  
    60   23   58 1  
    61   24   59 1  
    62   24   60 1  
    63   25   61 1  
    64   25   62 1  
    65   27   63 1  
    66   28   64 1  
    67   28   65 1  
# Name:          frag5-609-33/41815
# Creation time: Sat Jun  5 12:52:58 2010


@<TRIPOS>MOLECULE
frag5-609-33/41815
   65    67     1     1     1
SMALL
USER_CHARGES


@<TRIPOS>ATOM
      1 N1         12.8058    1.6459   -0.6409 N.am       1 <1>        0.000
      2 C1         12.8378    0.7298    0.4650 C.3        1 <1>        0.000
      3 C2         11.9777   -0.5155    0.2342 C.2        1 <1>        0.000
      4 N2         11.9204   -1.4773    1.1909 N.am       1 <1>        0.000
      5 C3         10.9797   -2.5901    1.1921 C.3        1 <1>        0.000
      6 C4         11.4653   -3.6201    2.1809 C.3        1 <1>        0.000
      7 C5         12.2998   -2.8317    3.1490 C.3        1 <1>        0.000
      8 C6         12.7315   -1.6211    2.3746 C.3        1 <1>        0.000
      9 N5          5.7253    2.9219    0.3647 N.am       1 <1>        0.000
     10 C7          9.5642   -2.0526    1.5205 C.2        1 <1>        0.000
     11 N4          8.5003   -2.9090    1.4564 N.am       1 <1>        0.000
     12 C8          7.1320   -2.4843    1.3941 C.3        1 <1>        0.000
     13 C9          6.6398   -1.9836    0.0578 C.3        1 <1>        0.000
     14 C10         5.6575   -0.8478    0.0060 C.3        1 <1>        0.000
     15 C11         6.1249    0.4733    0.5565 C.3        1 <1>        0.000
     16 C12         5.2375    1.6636    0.3215 C.2        1 <1>        0.000
     17 O5          6.2917    4.2548    2.7022 O.2        1 <1>        0.000
     18 O7          4.0357    1.4956    0.0956 O.2        1 <1>        0.000
     19 C13         7.0683    3.4049    0.6003 C.3        1 <1>        0.000
     20 C14         7.1544    4.3401    1.8164 C.2        1 <1>        0.000
     21 N6          8.1468    5.2669    1.9181 N.am       1 <1>        0.000
     22 C15         9.2576    5.5646    1.0154 C.3        1 <1>        0.000
     23 C16         9.6752    6.9921    1.2632 C.3        1 <1>        0.000
     24 C17         9.3101    7.2387    2.6983 C.3        1 <1>        0.000
     25 C18         8.2520    6.2183    3.0012 C.3        1 <1>        0.000
     26 C19        10.4303    4.5781    1.2262 C.2        1 <1>        0.000
     27 N7         11.5837    4.7378    0.5197 N.am       1 <1>        0.000
     28 C20        12.7349    3.8683    0.5624 C.3        1 <1>        0.000
     29 C21        12.7563    2.9886   -0.6773 C.2        1 <1>        0.000
     30 O2         12.7260    3.5293   -1.7904 O.2        1 <1>        0.000
     31 O4         10.3109    3.6400    2.0181 O.2        1 <1>        0.000
     32 O10         9.3979   -0.8670    1.8280 O.2        1 <1>        0.000
     33 O11        11.3476   -0.6255   -0.8244 O.2        1 <1>        0.000
     34 H          12.8238    1.1999   -1.5581 H.spc      1 <1>        0.000
     35 H          13.8691    0.4019    0.5952 H.spc      1 <1>        0.000
     36 H          12.4431    1.2491    1.3383 H.spc      1 <1>        0.000
     37 H          10.9190   -3.0716    0.2161 H.spc      1 <1>        0.000
     38 H          10.6430   -4.1396    2.6729 H.spc      1 <1>        0.000
     39 H          12.0329   -4.4173    1.7009 H.spc      1 <1>        0.000
     40 H          11.7415   -2.5648    4.0463 H.spc      1 <1>        0.000
     41 H          13.1502   -3.4058    3.5169 H.spc      1 <1>        0.000
     42 H          13.7752   -1.7360    2.0822 H.spc      1 <1>        0.000
     43 H          12.6144   -0.7355    2.9992 H.spc      1 <1>        0.000
     44 H           5.0321    3.6528    0.2047 H.spc      1 <1>        0.000
     45 H           8.6915   -3.9109    1.4527 H.spc      1 <1>        0.000
     46 H           6.5327   -3.3651    1.6248 H.spc      1 <1>        0.000
     47 H           7.0467   -1.6423    2.0810 H.spc      1 <1>        0.000
     48 H           6.1054   -2.8299   -0.3738 H.spc      1 <1>        0.000
     49 H           7.5314   -1.5997   -0.4380 H.spc      1 <1>        0.000
     50 H           4.8140   -1.1509    0.6263 H.spc      1 <1>        0.000
     51 H           5.4500   -0.6772   -1.0504 H.spc      1 <1>        0.000
     52 H           6.1706    0.3454    1.6380 H.spc      1 <1>        0.000
     53 H           7.0611    0.6945    0.0439 H.spc      1 <1>        0.000
     54 H           7.3816    3.9679   -0.2789 H.spc      1 <1>        0.000
     55 H           7.7059    2.5424    0.7943 H.spc      1 <1>        0.000
     56 H           8.9464    5.4455   -0.0224 H.spc      1 <1>        0.000
     57 H           9.1797    7.6889    0.5871 H.spc      1 <1>        0.000
     58 H          10.7377    7.1482    1.0764 H.spc      1 <1>        0.000
     59 H           8.9527    8.2559    2.8586 H.spc      1 <1>        0.000
     60 H          10.1708    7.1416    3.3600 H.spc      1 <1>        0.000
     61 H           8.5203    5.6884    3.9151 H.spc      1 <1>        0.000
     62 H           7.2946    6.7246    3.1240 H.spc      1 <1>        0.000
     63 H          11.6391    5.5480   -0.0975 H.spc      1 <1>        0.000
     64 H          12.6812    3.2399    1.4514 H.spc      1 <1>        0.000
     65 H          13.6427    4.4708    0.5945 H.spc      1 <1>        0.000
@<TRIPOS>BOND
     1   26   27 am 
     2   26   31 2  
     3   27   28 1  
     4   28   29 1  
     5   29   30 2  
     6   12   13 1  
     7   11   12 1  
     8   10   32 2  
     9   10   11 am 
    10    7    8 1  
    11    6    7 1  
    12    5   10 1  
    13    5    6 1  
    14    4    5 1  
    15    4    8 1  
    16    3   33 2  
    17    3    4 am 
    18    1   29 am 
    19    2    3 1  
    20    1    2 1  
    21   15   16 1  
    22   13   14 1  
    23   14   15 1  
    24   16    9 am 
    25    9   19 1  
    26   16   18 2  
    27   19   20 1  
    28   20   17 2  
    29   20   21 am 
    30   21   22 1  
    31   21   25 1  
    32   22   23 1  
    33   22   26 1  
    34   23   24 1  
    35   24   25 1  
    36    1   34 1  
    37    2   35 1  
    38    2   36 1  
    39    5   37 1  
    40    6   38 1  
    41    6   39 1  
    42    7   40 1  
    43    7   41 1  
    44    8   42 1  
    45    8   43 1  
    46    9   44 1  
    47   11   45 1  
    48   12   46 1  
    49   12   47 1  
    50   13   48 1  
    51   13   49 1  
    52   14   50 1  
    53   14   51 1  
    54   15   52 1  
    55   15   53 1  
    56   19   54 1  
    57   19   55 1  
    58   22   56 1  
    59   23   57 1  
    60   23   58 1  
    61   24   59 1  
    62   24   60 1  
    63   25   61 1  
    64   25   62 1  
    65   27   63 1  
    66   28   64 1  
    67   28   65 1  
# Name:          frag5-609-33/41815
# Creation time: Sat Jun  5 12:52:58 2010


@<TRIPOS>MOLECULE
frag5-609-33/41815
   65    67     1     1     1
SMALL
USER_CHARGES


@<TRIPOS>ATOM
      1 N1         13.8460    1.6498    0.7609 N.am       1 <1>        0.000
      2 C1         13.3813    0.3827    1.2659 C.3        1 <1>        0.000
      3 C2         12.4327   -0.4270    0.3733 C.2        1 <1>        0.000
      4 N2         12.1053   -1.6946    0.7528 N.am       1 <1>        0.000
      5 C3         11.1058   -2.5447    0.1156 C.3        1 <1>        0.000
      6 C4         11.3173   -3.9492    0.6356 C.3        1 <1>        0.000
      7 C5         11.7731   -3.6986    2.0482 C.3        1 <1>        0.000
      8 C6         12.5263   -2.4027    1.9408 C.3        1 <1>        0.000
      9 N5          5.4576    2.6520    0.7853 N.am       1 <1>        0.000
     10 C7          9.7329   -2.0339    0.5846 C.2        1 <1>        0.000
     11 N4          8.5777   -2.6268    0.1718 N.am       1 <1>        0.000
     12 C8          7.3599   -2.4152    0.8888 C.3        1 <1>        0.000
     13 C9          6.5377   -1.1740    0.6940 C.3        1 <1>        0.000
     14 C10         5.6592   -0.8035    1.8618 C.3        1 <1>        0.000
     15 C11         4.9295    0.5078    1.8835 C.3        1 <1>        0.000
     16 C12         5.8360    1.6674    1.6495 C.2        1 <1>        0.000
     17 O5          5.6076    5.2296    1.8798 O.2        1 <1>        0.000
     18 O7          6.9294    1.7136    2.2307 O.2        1 <1>        0.000
     19 C13         6.3995    3.6214    0.2991 C.3        1 <1>        0.000
     20 C14         6.5535    4.8726    1.1623 C.2        1 <1>        0.000
     21 N6          7.6924    5.6131    1.0885 N.am       1 <1>        0.000
     22 C15         8.8999    5.3701    0.2993 C.3        1 <1>        0.000
     23 C16         9.6018    6.6926    0.1594 C.3        1 <1>        0.000
     24 C17         9.3165    7.3412    1.4854 C.3        1 <1>        0.000
     25 C18         7.9623    6.8025    1.8580 C.3        1 <1>        0.000
     26 C19         9.7719    4.3398    1.0524 C.2        1 <1>        0.000
     27 N7         11.0065    3.9930    0.6131 N.am       1 <1>        0.000
     28 C20        11.7690    2.9613    1.2582 C.3        1 <1>        0.000
     29 C21        13.2029    2.8451    0.7682 C.2        1 <1>        0.000
     30 O2         13.8015    3.8581    0.3883 O.2        1 <1>        0.000
     31 O4          9.3341    3.8174    2.0825 O.2        1 <1>        0.000
     32 O10         9.6855   -1.1136    1.4119 O.2        1 <1>        0.000
     33 O11        11.9660    0.0798   -0.6529 O.2        1 <1>        0.000
     34 H          14.7772    1.6483    0.3448 H.spc      1 <1>        0.000
     35 H          14.2733   -0.2329    1.3823 H.spc      1 <1>        0.000
     36 H          12.8120    0.6153    2.1658 H.spc      1 <1>        0.000
     37 H          11.1735   -2.5310   -0.9722 H.spc      1 <1>        0.000
     38 H          10.4230   -4.5695    0.5756 H.spc      1 <1>        0.000
     39 H          12.0339   -4.5225    0.0475 H.spc      1 <1>        0.000
     40 H          10.9445   -3.6462    2.7545 H.spc      1 <1>        0.000
     41 H          12.3854   -4.5095    2.4427 H.spc      1 <1>        0.000
     42 H          13.5950   -2.6087    1.8803 H.spc      1 <1>        0.000
     43 H          12.3214   -1.7906    2.8192 H.spc      1 <1>        0.000
     44 H           4.4862    2.7011    0.4780 H.spc      1 <1>        0.000
     45 H           8.5822   -3.2254   -0.6541 H.spc      1 <1>        0.000
     46 H           6.7090   -3.2155    0.5366 H.spc      1 <1>        0.000
     47 H           7.6787   -2.3546    1.9294 H.spc      1 <1>        0.000
     48 H           5.8755   -1.3640   -0.1507 H.spc      1 <1>        0.000
     49 H           7.2382   -0.3509    0.5530 H.spc      1 <1>        0.000
     50 H           6.3473   -0.7406    2.7048 H.spc      1 <1>        0.000
     51 H           4.8659   -1.5508    1.8474 H.spc      1 <1>        0.000
     52 H           4.1875    0.4937    1.0851 H.spc      1 <1>        0.000
     53 H           4.4785    0.6261    2.8688 H.spc      1 <1>        0.000
     54 H           6.0312    3.9550   -0.6710 H.spc      1 <1>        0.000
     55 H           7.3727    3.1307    0.2844 H.spc      1 <1>        0.000
     56 H           8.6821    4.9684   -0.6903 H.spc      1 <1>        0.000
     57 H           9.2527    7.2782   -0.6911 H.spc      1 <1>        0.000
     58 H          10.6665    6.5954   -0.0529 H.spc      1 <1>        0.000
     59 H           9.3313    8.4296    1.4290 H.spc      1 <1>        0.000
     60 H          10.0761    7.1133    2.2331 H.spc      1 <1>        0.000
     61 H           7.9464    6.5602    2.9206 H.spc      1 <1>        0.000
     62 H           7.2009    7.5534    1.6470 H.spc      1 <1>        0.000
     63 H          11.4026    4.4756   -0.1935 H.spc      1 <1>        0.000
     64 H          11.2770    2.0137    1.0387 H.spc      1 <1>        0.000
     65 H          11.8113    3.2091    2.3188 H.spc      1 <1>        0.000
@<TRIPOS>BOND
     1   26   27 am 
     2   26   31 2  
     3   27   28 1  
     4   28   29 1  
     5   29   30 2  
     6   12   13 1  
     7   11   12 1  
     8   10   32 2  
     9   10   11 am 
    10    7    8 1  
    11    6    7 1  
    12    5   10 1  
    13    5    6 1  
    14    4    5 1  
    15    4    8 1  
    16    3   33 2  
    17    3    4 am 
    18    1   29 am 
    19    2    3 1  
    20    1    2 1  
    21   15   16 1  
    22   13   14 1  
    23   14   15 1  
    24   16    9 am 
    25    9   19 1  
    26   16   18 2  
    27   19   20 1  
    28   20   17 2  
    29   20   21 am 
    30   21   22 1  
    31   21   25 1  
    32   22   23 1  
    33   22   26 1  
    34   23   24 1  
    35   24   25 1  
    36    1   34 1  
    37    2   35 1  
    38    2   36 1  
    39    5   37 1  
    40    6   38 1  
    41    6   39 1  
    42    7   40 1  
    43    7   41 1  
    44    8   42 1  
    45    8   43 1  
    46    9   44 1  
    47   11   45 1  
    48   12   46 1  
    49   12   47 1  
    50   13   48 1  
    51   13   49 1  
    52   14   50 1  
    53   14   51 1  
    54   15   52 1  
    55   15   53 1  
    56   19   54 1  
    57   19   55 1  
    58   22   56 1  
    59   23   57 1  
    60   23   58 1  
    61   24   59 1  
    62   24   60 1  
    63   25   61 1  
    64   25   62 1  
    65   27   63 1  
    66   28   64 1  
    67   28   65 1  
# Name:          frag5-609-33/41815
# Creation time: Sat Jun  5 12:52:58 2010


@<TRIPOS>MOLECULE
frag5-609-33/41815
   65    67     1     1     1
SMALL
USER_CHARGES


@<TRIPOS>ATOM
      1 N1         13.4991    1.4589   -0.1399 N.am       1 <1>        0.000
      2 C1         13.3101    0.6371    1.0461 C.3        1 <1>        0.000
      3 C2         12.0435   -0.2155    0.8824 C.2        1 <1>        0.000
      4 N2         11.9588   -1.5094    1.2812 N.am       1 <1>        0.000
      5 C3         10.7857   -2.3358    1.0167 C.3        1 <1>        0.000
      6 C4         11.2094   -3.7792    1.0246 C.3        1 <1>        0.000
      7 C5         12.3246   -3.7757    2.0331 C.3        1 <1>        0.000
      8 C6         12.9211   -2.3943    1.9035 C.3        1 <1>        0.000
      9 N5          5.6944    2.9277    1.3171 N.am       1 <1>        0.000
     10 C7          9.6894   -2.1426    2.0955 C.2        1 <1>        0.000
     11 N4          8.3771   -2.3514    1.8155 N.am       1 <1>        0.000
     12 C8          7.7665   -2.3623    0.5214 C.3        1 <1>        0.000
     13 C9          7.6874   -1.0514   -0.2153 C.3        1 <1>        0.000
     14 C10         6.6345   -0.0709    0.2264 C.3        1 <1>        0.000
     15 C11         6.7560    1.3364   -0.2835 C.3        1 <1>        0.000
     16 C12         5.6440    2.2463    0.1574 C.2        1 <1>        0.000
     17 O5          6.4608    4.8906    3.7254 O.2        1 <1>        0.000
     18 O7          4.6479    2.3486   -0.5632 O.2        1 <1>        0.000
     19 C13         6.7201    3.0098    2.3272 C.3        1 <1>        0.000
     20 C14         6.9911    4.4635    2.6879 C.2        1 <1>        0.000
     21 N6          7.7489    5.2772    1.9074 N.am       1 <1>        0.000
     22 C15         8.4151    5.0147    0.6206 C.3        1 <1>        0.000
     23 C16         8.7189    6.3588    0.0000 C.3        1 <1>        0.000
     24 C17         8.9608    7.2431    1.1947 C.3        1 <1>        0.000
     25 C18         8.1335    6.6184    2.2848 C.3        1 <1>        0.000
     26 C19         9.6935    4.1952    0.9361 C.2        1 <1>        0.000
     27 N7         10.6394    3.8602    0.0098 N.am       1 <1>        0.000
     28 C20        11.9038    3.3159    0.4509 C.3        1 <1>        0.000
     29 C21        12.8219    2.5795   -0.5199 C.2        1 <1>        0.000
     30 O2         12.9775    3.0336   -1.6592 O.2        1 <1>        0.000
     31 O4          9.8726    3.8359    2.1079 O.2        1 <1>        0.000
     32 O10        10.0081   -1.8551    3.2564 O.2        1 <1>        0.000
     33 O11        11.0633    0.3194    0.3476 O.2        1 <1>        0.000
     34 H          14.2389    1.1552   -0.7731 H.spc      1 <1>        0.000
     35 H          14.1730   -0.0159    1.1766 H.spc      1 <1>        0.000
     36 H          13.2047    1.2798    1.9201 H.spc      1 <1>        0.000
     37 H          10.3720   -2.0422    0.0519 H.spc      1 <1>        0.000
     38 H          10.4005   -4.4639    1.2797 H.spc      1 <1>        0.000
     39 H          11.5168   -4.1429    0.0441 H.spc      1 <1>        0.000
     40 H          11.9719   -3.9829    3.0434 H.spc      1 <1>        0.000
     41 H          13.0553   -4.5629    1.8474 H.spc      1 <1>        0.000
     42 H          13.8202   -2.4430    1.2892 H.spc      1 <1>        0.000
     43 H          13.1770   -2.0148    2.8927 H.spc      1 <1>        0.000
     44 H           4.8620    3.4827    1.5160 H.spc      1 <1>        0.000
     45 H           7.7617   -2.5181    2.6117 H.spc      1 <1>        0.000
     46 H           8.3909   -3.0098   -0.0942 H.spc      1 <1>        0.000
     47 H           6.7343   -2.6721    0.6846 H.spc      1 <1>        0.000
     48 H           7.4376   -1.3073   -1.2450 H.spc      1 <1>        0.000
     49 H           8.6425   -0.5567   -0.0388 H.spc      1 <1>        0.000
     50 H           6.7269   -0.0035    1.3104 H.spc      1 <1>        0.000
     51 H           5.6914   -0.4496   -0.1676 H.spc      1 <1>        0.000
     52 H           7.6846    1.7450    0.1151 H.spc      1 <1>        0.000
     53 H           6.7221    1.2893   -1.3720 H.spc      1 <1>        0.000
     54 H           7.6360    2.5621    1.9415 H.spc      1 <1>        0.000
     55 H           6.3855    2.4785    3.2182 H.spc      1 <1>        0.000
     56 H           7.8095    4.4447   -0.0840 H.spc      1 <1>        0.000
     57 H           7.9101    6.7213   -0.6344 H.spc      1 <1>        0.000
     58 H           9.5718    6.3256   -0.6779 H.spc      1 <1>        0.000
     59 H           8.6794    8.2790    1.0052 H.spc      1 <1>        0.000
     60 H          10.0167    7.2999    1.4591 H.spc      1 <1>        0.000
     61 H           8.7210    6.5780    3.2020 H.spc      1 <1>        0.000
     62 H           7.2366    7.2175    2.4420 H.spc      1 <1>        0.000
     63 H          10.4553    3.9929   -0.9846 H.spc      1 <1>        0.000
     64 H          11.6248    2.5554    1.1802 H.spc      1 <1>        0.000
     65 H          12.4803    4.1921    0.7478 H.spc      1 <1>        0.000
@<TRIPOS>BOND
     1   26   27 am 
     2   26   31 2  
     3   27   28 1  
     4   28   29 1  
     5   29   30 2  
     6   12   13 1  
     7   11   12 1  
     8   10   32 2  
     9   10   11 am 
    10    7    8 1  
    11    6    7 1  
    12    5   10 1  
    13    5    6 1  
    14    4    5 1  
    15    4    8 1  
    16    3   33 2  
    17    3    4 am 
    18    1   29 am 
    19    2    3 1  
    20    1    2 1  
    21   15   16 1  
    22   13   14 1  
    23   14   15 1  
    24   16    9 am 
    25    9   19 1  
    26   16   18 2  
    27   19   20 1  
    28   20   17 2  
    29   20   21 am 
    30   21   22 1  
    31   21   25 1  
    32   22   23 1  
    33   22   26 1  
    34   23   24 1  
    35   24   25 1  
    36    1   34 1  
    37    2   35 1  
    38    2   36 1  
    39    5   37 1  
    40    6   38 1  
    41    6   39 1  
    42    7   40 1  
    43    7   41 1  
    44    8   42 1  
    45    8   43 1  
    46    9   44 1  
    47   11   45 1  
    48   12   46 1  
    49   12   47 1  
    50   13   48 1  
    51   13   49 1  
    52   14   50 1  
    53   14   51 1  
    54   15   52 1  
    55   15   53 1  
    56   19   54 1  
    57   19   55 1  
    58   22   56 1  
    59   23   57 1  
    60   23   58 1  
    61   24   59 1  
    62   24   60 1  
    63   25   61 1  
    64   25   62 1  
    65   27   63 1  
    66   28   64 1  
    67   28   65 1  
# Name:          frag5-609-33/41815
# Creation time: Sat Jun  5 12:52:58 2010


@<TRIPOS>MOLECULE
frag5-609-33/41815
   65    67     1     1     1
SMALL
USER_CHARGES


@<TRIPOS>ATOM
      1 N1         13.4472    2.3267    1.2700 N.am       1 <1>        0.000
      2 C1         13.2119    0.8977    1.3350 C.3        1 <1>        0.000
      3 C2         11.9676    0.3687    0.6085 C.2        1 <1>        0.000
      4 N2         11.8211   -0.9510    0.3320 N.am       1 <1>        0.000
      5 C3         10.6386   -1.5384   -0.2959 C.3        1 <1>        0.000
      6 C4         11.0252   -2.8669   -0.9078 C.3        1 <1>        0.000
      7 C5         12.4457   -3.1124   -0.4727 C.3        1 <1>        0.000
      8 C6         12.7327   -2.0456    0.5422 C.3        1 <1>        0.000
      9 N5          5.5033    2.5032    1.5094 N.am       1 <1>        0.000
     10 C7          9.4849   -1.6577    0.7343 C.2        1 <1>        0.000
     11 N4          8.2688   -2.1105    0.3077 N.am       1 <1>        0.000
     12 C8          7.0430   -2.1306    1.0578 C.3        1 <1>        0.000
     13 C9          6.3541   -0.8412    1.4419 C.3        1 <1>        0.000
     14 C10         6.6903   -0.1903    2.7697 C.3        1 <1>        0.000
     15 C11         5.7245    0.8276    3.3309 C.3        1 <1>        0.000
     16 C12         4.9138    1.6332    2.3498 C.2        1 <1>        0.000
     17 O5          6.2163    4.1511   -0.4815 O.2        1 <1>        0.000
     18 O7          3.6923    1.4726    2.3135 O.2        1 <1>        0.000
     19 C13         6.8939    2.8703    1.4029 C.3        1 <1>        0.000
     20 C14         7.1740    3.8040    0.2250 C.2        1 <1>        0.000
     21 N6          8.4385    4.2146   -0.0250 N.am       1 <1>        0.000
     22 C15         9.7005    3.8409    0.6510 C.3        1 <1>        0.000
     23 C16        10.8317    4.1907   -0.2970 C.3        1 <1>        0.000
     24 C17        10.2828    5.3161   -1.1249 C.3        1 <1>        0.000
     25 C18         8.8035    5.0633   -1.1355 C.3        1 <1>        0.000
     26 C19         9.8534    4.5533    2.0199 C.2        1 <1>        0.000
     27 N7         10.8367    4.2730    2.9067 N.am       1 <1>        0.000
     28 C20        11.8136    3.2049    2.9943 C.3        1 <1>        0.000
     29 C21        12.9709    3.3531    2.0103 C.2        1 <1>        0.000
     30 O2         13.5024    4.4620    1.8716 O.2        1 <1>        0.000
     31 O4          9.0400    5.4255    2.3487 O.2        1 <1>        0.000
     32 O10         9.6730   -1.3484    1.9156 O.2        1 <1>        0.000
     33 O11        11.0825    1.1677    0.2882 O.2        1 <1>        0.000
     34 H          14.0898    2.6098    0.5302 H.spc      1 <1>        0.000
     35 H          14.0662    0.4307    0.8450 H.spc      1 <1>        0.000
     36 H          13.0643    0.6659    2.3898 H.spc      1 <1>        0.000
     37 H          10.2668   -0.8969   -1.0949 H.spc      1 <1>        0.000
     38 H          10.3625   -3.6667   -0.5773 H.spc      1 <1>        0.000
     39 H          10.9382   -2.8466   -1.9941 H.spc      1 <1>        0.000
     40 H          12.5726   -4.1111   -0.0549 H.spc      1 <1>        0.000
     41 H          13.1385   -3.0665   -1.3130 H.spc      1 <1>        0.000
     42 H          13.7600   -1.6979    0.4334 H.spc      1 <1>        0.000
     43 H          12.6040   -2.4468    1.5475 H.spc      1 <1>        0.000
     44 H           4.8768    2.9700    0.8537 H.spc      1 <1>        0.000
     45 H           8.2261   -2.4730   -0.6448 H.spc      1 <1>        0.000
     46 H           6.3327   -2.6264    0.3961 H.spc      1 <1>        0.000
     47 H           7.3204   -2.5799    2.0114 H.spc      1 <1>        0.000
     48 H           5.2981   -1.1005    1.5175 H.spc      1 <1>        0.000
     49 H           6.6717   -0.1199    0.6889 H.spc      1 <1>        0.000
     50 H           7.6161    0.3578    2.5949 H.spc      1 <1>        0.000
     51 H           6.7027   -1.0047    3.4941 H.spc      1 <1>        0.000
     52 H           4.9996    0.2556    3.9101 H.spc      1 <1>        0.000
     53 H           6.3395    1.5508    3.8665 H.spc      1 <1>        0.000
     54 H           7.4685    1.9571    1.2479 H.spc      1 <1>        0.000
     55 H           7.1707    3.3953    2.3171 H.spc      1 <1>        0.000
     56 H           9.7102    2.7745    0.8763 H.spc      1 <1>        0.000
     57 H          11.1346    3.3402   -0.9078 H.spc      1 <1>        0.000
     58 H          11.7402    4.4753    0.2337 H.spc      1 <1>        0.000
     59 H          10.7074    5.3388   -2.1285 H.spc      1 <1>        0.000
     60 H          10.5340    6.2942   -0.7147 H.spc      1 <1>        0.000
     61 H           8.2770    6.0137   -1.0483 H.spc      1 <1>        0.000
     62 H           8.5310    4.5697   -2.0684 H.spc      1 <1>        0.000
     63 H          10.9042    4.9497    3.6669 H.spc      1 <1>        0.000
     64 H          11.3007    2.2727    2.7576 H.spc      1 <1>        0.000
     65 H          12.2343    3.2284    3.9996 H.spc      1 <1>        0.000
@<TRIPOS>BOND
     1   26   27 am 
     2   26   31 2  
     3   27   28 1  
     4   28   29 1  
     5   29   30 2  
     6   12   13 1  
     7   11   12 1  
     8   10   32 2  
     9   10   11 am 
    10    7    8 1  
    11    6    7 1  
    12    5   10 1  
    13    5    6 1  
    14    4    5 1  
    15    4    8 1  
    16    3   33 2  
    17    3    4 am 
    18    1   29 am 
    19    2    3 1  
    20    1    2 1  
    21   15   16 1  
    22   13   14 1  
    23   14   15 1  
    24   16    9 am 
    25    9   19 1  
    26   16   18 2  
    27   19   20 1  
    28   20   17 2  
    29   20   21 am 
    30   21   22 1  
    31   21   25 1  
    32   22   23 1  
    33   22   26 1  
    34   23   24 1  
    35   24   25 1  
    36    1   34 1  
    37    2   35 1  
    38    2   36 1  
    39    5   37 1  
    40    6   38 1  
    41    6   39 1  
    42    7   40 1  
    43    7   41 1  
    44    8   42 1  
    45    8   43 1  
    46    9   44 1  
    47   11   45 1  
    48   12   46 1  
    49   12   47 1  
    50   13   48 1  
    51   13   49 1  
    52   14   50 1  
    53   14   51 1  
    54   15   52 1  
    55   15   53 1  
    56   19   54 1  
    57   19   55 1  
    58   22   56 1  
    59   23   57 1  
    60   23   58 1  
    61   24   59 1  
    62   24   60 1  
    63   25   61 1  
    64   25   62 1  
    65   27   63 1  
    66   28   64 1  
    67   28   65 1  
# Name:          frag5-609-33/41815
# Creation time: Sat Jun  5 12:52:58 2010


@<TRIPOS>MOLECULE
frag5-609-33/41815
   65    67     1     1     1
SMALL
USER_CHARGES


@<TRIPOS>ATOM
      1 N1         13.2819    1.3823    0.6875 N.am       1 <1>        0.000
      2 C1         13.4362    0.3455   -0.3028 C.3        1 <1>        0.000
      3 C2         12.2761   -0.6329   -0.2254 C.2        1 <1>        0.000
      4 N2         12.2023   -1.5338    0.7840 N.am       1 <1>        0.000
      5 C3         10.9967   -2.2771    1.1259 C.3        1 <1>        0.000
      6 C4         11.3812   -3.4249    2.0250 C.3        1 <1>        0.000
      7 C5         12.6153   -2.9168    2.7230 C.3        1 <1>        0.000
      8 C6         13.1991   -1.9176    1.7594 C.3        1 <1>        0.000
      9 N5          5.1171    2.9004    1.1572 N.am       1 <1>        0.000
     10 C7         10.0710   -1.2965    1.8793 C.2        1 <1>        0.000
     11 N4          8.7328   -1.2615    1.7382 N.am       1 <1>        0.000
     12 C8          7.8193   -1.9108    0.8432 C.3        1 <1>        0.000
     13 C9          6.5586   -1.1821    0.4503 C.3        1 <1>        0.000
     14 C10         6.7098    0.2602    0.0181 C.3        1 <1>        0.000
     15 C11         5.4901    1.0186   -0.4255 C.3        1 <1>        0.000
     16 C12         4.7398    1.6891    0.6952 C.2        1 <1>        0.000
     17 O5          6.1990    4.5964    2.9513 O.2        1 <1>        0.000
     18 O7          3.7832    1.0999    1.1997 O.2        1 <1>        0.000
     19 C13         6.1749    3.7811    0.7250 C.3        1 <1>        0.000
     20 C14         6.8328    4.5187    1.8882 C.2        1 <1>        0.000
     21 N6          8.0445    5.1215    1.7515 N.am       1 <1>        0.000
     22 C15         8.9190    5.2359    0.5787 C.3        1 <1>        0.000
     23 C16         9.7884    6.4576    0.7886 C.3        1 <1>        0.000
     24 C17         9.9152    6.5605    2.2810 C.3        1 <1>        0.000
     25 C18         8.6755    5.8917    2.8002 C.3        1 <1>        0.000
     26 C19         9.7536    3.9413    0.3499 C.2        1 <1>        0.000
     27 N7         10.8831    4.0123   -0.4162 N.am       1 <1>        0.000
     28 C20        11.8459    2.9629   -0.6474 C.3        1 <1>        0.000
     29 C21        12.6163    2.5597    0.6124 C.2        1 <1>        0.000
     30 O2         12.6817    3.3408    1.5714 O.2        1 <1>        0.000
     31 O4          9.3682    2.8723    0.8206 O.2        1 <1>        0.000
     32 O10        10.5737   -0.5149    2.7009 O.2        1 <1>        0.000
     33 O11        11.3964   -0.5523   -1.0919 O.2        1 <1>        0.000
     34 H          13.7436    1.2019    1.5790 H.spc      1 <1>        0.000
     35 H          13.4542    0.7991   -1.2938 H.spc      1 <1>        0.000
     36 H          14.3670   -0.1900   -0.1159 H.spc      1 <1>        0.000
     37 H          10.4950   -2.6756    0.2440 H.spc      1 <1>        0.000
     38 H          10.5875   -3.6986    2.7202 H.spc      1 <1>        0.000
     39 H          11.5597   -4.3486    1.4746 H.spc      1 <1>        0.000
     40 H          12.3864   -2.4701    3.6906 H.spc      1 <1>        0.000
     41 H          13.3148   -3.7190    2.9581 H.spc      1 <1>        0.000
     42 H          14.0494   -2.3671    1.2466 H.spc      1 <1>        0.000
     43 H          13.5225   -1.0340    2.3097 H.spc      1 <1>        0.000
     44 H           4.5639    3.2499    1.9396 H.spc      1 <1>        0.000
     45 H           8.2724   -0.6445    2.4073 H.spc      1 <1>        0.000
     46 H           8.3744   -2.0420   -0.0856 H.spc      1 <1>        0.000
     47 H           7.4811   -2.7996    1.3758 H.spc      1 <1>        0.000
     48 H           5.9338   -1.1627    1.3433 H.spc      1 <1>        0.000
     49 H           6.1634   -1.7137   -0.4153 H.spc      1 <1>        0.000
     50 H           7.3537    0.2244   -0.8607 H.spc      1 <1>        0.000
     51 H           7.0593    0.7850    0.9072 H.spc      1 <1>        0.000
     52 H           5.8276    1.8038   -1.1020 H.spc      1 <1>        0.000
     53 H           4.8112    0.2981   -0.8817 H.spc      1 <1>        0.000
     54 H           5.7412    4.5252    0.0570 H.spc      1 <1>        0.000
     55 H           6.9380    3.1756    0.2359 H.spc      1 <1>        0.000
     56 H           8.3283    5.3536   -0.3298 H.spc      1 <1>        0.000
     57 H           9.3538    7.3548    0.3479 H.spc      1 <1>        0.000
     58 H          10.7568    6.3652    0.2969 H.spc      1 <1>        0.000
     59 H           9.9978    7.5940    2.6175 H.spc      1 <1>        0.000
     60 H          10.8247    6.0873    2.6511 H.spc      1 <1>        0.000
     61 H           8.9470    5.2242    3.6180 H.spc      1 <1>        0.000
     62 H           7.9795    6.6542    3.1499 H.spc      1 <1>        0.000
     63 H          11.0654    4.9050   -0.8748 H.spc      1 <1>        0.000
     64 H          12.5706    3.3345   -1.3719 H.spc      1 <1>        0.000
     65 H          11.3000    2.0857   -0.9946 H.spc      1 <1>        0.000
@<TRIPOS>BOND
     1   26   27 am 
     2   26   31 2  
     3   27   28 1  
     4   28   29 1  
     5   29   30 2  
     6   12   13 1  
     7   11   12 1  
     8   10   32 2  
     9   10   11 am 
    10    7    8 1  
    11    6    7 1  
    12    5   10 1  
    13    5    6 1  
    14    4    5 1  
    15    4    8 1  
    16    3   33 2  
    17    3    4 am 
    18    1   29 am 
    19    2    3 1  
    20    1    2 1  
    21   15   16 1  
    22   13   14 1  
    23   14   15 1  
    24   16    9 am 
    25    9   19 1  
    26   16   18 2  
    27   19   20 1  
    28   20   17 2  
    29   20   21 am 
    30   21   22 1  
    31   21   25 1  
    32   22   23 1  
    33   22   26 1  
    34   23   24 1  
    35   24   25 1  
    36    1   34 1  
    37    2   35 1  
    38    2   36 1  
    39    5   37 1  
    40    6   38 1  
    41    6   39 1  
    42    7   40 1  
    43    7   41 1  
    44    8   42 1  
    45    8   43 1  
    46    9   44 1  
    47   11   45 1  
    48   12   46 1  
    49   12   47 1  
    50   13   48 1  
    51   13   49 1  
    52   14   50 1  
    53   14   51 1  
    54   15   52 1  
    55   15   53 1  
    56   19   54 1  
    57   19   55 1  
    58   22   56 1  
    59   23   57 1  
    60   23   58 1  
    61   24   59 1  
    62   24   60 1  
    63   25   61 1  
    64   25   62 1  
    65   27   63 1  
    66   28   64 1  
    67   28   65 1  
# Name:          frag5-609-33/41815
# Creation time: Sat Jun  5 12:52:58 2010


@<TRIPOS>MOLECULE
frag5-609-33/41815
   65    67     1     1     1
SMALL
USER_CHARGES


@<TRIPOS>ATOM
      1 N1         13.1030    1.4732    1.4048 N.am       1 <1>        0.000
      2 C1         13.3971    0.5609    0.3337 C.3        1 <1>        0.000
      3 C2         12.1739   -0.2918    0.0177 C.2        1 <1>        0.000
      4 N2         12.0261   -1.5072    0.6001 N.am       1 <1>        0.000
      5 C3         10.8128   -2.3158    0.5836 C.3        1 <1>        0.000
      6 C4         11.2187   -3.7471    0.8257 C.3        1 <1>        0.000
      7 C5         12.4021   -3.5989    1.7454 C.3        1 <1>        0.000
      8 C6         12.9878   -2.2641    1.3707 C.3        1 <1>        0.000
      9 N5          5.4367    2.7916    1.4774 N.am       1 <1>        0.000
     10 C7          9.8998   -1.8592    1.7436 C.2        1 <1>        0.000
     11 N4          8.5867   -2.1619    1.7912 N.am       1 <1>        0.000
     12 C8          7.6745   -2.5697    0.7715 C.3        1 <1>        0.000
     13 C9          6.9741   -1.4807    0.0042 C.3        1 <1>        0.000
     14 C10         6.3637   -0.3778    0.8386 C.3        1 <1>        0.000
     15 C11         5.5078    0.6646    0.1805 C.3        1 <1>        0.000
     16 C12         4.8639    1.6143    1.1591 C.2        1 <1>        0.000
     17 O5          6.3143    5.0076    2.6969 O.2        1 <1>        0.000
     18 O7          3.8044    1.2719    1.6908 O.2        1 <1>        0.000
     19 C13         6.6542    3.3924    0.9917 C.3        1 <1>        0.000
     20 C14         7.0225    4.6799    1.7327 C.2        1 <1>        0.000
     21 N6          8.0702    5.4578    1.3433 N.am       1 <1>        0.000
     22 C15         8.9620    5.3254    0.1855 C.3        1 <1>        0.000
     23 C16         9.5232    6.7014   -0.1017 C.3        1 <1>        0.000
     24 C17         9.5624    7.3560    1.2479 C.3        1 <1>        0.000
     25 C18         8.4477    6.6892    2.0015 C.3        1 <1>        0.000
     26 C19        10.0402    4.2381    0.4540 C.2        1 <1>        0.000
     27 N7         11.2952    4.3732   -0.0634 N.am       1 <1>        0.000
     28 C20        12.3539    3.3999   -0.0178 C.3        1 <1>        0.000
     29 C21        12.6489    2.7543    1.3416 C.2        1 <1>        0.000
     30 O2         12.5285    3.4004    2.3783 O.2        1 <1>        0.000
     31 O4          9.7295    3.2342    1.0994 O.2        1 <1>        0.000
     32 O10        10.3721   -1.2607    2.7148 O.2        1 <1>        0.000
     33 O11        11.3210    0.1756   -0.7469 O.2        1 <1>        0.000
     34 H          13.2564    1.1088    2.3451 H.spc      1 <1>        0.000
     35 H          13.6742    1.1300   -0.5537 H.spc      1 <1>        0.000
     36 H          14.2178   -0.0902    0.6348 H.spc      1 <1>        0.000
     37 H          10.2874   -2.2134   -0.3659 H.spc      1 <1>        0.000
     38 H          10.4186   -4.3515    1.2531 H.spc      1 <1>        0.000
     39 H          11.4558   -4.2850   -0.0922 H.spc      1 <1>        0.000
     40 H          12.1174   -3.6453    2.7965 H.spc      1 <1>        0.000
     41 H          13.1191   -4.4119    1.6312 H.spc      1 <1>        0.000
     42 H          13.8865   -2.4192    0.7738 H.spc      1 <1>        0.000
     43 H          13.2381   -1.7127    2.2770 H.spc      1 <1>        0.000
     44 H           4.9303    3.3437    2.1696 H.spc      1 <1>        0.000
     45 H           8.1718   -2.0861    2.7199 H.spc      1 <1>        0.000
     46 H           8.2714   -3.1128    0.0387 H.spc      1 <1>        0.000
     47 H           6.8884   -3.1266    1.2814 H.spc      1 <1>        0.000
     48 H           6.1501   -1.9582   -0.5259 H.spc      1 <1>        0.000
     49 H           7.7310   -1.0098   -0.6230 H.spc      1 <1>        0.000
     50 H           7.2173    0.1747    1.2313 H.spc      1 <1>        0.000
     51 H           5.6916   -0.8922    1.5255 H.spc      1 <1>        0.000
     52 H           6.1508    1.2528   -0.4742 H.spc      1 <1>        0.000
     53 H           4.7086    0.1470   -0.3501 H.spc      1 <1>        0.000
     54 H           6.5043    3.6447   -0.0581 H.spc      1 <1>        0.000
     55 H           7.4622    2.6773    1.1466 H.spc      1 <1>        0.000
     56 H           8.4357    4.9797   -0.7042 H.spc      1 <1>        0.000
     57 H           8.9172    7.2575   -0.8170 H.spc      1 <1>        0.000
     58 H          10.5049    6.6607   -0.5736 H.spc      1 <1>        0.000
     59 H           9.4352    8.4369    1.1889 H.spc      1 <1>        0.000
     60 H          10.5272    7.2346    1.7403 H.spc      1 <1>        0.000
     61 H           8.7840    6.4653    3.0139 H.spc      1 <1>        0.000
     62 H           7.5868    7.3571    2.0321 H.spc      1 <1>        0.000
     63 H          11.5047    5.2553   -0.5308 H.spc      1 <1>        0.000
     64 H          13.2618    3.9349   -0.2962 H.spc      1 <1>        0.000
     65 H          12.0383    2.5864   -0.6711 H.spc      1 <1>        0.000
@<TRIPOS>BOND
     1   26   27 am 
     2   26   31 2  
     3   27   28 1  
     4   28   29 1  
     5   29   30 2  
     6   12   13 1  
     7   11   12 1  
     8   10   32 2  
     9   10   11 am 
    10    7    8 1  
    11    6    7 1  
    12    5   10 1  
    13    5    6 1  
    14    4    5 1  
    15    4    8 1  
    16    3   33 2  
    17    3    4 am 
    18    1   29 am 
    19    2    3 1  
    20    1    2 1  
    21   15   16 1  
    22   13   14 1  
    23   14   15 1  
    24   16    9 am 
    25    9   19 1  
    26   16   18 2  
    27   19   20 1  
    28   20   17 2  
    29   20   21 am 
    30   21   22 1  
    31   21   25 1  
    32   22   23 1  
    33   22   26 1  
    34   23   24 1  
    35   24   25 1  
    36    1   34 1  
    37    2   35 1  
    38    2   36 1  
    39    5   37 1  
    40    6   38 1  
    41    6   39 1  
    42    7   40 1  
    43    7   41 1  
    44    8   42 1  
    45    8   43 1  
    46    9   44 1  
    47   11   45 1  
    48   12   46 1  
    49   12   47 1  
    50   13   48 1  
    51   13   49 1  
    52   14   50 1  
    53   14   51 1  
    54   15   52 1  
    55   15   53 1  
    56   19   54 1  
    57   19   55 1  
    58   22   56 1  
    59   23   57 1  
    60   23   58 1  
    61   24   59 1  
    62   24   60 1  
    63   25   61 1  
    64   25   62 1  
    65   27   63 1  
    66   28   64 1  
    67   28   65 1  
# Name:          frag5-609-33/41815
# Creation time: Sat Jun  5 12:52:58 2010


@<TRIPOS>MOLECULE
frag5-609-33/41815
   65    67     1     1     1
SMALL
USER_CHARGES


@<TRIPOS>ATOM
      1 N1         13.9112    1.6086   -0.1115 N.am       1 <1>        0.000
      2 C1         13.8894    0.2650    0.4482 C.3        1 <1>        0.000
      3 C2         12.6824   -0.6094    0.0538 C.2        1 <1>        0.000
      4 N2         12.3569   -1.6891    0.8159 N.am       1 <1>        0.000
      5 C3         11.1839   -2.5384    0.6291 C.3        1 <1>        0.000
      6 C4         11.4590   -3.8615    1.3035 C.3        1 <1>        0.000
      7 C5         12.3868   -3.4920    2.4314 C.3        1 <1>        0.000
      8 C6         13.0426   -2.2198    1.9759 C.3        1 <1>        0.000
      9 N5          5.2765    2.9860    1.1125 N.am       1 <1>        0.000
     10 C7          9.9425   -1.8520    1.2595 C.2        1 <1>        0.000
     11 N4          8.7067   -2.4071    1.1186 N.am       1 <1>        0.000
     12 C8          7.5007   -1.9285    1.7372 C.3        1 <1>        0.000
     13 C9          7.0371   -0.5074    1.5137 C.3        1 <1>        0.000
     14 C10         5.7246   -0.2683    0.8008 C.3        1 <1>        0.000
     15 C11         5.6350    0.8773   -0.1755 C.3        1 <1>        0.000
     16 C12         4.8038    2.0510    0.2695 C.2        1 <1>        0.000
     17 O5          5.8964    5.0734    2.9216 O.2        1 <1>        0.000
     18 O7          3.6456    2.1430   -0.1474 O.2        1 <1>        0.000
     19 C13         6.5691    3.1448    1.7341 C.3        1 <1>        0.000
     20 C14         6.7556    4.5983    2.1637 C.2        1 <1>        0.000
     21 N6          7.7860    5.3668    1.7221 N.am       1 <1>        0.000
     22 C15         8.8386    5.0416    0.7561 C.3        1 <1>        0.000
     23 C16         9.5019    6.3266    0.2954 C.3        1 <1>        0.000
     24 C17         8.8175    7.4340    1.0510 C.3        1 <1>        0.000
     25 C18         7.9873    6.7450    2.0913 C.3        1 <1>        0.000
     26 C19         9.8173    3.9819    1.3421 C.2        1 <1>        0.000
     27 N7         10.9447    3.6619    0.6650 N.am       1 <1>        0.000
     28 C20        11.8156    2.5471    0.9452 C.3        1 <1>        0.000
     29 C21        13.0961    2.6596    0.1101 C.2        1 <1>        0.000
     30 O2         13.4080    3.7491   -0.3861 O.2        1 <1>        0.000
     31 O4          9.5307    3.3969    2.3906 O.2        1 <1>        0.000
     32 O10        10.0972   -0.8214    1.9210 O.2        1 <1>        0.000
     33 O11        12.0323   -0.3358   -0.9616 O.2        1 <1>        0.000
     34 H          14.6634    1.7829   -0.7780 H.spc      1 <1>        0.000
     35 H          14.7744   -0.2420    0.0637 H.spc      1 <1>        0.000
     36 H          13.8414    0.3842    1.5306 H.spc      1 <1>        0.000
     37 H          10.9832   -2.6981   -0.4303 H.spc      1 <1>        0.000
     38 H          10.5496   -4.3507    1.6525 H.spc      1 <1>        0.000
     39 H          11.8956   -4.5945    0.6251 H.spc      1 <1>        0.000
     40 H          11.8541   -3.3629    3.3736 H.spc      1 <1>        0.000
     41 H          13.1149   -4.2770    2.6359 H.spc      1 <1>        0.000
     42 H          14.0795   -2.4282    1.7122 H.spc      1 <1>        0.000
     43 H          12.9977   -1.4876    2.7821 H.spc      1 <1>        0.000
     44 H           4.6019    3.7114    1.3556 H.spc      1 <1>        0.000
     45 H           8.6306   -3.2322    0.5238 H.spc      1 <1>        0.000
     46 H           6.7125   -2.5405    1.2987 H.spc      1 <1>        0.000
     47 H           7.7087   -1.9784    2.8060 H.spc      1 <1>        0.000
     48 H           7.7934   -0.0637    0.8662 H.spc      1 <1>        0.000
     49 H           6.8922   -0.0986    2.5137 H.spc      1 <1>        0.000
     50 H           5.0116   -0.0274    1.5893 H.spc      1 <1>        0.000
     51 H           5.5566   -1.1650    0.2044 H.spc      1 <1>        0.000
     52 H           6.6506    1.2506   -0.3073 H.spc      1 <1>        0.000
     53 H           5.1565    0.4823   -1.0717 H.spc      1 <1>        0.000
     54 H           7.3490    2.8745    1.0222 H.spc      1 <1>        0.000
     55 H           6.6324    2.4975    2.6088 H.spc      1 <1>        0.000
     56 H           8.4173    4.5708   -0.1322 H.spc      1 <1>        0.000
     57 H           9.4023    6.4606   -0.7817 H.spc      1 <1>        0.000
     58 H          10.5735    6.3136    0.4945 H.spc      1 <1>        0.000
     59 H           8.2063    8.0518    0.3931 H.spc      1 <1>        0.000
     60 H           9.5368    8.1192    1.4995 H.spc      1 <1>        0.000
     61 H           8.5027    6.7892    3.0507 H.spc      1 <1>        0.000
     62 H           7.0203    7.2422    2.1678 H.spc      1 <1>        0.000
     63 H          11.2023    4.2653   -0.1160 H.spc      1 <1>        0.000
     64 H          11.3029    1.6190    0.6924 H.spc      1 <1>        0.000
     65 H          12.0760    2.5526    2.0036 H.spc      1 <1>        0.000
@<TRIPOS>BOND
     1   26   27 am 
     2   26   31 2  
     3   27   28 1  
     4   28   29 1  
     5   29   30 2  
     6   12   13 1  
     7   11   12 1  
     8   10   32 2  
     9   10   11 am 
    10    7    8 1  
    11    6    7 1  
    12    5   10 1  
    13    5    6 1  
    14    4    5 1  
    15    4    8 1  
    16    3   33 2  
    17    3    4 am 
    18    1   29 am 
    19    2    3 1  
    20    1    2 1  
    21   15   16 1  
    22   13   14 1  
    23   14   15 1  
    24   16    9 am 
    25    9   19 1  
    26   16   18 2  
    27   19   20 1  
    28   20   17 2  
    29   20   21 am 
    30   21   22 1  
    31   21   25 1  
    32   22   23 1  
    33   22   26 1  
    34   23   24 1  
    35   24   25 1  
    36    1   34 1  
    37    2   35 1  
    38    2   36 1  
    39    5   37 1  
    40    6   38 1  
    41    6   39 1  
    42    7   40 1  
    43    7   41 1  
    44    8   42 1  
    45    8   43 1  
    46    9   44 1  
    47   11   45 1  
    48   12   46 1  
    49   12   47 1  
    50   13   48 1  
    51   13   49 1  
    52   14   50 1  
    53   14   51 1  
    54   15   52 1  
    55   15   53 1  
    56   19   54 1  
    57   19   55 1  
    58   22   56 1  
    59   23   57 1  
    60   23   58 1  
    61   24   59 1  
    62   24   60 1  
    63   25   61 1  
    64   25   62 1  
    65   27   63 1  
    66   28   64 1  
    67   28   65 1  
# Name:          frag5-609-33/41815
# Creation time: Sat Jun  5 12:52:58 2010


@<TRIPOS>MOLECULE
frag5-609-33/41815
   65    67     1     1     1
SMALL
USER_CHARGES


@<TRIPOS>ATOM
      1 N1         13.7407    1.8630    1.1331 N.am       1 <1>        0.000
      2 C1         12.8068    1.0106    1.8331 C.3        1 <1>        0.000
      3 C2         12.2078   -0.0319    0.8897 C.2        1 <1>        0.000
      4 N2         11.3320   -0.9657    1.3318 N.am       1 <1>        0.000
      5 C3         10.6051   -1.8436    0.4259 C.3        1 <1>        0.000
      6 C4         10.0854   -3.0099    1.2248 C.3        1 <1>        0.000
      7 C5          9.8878   -2.4279    2.5959 C.3        1 <1>        0.000
      8 C6         10.8909   -1.3077    2.6706 C.3        1 <1>        0.000
      9 N5          6.3376    1.9025    2.6707 N.am       1 <1>        0.000
     10 C7          9.4447   -1.0474   -0.2218 C.2        1 <1>        0.000
     11 N4          8.5847   -1.6973   -1.0537 N.am       1 <1>        0.000
     12 C8          7.2901   -1.2583   -1.4523 C.3        1 <1>        0.000
     13 C9          6.1632   -1.3171   -0.4528 C.3        1 <1>        0.000
     14 C10         5.9117   -0.1159    0.4285 C.3        1 <1>        0.000
     15 C11         5.5670   -0.2883    1.8892 C.3        1 <1>        0.000
     16 C12         6.4807    0.5539    2.7271 C.2        1 <1>        0.000
     17 O5          6.0421    4.6593    2.4694 O.2        1 <1>        0.000
     18 O7          7.3975    0.0006    3.3358 O.2        1 <1>        0.000
     19 C13         7.4807    2.7776    2.6276 C.3        1 <1>        0.000
     20 C14         7.1101    4.1595    2.0881 C.2        1 <1>        0.000
     21 N6          7.9188    4.8238    1.2202 N.am       1 <1>        0.000
     22 C15         9.0958    4.3193    0.5076 C.3        1 <1>        0.000
     23 C16         9.3236    5.2275   -0.6748 C.3        1 <1>        0.000
     24 C17         8.8119    6.5586   -0.2039 C.3        1 <1>        0.000
     25 C18         7.7526    6.2007    0.8027 C.3        1 <1>        0.000
     26 C19        10.2721    4.2458    1.5091 C.2        1 <1>        0.000
     27 N7         11.5136    3.8535    1.1883 N.am       1 <1>        0.000
     28 C20        12.1259    3.4004   -0.0303 C.3        1 <1>        0.000
     29 C21        13.5150    2.8600    0.2504 C.2        1 <1>        0.000
     30 O2         14.4751    3.3401   -0.3611 O.2        1 <1>        0.000
     31 O4         10.1038    4.5337    2.7016 O.2        1 <1>        0.000
     32 O10         9.2788    0.1505    0.0346 O.2        1 <1>        0.000
     33 O11        12.5252   -0.0028   -0.3084 O.2        1 <1>        0.000
     34 H          14.7238    1.6836    1.3376 H.spc      1 <1>        0.000
     35 H          13.3356    0.4952    2.6349 H.spc      1 <1>        0.000
     36 H          12.0009    1.6266    2.2321 H.spc      1 <1>        0.000
     37 H          11.2500   -2.2150   -0.3705 H.spc      1 <1>        0.000
     38 H           9.1682   -3.4278    0.8098 H.spc      1 <1>        0.000
     39 H          10.7698   -3.8582    1.2233 H.spc      1 <1>        0.000
     40 H           8.8675   -2.0769    2.7503 H.spc      1 <1>        0.000
     41 H          10.0385   -3.1677    3.3821 H.spc      1 <1>        0.000
     42 H          11.7471   -1.6250    3.2659 H.spc      1 <1>        0.000
     43 H          10.4295   -0.4364    3.1354 H.spc      1 <1>        0.000
     44 H           5.4004    2.3048    2.6586 H.spc      1 <1>        0.000
     45 H           8.9005   -2.5911   -1.4303 H.spc      1 <1>        0.000
     46 H           7.4092   -0.1993   -1.6814 H.spc      1 <1>        0.000
     47 H           6.9948   -1.9387   -2.2510 H.spc      1 <1>        0.000
     48 H           6.4343   -2.1198    0.2330 H.spc      1 <1>        0.000
     49 H           5.2587   -1.4235   -1.0516 H.spc      1 <1>        0.000
     50 H           5.0245    0.3489   -0.0015 H.spc      1 <1>        0.000
     51 H           6.8662    0.4103    0.4404 H.spc      1 <1>        0.000
     52 H           4.5355    0.0221    2.0559 H.spc      1 <1>        0.000
     53 H           5.6852   -1.3357    2.1670 H.spc      1 <1>        0.000
     54 H           8.2269    2.3378    1.9658 H.spc      1 <1>        0.000
     55 H           7.8638    2.8946    3.6413 H.spc      1 <1>        0.000
     56 H           8.9740    3.3099    0.1148 H.spc      1 <1>        0.000
     57 H           8.8122    4.8788   -1.5720 H.spc      1 <1>        0.000
     58 H          10.3710    5.2665   -0.9739 H.spc      1 <1>        0.000
     59 H           8.4201    7.1649   -1.0206 H.spc      1 <1>        0.000
     60 H           9.5997    7.1777    0.2253 H.spc      1 <1>        0.000
     61 H           7.8440    6.8542    1.6703 H.spc      1 <1>        0.000
     62 H           6.7687    6.3241    0.3502 H.spc      1 <1>        0.000
     63 H          12.1606    3.8829    1.9763 H.spc      1 <1>        0.000
     64 H          12.2024    4.2378   -0.7238 H.spc      1 <1>        0.000
     65 H          11.5155    2.6077   -0.4628 H.spc      1 <1>        0.000
@<TRIPOS>BOND
     1   26   27 am 
     2   26   31 2  
     3   27   28 1  
     4   28   29 1  
     5   29   30 2  
     6   12   13 1  
     7   11   12 1  
     8   10   32 2  
     9   10   11 am 
    10    7    8 1  
    11    6    7 1  
    12    5   10 1  
    13    5    6 1  
    14    4    5 1  
    15    4    8 1  
    16    3   33 2  
    17    3    4 am 
    18    1   29 am 
    19    2    3 1  
    20    1    2 1  
    21   15   16 1  
    22   13   14 1  
    23   14   15 1  
    24   16    9 am 
    25    9   19 1  
    26   16   18 2  
    27   19   20 1  
    28   20   17 2  
    29   20   21 am 
    30   21   22 1  
    31   21   25 1  
    32   22   23 1  
    33   22   26 1  
    34   23   24 1  
    35   24   25 1  
    36    1   34 1  
    37    2   35 1  
    38    2   36 1  
    39    5   37 1  
    40    6   38 1  
    41    6   39 1  
    42    7   40 1  
    43    7   41 1  
    44    8   42 1  
    45    8   43 1  
    46    9   44 1  
    47   11   45 1  
    48   12   46 1  
    49   12   47 1  
    50   13   48 1  
    51   13   49 1  
    52   14   50 1  
    53   14   51 1  
    54   15   52 1  
    55   15   53 1  
    56   19   54 1  
    57   19   55 1  
    58   22   56 1  
    59   23   57 1  
    60   23   58 1  
    61   24   59 1  
    62   24   60 1  
    63   25   61 1  
    64   25   62 1  
    65   27   63 1  
    66   28   64 1  
    67   28   65 1  
# Name:          frag5-609-33/41815
# Creation time: Sat Jun  5 12:52:58 2010


@<TRIPOS>MOLECULE
frag5-609-33/41815
   65    67     1     1     1
SMALL
USER_CHARGES


@<TRIPOS>ATOM
      1 N1         12.5105    1.7495    0.1527 N.am       1 <1>        0.000
      2 C1         12.9861    0.5158   -0.4064 C.3        1 <1>        0.000
      3 C2         11.8965   -0.5448   -0.3865 C.2        1 <1>        0.000
      4 N2         11.8728   -1.4951    0.5899 N.am       1 <1>        0.000
      5 C3         10.7371   -2.3855    0.8462 C.3        1 <1>        0.000
      6 C4         11.2732   -3.5266    1.6751 C.3        1 <1>        0.000
      7 C5         12.3457   -2.8642    2.5120 C.3        1 <1>        0.000
      8 C6         12.8388   -1.7431    1.6399 C.3        1 <1>        0.000
      9 N5          5.7756    2.6543    0.2641 N.am       1 <1>        0.000
     10 C7          9.6524   -1.5553    1.5836 C.2        1 <1>        0.000
     11 N4          8.4806   -2.1766    1.9391 N.am       1 <1>        0.000
     12 C8          7.4071   -1.5286    2.6601 C.3        1 <1>        0.000
     13 C9          6.3691   -0.6694    1.9663 C.3        1 <1>        0.000
     14 C10         6.4872   -0.5459    0.4652 C.3        1 <1>        0.000
     15 C11         5.5029    0.2149   -0.3916 C.3        1 <1>        0.000
     16 C12         5.0019    1.5969   -0.0327 C.2        1 <1>        0.000
     17 O5          6.3628    3.7440    2.7170 O.2        1 <1>        0.000
     18 O7          3.7751    1.7657   -0.0565 O.2        1 <1>        0.000
     19 C13         7.1578    2.7762    0.6918 C.3        1 <1>        0.000
     20 C14         7.1714    3.8545    1.7840 C.2        1 <1>        0.000
     21 N6          7.9833    4.9403    1.7149 N.am       1 <1>        0.000
     22 C15         9.0630    5.2232    0.7713 C.3        1 <1>        0.000
     23 C16         9.3391    6.7061    0.8432 C.3        1 <1>        0.000
     24 C17         8.9838    7.0674    2.2592 C.3        1 <1>        0.000
     25 C18         7.9269    6.0646    2.6248 C.3        1 <1>        0.000
     26 C19        10.2829    4.3380    1.1582 C.2        1 <1>        0.000
     27 N7         11.5176    4.6153    0.6587 N.am       1 <1>        0.000
     28 C20        12.7545    4.0184    1.0998 C.3        1 <1>        0.000
     29 C21        13.2662    2.8706    0.2446 C.2        1 <1>        0.000
     30 O2         14.3666    2.9624   -0.3131 O.2        1 <1>        0.000
     31 O4         10.1264    3.3620    1.8999 O.2        1 <1>        0.000
     32 O10         9.8495   -0.3827    1.8664 O.2        1 <1>        0.000
     33 O11        11.0145   -0.4951   -1.2446 O.2        1 <1>        0.000
     34 H          11.5519    1.7841    0.4995 H.spc      1 <1>        0.000
     35 H          13.2853    0.6916   -1.4397 H.spc      1 <1>        0.000
     36 H          13.8290    0.1635    0.1881 H.spc      1 <1>        0.000
     37 H          10.2797   -2.7948   -0.0546 H.spc      1 <1>        0.000
     38 H          10.5039   -4.0085    2.2784 H.spc      1 <1>        0.000
     39 H          11.6572   -4.3462    1.0677 H.spc      1 <1>        0.000
     40 H          11.9649   -2.5088    3.4695 H.spc      1 <1>        0.000
     41 H          13.1416   -3.5552    2.7897 H.spc      1 <1>        0.000
     42 H          13.7965   -2.0181    1.1979 H.spc      1 <1>        0.000
     43 H          12.9657   -0.8420    2.2400 H.spc      1 <1>        0.000
     44 H           5.2966    3.5499    0.1703 H.spc      1 <1>        0.000
     45 H           8.3597   -3.1554    1.6787 H.spc      1 <1>        0.000
     46 H           6.8252   -2.3625    3.0526 H.spc      1 <1>        0.000
     47 H           7.9265   -0.8243    3.3099 H.spc      1 <1>        0.000
     48 H           6.4986    0.3378    2.3623 H.spc      1 <1>        0.000
     49 H           5.4079   -1.1478    2.1543 H.spc      1 <1>        0.000
     50 H           6.3610   -1.5740    0.1259 H.spc      1 <1>        0.000
     51 H           7.4088    0.0224    0.3397 H.spc      1 <1>        0.000
     52 H           6.0536    0.3812   -1.3174 H.spc      1 <1>        0.000
     53 H           4.6028   -0.3979   -0.3426 H.spc      1 <1>        0.000
     54 H           7.8052    3.0507   -0.1410 H.spc      1 <1>        0.000
     55 H           7.5383    1.8274    1.0701 H.spc      1 <1>        0.000
     56 H           8.8128    4.9823   -0.2619 H.spc      1 <1>        0.000
     57 H           8.7615    7.2722    0.1125 H.spc      1 <1>        0.000
     58 H          10.3735    6.9485    0.5996 H.spc      1 <1>        0.000
     59 H           8.6331    8.0953    2.3517 H.spc      1 <1>        0.000
     60 H           9.8439    7.0291    2.9276 H.spc      1 <1>        0.000
     61 H           8.0989    5.7140    3.6425 H.spc      1 <1>        0.000
     62 H           6.9455    6.5341    2.5576 H.spc      1 <1>        0.000
     63 H          11.5734    5.3040   -0.0916 H.spc      1 <1>        0.000
     64 H          12.5654    3.6073    2.0914 H.spc      1 <1>        0.000
     65 H          13.5114    4.8015    1.0547 H.spc      1 <1>        0.000
@<TRIPOS>BOND
     1   26   27 am 
     2   26   31 2  
     3   27   28 1  
     4   28   29 1  
     5   29   30 2  
     6   12   13 1  
     7   11   12 1  
     8   10   32 2  
     9   10   11 am 
    10    7    8 1  
    11    6    7 1  
    12    5   10 1  
    13    5    6 1  
    14    4    5 1  
    15    4    8 1  
    16    3   33 2  
    17    3    4 am 
    18    1   29 am 
    19    2    3 1  
    20    1    2 1  
    21   15   16 1  
    22   13   14 1  
    23   14   15 1  
    24   16    9 am 
    25    9   19 1  
    26   16   18 2  
    27   19   20 1  
    28   20   17 2  
    29   20   21 am 
    30   21   22 1  
    31   21   25 1  
    32   22   23 1  
    33   22   26 1  
    34   23   24 1  
    35   24   25 1  
    36    1   34 1  
    37    2   35 1  
    38    2   36 1  
    39    5   37 1  
    40    6   38 1  
    41    6   39 1  
    42    7   40 1  
    43    7   41 1  
    44    8   42 1  
    45    8   43 1  
    46    9   44 1  
    47   11   45 1  
    48   12   46 1  
    49   12   47 1  
    50   13   48 1  
    51   13   49 1  
    52   14   50 1  
    53   14   51 1  
    54   15   52 1  
    55   15   53 1  
    56   19   54 1  
    57   19   55 1  
    58   22   56 1  
    59   23   57 1  
    60   23   58 1  
    61   24   59 1  
    62   24   60 1  
    63   25   61 1  
    64   25   62 1  
    65   27   63 1  
    66   28   64 1  
    67   28   65 1  
# Name:          frag5-609-33/41815
# Creation time: Sat Jun  5 12:52:58 2010


@<TRIPOS>MOLECULE
frag5-609-33/41815
   65    67     1     1     1
SMALL
USER_CHARGES


@<TRIPOS>ATOM
      1 N1         13.2344    1.3042    2.1534 N.am       1 <1>        0.000
      2 C1         13.2254    1.2969    0.7075 C.3        1 <1>        0.000
      3 C2         11.9439    0.6890    0.1818 C.2        1 <1>        0.000
      4 N2         11.8313   -0.6196   -0.1958 N.am       1 <1>        0.000
      5 C3         10.5731   -1.2863   -0.4743 C.3        1 <1>        0.000
      6 C4         10.8805   -2.5097   -1.3152 C.3        1 <1>        0.000
      7 C5         12.3006   -2.8438   -0.9597 C.3        1 <1>        0.000
      8 C6         12.8913   -1.5417   -0.4705 C.3        1 <1>        0.000
      9 N5          5.4928    3.0343    2.1000 N.am       1 <1>        0.000
     10 C7          9.8210   -1.6457    0.8400 C.2        1 <1>        0.000
     11 N4          8.6335   -2.3192    0.7676 N.am       1 <1>        0.000
     12 C8          7.7523   -2.6435    1.8484 C.3        1 <1>        0.000
     13 C9          6.8304   -1.5949    2.4205 C.3        1 <1>        0.000
     14 C10         6.0528   -0.7188    1.4512 C.3        1 <1>        0.000
     15 C11         6.3379    0.7639    1.5349 C.3        1 <1>        0.000
     16 C12         5.2414    1.7028    1.9864 C.2        1 <1>        0.000
     17 O5          5.9043    5.4459    0.6064 O.2        1 <1>        0.000
     18 O7          4.1280    1.2648    2.2459 O.2        1 <1>        0.000
     19 C13         6.7587    3.7294    2.0248 C.3        1 <1>        0.000
     20 C14         6.8866    4.7435    0.8738 C.2        1 <1>        0.000
     21 N6          8.0585    4.8782    0.1875 N.am       1 <1>        0.000
     22 C15         9.2428    4.0178    0.2407 C.3        1 <1>        0.000
     23 C16        10.1014    4.3008   -0.9740 C.3        1 <1>        0.000
     24 C17         9.7218    5.6983   -1.3724 C.3        1 <1>        0.000
     25 C18         8.3354    5.8827   -0.8171 C.3        1 <1>        0.000
     26 C19        10.0133    4.1881    1.5806 C.2        1 <1>        0.000
     27 N7         11.1501    3.4728    1.7720 N.am       1 <1>        0.000
     28 C20        11.9938    3.4207    2.9367 C.3        1 <1>        0.000
     29 C21        12.7958    2.1282    3.1223 C.2        1 <1>        0.000
     30 O2         13.1366    1.8334    4.2771 O.2        1 <1>        0.000
     31 O4          9.5784    4.9324    2.4625 O.2        1 <1>        0.000
     32 O10        10.2908   -1.3063    1.9303 O.2        1 <1>        0.000
     33 O11        10.9398    1.4288    0.1232 O.2        1 <1>        0.000
     34 H          13.6882    0.4745    2.5356 H.spc      1 <1>        0.000
     35 H          13.2998    2.3240    0.3502 H.spc      1 <1>        0.000
     36 H          14.0676    0.7023    0.3536 H.spc      1 <1>        0.000
     37 H           9.9030   -0.6257   -1.0245 H.spc      1 <1>        0.000
     38 H          10.1975   -3.3345   -1.1117 H.spc      1 <1>        0.000
     39 H          10.7536   -2.3220   -2.3814 H.spc      1 <1>        0.000
     40 H          12.3566   -3.6254   -0.2020 H.spc      1 <1>        0.000
     41 H          12.8494   -3.2440   -1.8122 H.spc      1 <1>        0.000
     42 H          13.5485   -1.1273   -1.2350 H.spc      1 <1>        0.000
     43 H          13.4673   -1.7190    0.4377 H.spc      1 <1>        0.000
     44 H           4.6761    3.6240    2.2603 H.spc      1 <1>        0.000
     45 H           8.3426   -2.6251   -0.1609 H.spc      1 <1>        0.000
     46 H           7.0811   -3.3953    1.4331 H.spc      1 <1>        0.000
     47 H           8.4185   -2.8961    2.6733 H.spc      1 <1>        0.000
     48 H           7.4773   -0.9118    2.9710 H.spc      1 <1>        0.000
     49 H           6.0750   -2.1485    2.9781 H.spc      1 <1>        0.000
     50 H           4.9987   -0.8451    1.6982 H.spc      1 <1>        0.000
     51 H           6.3439   -1.0332    0.4490 H.spc      1 <1>        0.000
     52 H           7.1141    0.8561    2.2945 H.spc      1 <1>        0.000
     53 H           6.5574    1.0639    0.5102 H.spc      1 <1>        0.000
     54 H           7.5219    2.9695    1.8568 H.spc      1 <1>        0.000
     55 H           6.8591    4.2951    2.9511 H.spc      1 <1>        0.000
     56 H           8.9418    2.9705    0.2133 H.spc      1 <1>        0.000
     57 H           9.9307    3.5826   -1.7760 H.spc      1 <1>        0.000
     58 H          11.1656    4.2085   -0.7573 H.spc      1 <1>        0.000
     59 H           9.7519    5.8383   -2.4530 H.spc      1 <1>        0.000
     60 H          10.4205    6.4389   -0.9832 H.spc      1 <1>        0.000
     61 H           8.2630    6.8704   -0.3619 H.spc      1 <1>        0.000
     62 H           7.6121    5.7850   -1.6266 H.spc      1 <1>        0.000
     63 H          11.4463    2.8948    0.9855 H.spc      1 <1>        0.000
     64 H          11.3324    3.4990    3.7995 H.spc      1 <1>        0.000
     65 H          12.7238    4.2223    2.8240 H.spc      1 <1>        0.000
@<TRIPOS>BOND
     1   26   27 am 
     2   26   31 2  
     3   27   28 1  
     4   28   29 1  
     5   29   30 2  
     6   12   13 1  
     7   11   12 1  
     8   10   32 2  
     9   10   11 am 
    10    7    8 1  
    11    6    7 1  
    12    5   10 1  
    13    5    6 1  
    14    4    5 1  
    15    4    8 1  
    16    3   33 2  
    17    3    4 am 
    18    1   29 am 
    19    2    3 1  
    20    1    2 1  
    21   15   16 1  
    22   13   14 1  
    23   14   15 1  
    24   16    9 am 
    25    9   19 1  
    26   16   18 2  
    27   19   20 1  
    28   20   17 2  
    29   20   21 am 
    30   21   22 1  
    31   21   25 1  
    32   22   23 1  
    33   22   26 1  
    34   23   24 1  
    35   24   25 1  
    36    1   34 1  
    37    2   35 1  
    38    2   36 1  
    39    5   37 1  
    40    6   38 1  
    41    6   39 1  
    42    7   40 1  
    43    7   41 1  
    44    8   42 1  
    45    8   43 1  
    46    9   44 1  
    47   11   45 1  
    48   12   46 1  
    49   12   47 1  
    50   13   48 1  
    51   13   49 1  
    52   14   50 1  
    53   14   51 1  
    54   15   52 1  
    55   15   53 1  
    56   19   54 1  
    57   19   55 1  
    58   22   56 1  
    59   23   57 1  
    60   23   58 1  
    61   24   59 1  
    62   24   60 1  
    63   25   61 1  
    64   25   62 1  
    65   27   63 1  
    66   28   64 1  
    67   28   65 1  
# Name:          frag5-609-33/41815 -- energy: -13.444512
# Creation time: Sat Jun  5 12:52:58 2010


@<TRIPOS>MOLECULE
frag5-609-33/41815 -- energy: -13.444512
   65    67     1     1     1
SMALL
USER_CHARGES


@<TRIPOS>ATOM
      1 N1         13.6582    1.5586   -0.2248 N.am       1 <1>        0.000
      2 C1         13.5171    0.4391    0.6679 C.3        1 <1>        0.000
      3 C2         12.3116   -0.4614    0.3426 C.2        1 <1>        0.000
      4 N2         12.1005   -1.5918    1.0789 N.am       1 <1>        0.000
      5 C3         10.9617   -2.4960    0.9171 C.3        1 <1>        0.000
      6 C4         11.3333   -3.8195    1.5375 C.3        1 <1>        0.000
      7 C5         12.2894   -3.4312    2.6283 C.3        1 <1>        0.000
      8 C6         12.9268   -2.1682    2.1133 C.3        1 <1>        0.000
      9 N5          5.6466    2.6109    1.4850 N.am       1 <1>        0.000
     10 C7          9.6893   -1.8369    1.5264 C.2        1 <1>        0.000
     11 N4          8.4819   -2.4726    1.3927 N.am       1 <1>        0.000
     12 C8          7.2099   -1.7979    1.2594 C.3        1 <1>        0.000
     13 C9          6.7800   -1.5708   -0.1748 C.3        1 <1>        0.000
     14 C10         5.7576   -0.5635   -0.6475 C.3        1 <1>        0.000
     15 C11         5.9086    0.9037   -0.3163 C.3        1 <1>        0.000
     16 C12         5.3189    1.3764    1.0086 C.2        1 <1>        0.000
     17 O5          5.9757    5.0504    2.7518 O.2        1 <1>        0.000
     18 O7          4.5365    0.6495    1.6141 O.2        1 <1>        0.000
     19 C13         6.4832    3.6366    0.9024 C.3        1 <1>        0.000
     20 C14         6.7834    4.8095    1.8390 C.2        1 <1>        0.000
     21 N6          7.8804    5.5885    1.6390 N.am       1 <1>        0.000
     22 C15         8.9484    5.4305    0.6489 C.3        1 <1>        0.000
     23 C16         9.6707    6.7478    0.5313 C.3        1 <1>        0.000
     24 C17         9.5453    7.3210    1.9130 C.3        1 <1>        0.000
     25 C18         8.2482    6.7458    2.4263 C.3        1 <1>        0.000
     26 C19         9.8867    4.2952    1.1389 C.2        1 <1>        0.000
     27 N7         11.0561    4.0472    0.4852 N.am       1 <1>        0.000
     28 C20        12.0101    3.0572    0.9086 C.3        1 <1>        0.000
     29 C21        13.0127    2.7475   -0.1919 C.2        1 <1>        0.000
     30 O2         13.2544    3.6025   -1.0444 O.2        1 <1>        0.000
     31 O4          9.5772    3.6180    2.1142 O.2        1 <1>        0.000
     32 O10         9.7650   -0.7514    2.0978 O.2        1 <1>        0.000
     33 O11        11.5536   -0.1476   -0.5719 O.2        1 <1>        0.000
     34 H          14.3326    1.4408   -0.9809 H.spc      1 <1>        0.000
     35 H          14.4155   -0.1706    0.5716 H.spc      1 <1>        0.000
     36 H          13.3653    0.8382    1.6708 H.spc      1 <1>        0.000
     37 H          10.7237   -2.6837   -0.1299 H.spc      1 <1>        0.000
     38 H          10.4677   -4.3659    1.9121 H.spc      1 <1>        0.000
     39 H          11.7734   -4.5115    0.8195 H.spc      1 <1>        0.000
     40 H          11.7895   -3.2836    3.5856 H.spc      1 <1>        0.000
     41 H          13.0219   -4.2113    2.8357 H.spc      1 <1>        0.000
     42 H          13.9092   -2.4012    1.7026 H.spc      1 <1>        0.000
     43 H          13.0296   -1.4560    2.9320 H.spc      1 <1>        0.000
     44 H           5.2398    2.8471    2.3901 H.spc      1 <1>        0.000
     45 H           8.4808   -3.4926    1.3869 H.spc      1 <1>        0.000
     46 H           6.4568   -2.4330    1.7258 H.spc      1 <1>        0.000
     47 H           7.3136   -0.8177    1.7248 H.spc      1 <1>        0.000
     48 H           6.2920   -2.5154   -0.4150 H.spc      1 <1>        0.000
     49 H           7.6960   -1.1893   -0.6259 H.spc      1 <1>        0.000
     50 H           4.8389   -0.8581   -0.1403 H.spc      1 <1>        0.000
     51 H           5.8300   -0.6002   -1.7345 H.spc      1 <1>        0.000
     52 H           6.9812    1.0852   -0.2472 H.spc      1 <1>        0.000
     53 H           5.3663    1.4424   -1.0934 H.spc      1 <1>        0.000
     54 H           5.9461    4.0402    0.0440 H.spc      1 <1>        0.000
     55 H           7.4371    3.1709    0.6547 H.spc      1 <1>        0.000
     56 H           8.5661    5.1604   -0.3355 H.spc      1 <1>        0.000
     57 H           9.2484    7.3959   -0.2366 H.spc      1 <1>        0.000
     58 H          10.7066    6.6363    0.2109 H.spc      1 <1>        0.000
     59 H           9.5434    8.4110    1.9110 H.spc      1 <1>        0.000
     60 H          10.3931    7.0627    2.5475 H.spc      1 <1>        0.000
     61 H           8.3724    6.4489    3.4677 H.spc      1 <1>        0.000
     62 H           7.4640    7.4989    2.3487 H.spc      1 <1>        0.000
     63 H          11.2667    4.5934   -0.3501 H.spc      1 <1>        0.000
     64 H          11.4727    2.1415    1.1553 H.spc      1 <1>        0.000
     65 H          12.5516    3.4447    1.7715 H.spc      1 <1>        0.000
@<TRIPOS>BOND
     1   26   27 am 
     2   26   31 2  
     3   27   28 1  
     4   28   29 1  
     5   29   30 2  
     6   12   13 1  
     7   11   12 1  
     8   10   32 2  
     9   10   11 am 
    10    7    8 1  
    11    6    7 1  
    12    5   10 1  
    13    5    6 1  
    14    4    5 1  
    15    4    8 1  
    16    3   33 2  
    17    3    4 am 
    18    1   29 am 
    19    2    3 1  
    20    1    2 1  
    21   15   16 1  
    22   13   14 1  
    23   14   15 1  
    24   16    9 am 
    25    9   19 1  
    26   16   18 2  
    27   19   20 1  
    28   20   17 2  
    29   20   21 am 
    30   21   22 1  
    31   21   25 1  
    32   22   23 1  
    33   22   26 1  
    34   23   24 1  
    35   24   25 1  
    36    1   34 1  
    37    2   35 1  
    38    2   36 1  
    39    5   37 1  
    40    6   38 1  
    41    6   39 1  
    42    7   40 1  
    43    7   41 1  
    44    8   42 1  
    45    8   43 1  
    46    9   44 1  
    47   11   45 1  
    48   12   46 1  
    49   12   47 1  
    50   13   48 1  
    51   13   49 1  
    52   14   50 1  
    53   14   51 1  
    54   15   52 1  
    55   15   53 1  
    56   19   54 1  
    57   19   55 1  
    58   22   56 1  
    59   23   57 1  
    60   23   58 1  
    61   24   59 1  
    62   24   60 1  
    63   25   61 1  
    64   25   62 1  
    65   27   63 1  
    66   28   64 1  
    67   28   65 1  
# Name:          frag5-609-33/41815 -- energy: -13.169658
# Creation time: Sat Jun  5 12:52:58 2010


@<TRIPOS>MOLECULE
frag5-609-33/41815 -- energy: -13.169658
   65    67     1     1     1
SMALL
USER_CHARGES


@<TRIPOS>ATOM
      1 N1         12.8058    1.6459   -0.6409 N.am       1 <1>        0.000
      2 C1         12.8378    0.7298    0.4650 C.3        1 <1>        0.000
      3 C2         11.9777   -0.5155    0.2342 C.2        1 <1>        0.000
      4 N2         11.9204   -1.4773    1.1909 N.am       1 <1>        0.000
      5 C3         10.9797   -2.5901    1.1921 C.3        1 <1>        0.000
      6 C4         11.4653   -3.6201    2.1809 C.3        1 <1>        0.000
      7 C5         12.2998   -2.8317    3.1490 C.3        1 <1>        0.000
      8 C6         12.7315   -1.6211    2.3746 C.3        1 <1>        0.000
      9 N5          5.7253    2.9219    0.3647 N.am       1 <1>        0.000
     10 C7          9.5642   -2.0526    1.5205 C.2        1 <1>        0.000
     11 N4          8.5003   -2.9090    1.4564 N.am       1 <1>        0.000
     12 C8          7.1320   -2.4843    1.3941 C.3        1 <1>        0.000
     13 C9          6.6398   -1.9836    0.0578 C.3        1 <1>        0.000
     14 C10         5.6575   -0.8478    0.0060 C.3        1 <1>        0.000
     15 C11         6.1249    0.4733    0.5565 C.3        1 <1>        0.000
     16 C12         5.2375    1.6636    0.3215 C.2        1 <1>        0.000
     17 O5          6.2917    4.2548    2.7022 O.2        1 <1>        0.000
     18 O7          4.0357    1.4956    0.0956 O.2        1 <1>        0.000
     19 C13         7.0683    3.4049    0.6003 C.3        1 <1>        0.000
     20 C14         7.1544    4.3401    1.8164 C.2        1 <1>        0.000
     21 N6          8.1468    5.2669    1.9181 N.am       1 <1>        0.000
     22 C15         9.2576    5.5646    1.0154 C.3        1 <1>        0.000
     23 C16         9.6752    6.9921    1.2632 C.3        1 <1>        0.000
     24 C17         9.3101    7.2387    2.6983 C.3        1 <1>        0.000
     25 C18         8.2520    6.2183    3.0012 C.3        1 <1>        0.000
     26 C19        10.4303    4.5781    1.2262 C.2        1 <1>        0.000
     27 N7         11.5837    4.7378    0.5197 N.am       1 <1>        0.000
     28 C20        12.7349    3.8683    0.5624 C.3        1 <1>        0.000
     29 C21        12.7563    2.9886   -0.6773 C.2        1 <1>        0.000
     30 O2         12.7260    3.5293   -1.7904 O.2        1 <1>        0.000
     31 O4         10.3109    3.6400    2.0181 O.2        1 <1>        0.000
     32 O10         9.3979   -0.8670    1.8280 O.2        1 <1>        0.000
     33 O11        11.3476   -0.6255   -0.8244 O.2        1 <1>        0.000
     34 H          12.8238    1.1999   -1.5581 H.spc      1 <1>        0.000
     35 H          13.8691    0.4019    0.5952 H.spc      1 <1>        0.000
     36 H          12.4431    1.2491    1.3383 H.spc      1 <1>        0.000
     37 H          10.9190   -3.0716    0.2161 H.spc      1 <1>        0.000
     38 H          10.6430   -4.1396    2.6729 H.spc      1 <1>        0.000
     39 H          12.0329   -4.4173    1.7009 H.spc      1 <1>        0.000
     40 H          11.7415   -2.5648    4.0463 H.spc      1 <1>        0.000
     41 H          13.1502   -3.4058    3.5169 H.spc      1 <1>        0.000
     42 H          13.7752   -1.7360    2.0822 H.spc      1 <1>        0.000
     43 H          12.6144   -0.7355    2.9992 H.spc      1 <1>        0.000
     44 H           5.0321    3.6528    0.2047 H.spc      1 <1>        0.000
     45 H           8.6915   -3.9109    1.4527 H.spc      1 <1>        0.000
     46 H           6.5327   -3.3651    1.6248 H.spc      1 <1>        0.000
     47 H           7.0467   -1.6423    2.0810 H.spc      1 <1>        0.000
     48 H           6.1054   -2.8299   -0.3738 H.spc      1 <1>        0.000
     49 H           7.5314   -1.5997   -0.4380 H.spc      1 <1>        0.000
     50 H           4.8140   -1.1509    0.6263 H.spc      1 <1>        0.000
     51 H           5.4500   -0.6772   -1.0504 H.spc      1 <1>        0.000
     52 H           6.1706    0.3454    1.6380 H.spc      1 <1>        0.000
     53 H           7.0611    0.6945    0.0439 H.spc      1 <1>        0.000
     54 H           7.3816    3.9679   -0.2789 H.spc      1 <1>        0.000
     55 H           7.7059    2.5424    0.7943 H.spc      1 <1>        0.000
     56 H           8.9464    5.4455   -0.0224 H.spc      1 <1>        0.000
     57 H           9.1797    7.6889    0.5871 H.spc      1 <1>        0.000
     58 H          10.7377    7.1482    1.0764 H.spc      1 <1>        0.000
     59 H           8.9527    8.2559    2.8586 H.spc      1 <1>        0.000
     60 H          10.1708    7.1416    3.3600 H.spc      1 <1>        0.000
     61 H           8.5203    5.6884    3.9151 H.spc      1 <1>        0.000
     62 H           7.2946    6.7246    3.1240 H.spc      1 <1>        0.000
     63 H          11.6391    5.5480   -0.0975 H.spc      1 <1>        0.000
     64 H          12.6812    3.2399    1.4514 H.spc      1 <1>        0.000
     65 H          13.6427    4.4708    0.5945 H.spc      1 <1>        0.000
@<TRIPOS>BOND
     1   26   27 am 
     2   26   31 2  
     3   27   28 1  
     4   28   29 1  
     5   29   30 2  
     6   12   13 1  
     7   11   12 1  
     8   10   32 2  
     9   10   11 am 
    10    7    8 1  
    11    6    7 1  
    12    5   10 1  
    13    5    6 1  
    14    4    5 1  
    15    4    8 1  
    16    3   33 2  
    17    3    4 am 
    18    1   29 am 
    19    2    3 1  
    20    1    2 1  
    21   15   16 1  
    22   13   14 1  
    23   14   15 1  
    24   16    9 am 
    25    9   19 1  
    26   16   18 2  
    27   19   20 1  
    28   20   17 2  
    29   20   21 am 
    30   21   22 1  
    31   21   25 1  
    32   22   23 1  
    33   22   26 1  
    34   23   24 1  
    35   24   25 1  
    36    1   34 1  
    37    2   35 1  
    38    2   36 1  
    39    5   37 1  
    40    6   38 1  
    41    6   39 1  
    42    7   40 1  
    43    7   41 1  
    44    8   42 1  
    45    8   43 1  
    46    9   44 1  
    47   11   45 1  
    48   12   46 1  
    49   12   47 1  
    50   13   48 1  
    51   13   49 1  
    52   14   50 1  
    53   14   51 1  
    54   15   52 1  
    55   15   53 1  
    56   19   54 1  
    57   19   55 1  
    58   22   56 1  
    59   23   57 1  
    60   23   58 1  
    61   24   59 1  
    62   24   60 1  
    63   25   61 1  
    64   25   62 1  
    65   27   63 1  
    66   28   64 1  
    67   28   65 1  
# Name:          frag5-609-33/41815 -- energy: -13.750027
# Creation time: Sat Jun  5 12:52:58 2010


@<TRIPOS>MOLECULE
frag5-609-33/41815 -- energy: -13.750027
   65    67     1     1     1
SMALL
USER_CHARGES


@<TRIPOS>ATOM
      1 N1         13.8460    1.6498    0.7609 N.am       1 <1>        0.000
      2 C1         13.3813    0.3827    1.2659 C.3        1 <1>        0.000
      3 C2         12.4327   -0.4270    0.3733 C.2        1 <1>        0.000
      4 N2         12.1053   -1.6946    0.7528 N.am       1 <1>        0.000
      5 C3         11.1058   -2.5447    0.1156 C.3        1 <1>        0.000
      6 C4         11.3173   -3.9492    0.6356 C.3        1 <1>        0.000
      7 C5         11.7731   -3.6986    2.0482 C.3        1 <1>        0.000
      8 C6         12.5263   -2.4027    1.9408 C.3        1 <1>        0.000
      9 N5          5.4576    2.6520    0.7853 N.am       1 <1>        0.000
     10 C7          9.7329   -2.0339    0.5846 C.2        1 <1>        0.000
     11 N4          8.5777   -2.6268    0.1718 N.am       1 <1>        0.000
     12 C8          7.3599   -2.4152    0.8888 C.3        1 <1>        0.000
     13 C9          6.5377   -1.1740    0.6940 C.3        1 <1>        0.000
     14 C10         5.6592   -0.8035    1.8618 C.3        1 <1>        0.000
     15 C11         4.9295    0.5078    1.8835 C.3        1 <1>        0.000
     16 C12         5.8360    1.6674    1.6495 C.2        1 <1>        0.000
     17 O5          5.6076    5.2296    1.8798 O.2        1 <1>        0.000
     18 O7          6.9294    1.7136    2.2307 O.2        1 <1>        0.000
     19 C13         6.3995    3.6214    0.2991 C.3        1 <1>        0.000
     20 C14         6.5535    4.8726    1.1623 C.2        1 <1>        0.000
     21 N6          7.6924    5.6131    1.0885 N.am       1 <1>        0.000
     22 C15         8.8999    5.3701    0.2993 C.3        1 <1>        0.000
     23 C16         9.6018    6.6926    0.1594 C.3        1 <1>        0.000
     24 C17         9.3165    7.3412    1.4854 C.3        1 <1>        0.000
     25 C18         7.9623    6.8025    1.8580 C.3        1 <1>        0.000
     26 C19         9.7719    4.3398    1.0524 C.2        1 <1>        0.000
     27 N7         11.0065    3.9930    0.6131 N.am       1 <1>        0.000
     28 C20        11.7690    2.9613    1.2582 C.3        1 <1>        0.000
     29 C21        13.2029    2.8451    0.7682 C.2        1 <1>        0.000
     30 O2         13.8015    3.8581    0.3883 O.2        1 <1>        0.000
     31 O4          9.3341    3.8174    2.0825 O.2        1 <1>        0.000
     32 O10         9.6855   -1.1136    1.4119 O.2        1 <1>        0.000
     33 O11        11.9660    0.0798   -0.6529 O.2        1 <1>        0.000
     34 H          14.7772    1.6483    0.3448 H.spc      1 <1>        0.000
     35 H          14.2733   -0.2329    1.3823 H.spc      1 <1>        0.000
     36 H          12.8120    0.6153    2.1658 H.spc      1 <1>        0.000
     37 H          11.1735   -2.5310   -0.9722 H.spc      1 <1>        0.000
     38 H          10.4230   -4.5695    0.5756 H.spc      1 <1>        0.000
     39 H          12.0339   -4.5225    0.0475 H.spc      1 <1>        0.000
     40 H          10.9445   -3.6462    2.7545 H.spc      1 <1>        0.000
     41 H          12.3854   -4.5095    2.4427 H.spc      1 <1>        0.000
     42 H          13.5950   -2.6087    1.8803 H.spc      1 <1>        0.000
     43 H          12.3214   -1.7906    2.8192 H.spc      1 <1>        0.000
     44 H           4.4862    2.7011    0.4780 H.spc      1 <1>        0.000
     45 H           8.5822   -3.2254   -0.6541 H.spc      1 <1>        0.000
     46 H           6.7090   -3.2155    0.5366 H.spc      1 <1>        0.000
     47 H           7.6787   -2.3546    1.9294 H.spc      1 <1>        0.000
     48 H           5.8755   -1.3640   -0.1507 H.spc      1 <1>        0.000
     49 H           7.2382   -0.3509    0.5530 H.spc      1 <1>        0.000
     50 H           6.3473   -0.7406    2.7048 H.spc      1 <1>        0.000
     51 H           4.8659   -1.5508    1.8474 H.spc      1 <1>        0.000
     52 H           4.1875    0.4937    1.0851 H.spc      1 <1>        0.000
     53 H           4.4785    0.6261    2.8688 H.spc      1 <1>        0.000
     54 H           6.0312    3.9550   -0.6710 H.spc      1 <1>        0.000
     55 H           7.3727    3.1307    0.2844 H.spc      1 <1>        0.000
     56 H           8.6821    4.9684   -0.6903 H.spc      1 <1>        0.000
     57 H           9.2527    7.2782   -0.6911 H.spc      1 <1>        0.000
     58 H          10.6665    6.5954   -0.0529 H.spc      1 <1>        0.000
     59 H           9.3313    8.4296    1.4290 H.spc      1 <1>        0.000
     60 H          10.0761    7.1133    2.2331 H.spc      1 <1>        0.000
     61 H           7.9464    6.5602    2.9206 H.spc      1 <1>        0.000
     62 H           7.2009    7.5534    1.6470 H.spc      1 <1>        0.000
     63 H          11.4026    4.4756   -0.1935 H.spc      1 <1>        0.000
     64 H          11.2770    2.0137    1.0387 H.spc      1 <1>        0.000
     65 H          11.8113    3.2091    2.3188 H.spc      1 <1>        0.000
@<TRIPOS>BOND
     1   26   27 am 
     2   26   31 2  
     3   27   28 1  
     4   28   29 1  
     5   29   30 2  
     6   12   13 1  
     7   11   12 1  
     8   10   32 2  
     9   10   11 am 
    10    7    8 1  
    11    6    7 1  
    12    5   10 1  
    13    5    6 1  
    14    4    5 1  
    15    4    8 1  
    16    3   33 2  
    17    3    4 am 
    18    1   29 am 
    19    2    3 1  
    20    1    2 1  
    21   15   16 1  
    22   13   14 1  
    23   14   15 1  
    24   16    9 am 
    25    9   19 1  
    26   16   18 2  
    27   19   20 1  
    28   20   17 2  
    29   20   21 am 
    30   21   22 1  
    31   21   25 1  
    32   22   23 1  
    33   22   26 1  
    34   23   24 1  
    35   24   25 1  
    36    1   34 1  
    37    2   35 1  
    38    2   36 1  
    39    5   37 1  
    40    6   38 1  
    41    6   39 1  
    42    7   40 1  
    43    7   41 1  
    44    8   42 1  
    45    8   43 1  
    46    9   44 1  
    47   11   45 1  
    48   12   46 1  
    49   12   47 1  
    50   13   48 1  
    51   13   49 1  
    52   14   50 1  
    53   14   51 1  
    54   15   52 1  
    55   15   53 1  
    56   19   54 1  
    57   19   55 1  
    58   22   56 1  
    59   23   57 1  
    60   23   58 1  
    61   24   59 1  
    62   24   60 1  
    63   25   61 1  
    64   25   62 1  
    65   27   63 1  
    66   28   64 1  
    67   28   65 1  
# Name:          frag5-609-33/41815 -- energy: -14.969422
# Creation time: Sat Jun  5 12:52:58 2010


@<TRIPOS>MOLECULE
frag5-609-33/41815 -- energy: -14.969422
   65    67     1     1     1
SMALL
USER_CHARGES


@<TRIPOS>ATOM
      1 N1         13.4991    1.4589   -0.1399 N.am       1 <1>        0.000
      2 C1         13.3101    0.6371    1.0461 C.3        1 <1>        0.000
      3 C2         12.0435   -0.2155    0.8824 C.2        1 <1>        0.000
      4 N2         11.9588   -1.5094    1.2812 N.am       1 <1>        0.000
      5 C3         10.7857   -2.3358    1.0167 C.3        1 <1>        0.000
      6 C4         11.2094   -3.7792    1.0246 C.3        1 <1>        0.000
      7 C5         12.3246   -3.7757    2.0331 C.3        1 <1>        0.000
      8 C6         12.9211   -2.3943    1.9035 C.3        1 <1>        0.000
      9 N5          5.6944    2.9277    1.3171 N.am       1 <1>        0.000
     10 C7          9.6894   -2.1426    2.0955 C.2        1 <1>        0.000
     11 N4          8.3771   -2.3514    1.8155 N.am       1 <1>        0.000
     12 C8          7.7665   -2.3623    0.5214 C.3        1 <1>        0.000
     13 C9          7.6874   -1.0514   -0.2153 C.3        1 <1>        0.000
     14 C10         6.6345   -0.0709    0.2264 C.3        1 <1>        0.000
     15 C11         6.7560    1.3364   -0.2835 C.3        1 <1>        0.000
     16 C12         5.6440    2.2463    0.1574 C.2        1 <1>        0.000
     17 O5          6.4608    4.8906    3.7254 O.2        1 <1>        0.000
     18 O7          4.6479    2.3486   -0.5632 O.2        1 <1>        0.000
     19 C13         6.7201    3.0098    2.3272 C.3        1 <1>        0.000
     20 C14         6.9911    4.4635    2.6879 C.2        1 <1>        0.000
     21 N6          7.7489    5.2772    1.9074 N.am       1 <1>        0.000
     22 C15         8.4151    5.0147    0.6206 C.3        1 <1>        0.000
     23 C16         8.7189    6.3588    0.0000 C.3        1 <1>        0.000
     24 C17         8.9608    7.2431    1.1947 C.3        1 <1>        0.000
     25 C18         8.1335    6.6184    2.2848 C.3        1 <1>        0.000
     26 C19         9.6935    4.1952    0.9361 C.2        1 <1>        0.000
     27 N7         10.6394    3.8602    0.0098 N.am       1 <1>        0.000
     28 C20        11.9038    3.3159    0.4509 C.3        1 <1>        0.000
     29 C21        12.8219    2.5795   -0.5199 C.2        1 <1>        0.000
     30 O2         12.9775    3.0336   -1.6592 O.2        1 <1>        0.000
     31 O4          9.8726    3.8359    2.1079 O.2        1 <1>        0.000
     32 O10        10.0081   -1.8551    3.2564 O.2        1 <1>        0.000
     33 O11        11.0633    0.3194    0.3476 O.2        1 <1>        0.000
     34 H          14.2389    1.1552   -0.7731 H.spc      1 <1>        0.000
     35 H          14.1730   -0.0159    1.1766 H.spc      1 <1>        0.000
     36 H          13.2047    1.2798    1.9201 H.spc      1 <1>        0.000
     37 H          10.3720   -2.0422    0.0519 H.spc      1 <1>        0.000
     38 H          10.4005   -4.4639    1.2797 H.spc      1 <1>        0.000
     39 H          11.5168   -4.1429    0.0441 H.spc      1 <1>        0.000
     40 H          11.9719   -3.9829    3.0434 H.spc      1 <1>        0.000
     41 H          13.0553   -4.5629    1.8474 H.spc      1 <1>        0.000
     42 H          13.8202   -2.4430    1.2892 H.spc      1 <1>        0.000
     43 H          13.1770   -2.0148    2.8927 H.spc      1 <1>        0.000
     44 H           4.8620    3.4827    1.5160 H.spc      1 <1>        0.000
     45 H           7.7617   -2.5181    2.6117 H.spc      1 <1>        0.000
     46 H           8.3909   -3.0098   -0.0942 H.spc      1 <1>        0.000
     47 H           6.7343   -2.6721    0.6846 H.spc      1 <1>        0.000
     48 H           7.4376   -1.3073   -1.2450 H.spc      1 <1>        0.000
     49 H           8.6425   -0.5567   -0.0388 H.spc      1 <1>        0.000
     50 H           6.7269   -0.0035    1.3104 H.spc      1 <1>        0.000
     51 H           5.6914   -0.4496   -0.1676 H.spc      1 <1>        0.000
     52 H           7.6846    1.7450    0.1151 H.spc      1 <1>        0.000
     53 H           6.7221    1.2893   -1.3720 H.spc      1 <1>        0.000
     54 H           7.6360    2.5621    1.9415 H.spc      1 <1>        0.000
     55 H           6.3855    2.4785    3.2182 H.spc      1 <1>        0.000
     56 H           7.8095    4.4447   -0.0840 H.spc      1 <1>        0.000
     57 H           7.9101    6.7213   -0.6344 H.spc      1 <1>        0.000
     58 H           9.5718    6.3256   -0.6779 H.spc      1 <1>        0.000
     59 H           8.6794    8.2790    1.0052 H.spc      1 <1>        0.000
     60 H          10.0167    7.2999    1.4591 H.spc      1 <1>        0.000
     61 H           8.7210    6.5780    3.2020 H.spc      1 <1>        0.000
     62 H           7.2366    7.2175    2.4420 H.spc      1 <1>        0.000
     63 H          10.4553    3.9929   -0.9846 H.spc      1 <1>        0.000
     64 H          11.6248    2.5554    1.1802 H.spc      1 <1>        0.000
     65 H          12.4803    4.1921    0.7478 H.spc      1 <1>        0.000
@<TRIPOS>BOND
     1   26   27 am 
     2   26   31 2  
     3   27   28 1  
     4   28   29 1  
     5   29   30 2  
     6   12   13 1  
     7   11   12 1  
     8   10   32 2  
     9   10   11 am 
    10    7    8 1  
    11    6    7 1  
    12    5   10 1  
    13    5    6 1  
    14    4    5 1  
    15    4    8 1  
    16    3   33 2  
    17    3    4 am 
    18    1   29 am 
    19    2    3 1  
    20    1    2 1  
    21   15   16 1  
    22   13   14 1  
    23   14   15 1  
    24   16    9 am 
    25    9   19 1  
    26   16   18 2  
    27   19   20 1  
    28   20   17 2  
    29   20   21 am 
    30   21   22 1  
    31   21   25 1  
    32   22   23 1  
    33   22   26 1  
    34   23   24 1  
    35   24   25 1  
    36    1   34 1  
    37    2   35 1  
    38    2   36 1  
    39    5   37 1  
    40    6   38 1  
    41    6   39 1  
    42    7   40 1  
    43    7   41 1  
    44    8   42 1  
    45    8   43 1  
    46    9   44 1  
    47   11   45 1  
    48   12   46 1  
    49   12   47 1  
    50   13   48 1  
    51   13   49 1  
    52   14   50 1  
    53   14   51 1  
    54   15   52 1  
    55   15   53 1  
    56   19   54 1  
    57   19   55 1  
    58   22   56 1  
    59   23   57 1  
    60   23   58 1  
    61   24   59 1  
    62   24   60 1  
    63   25   61 1  
    64   25   62 1  
    65   27   63 1  
    66   28   64 1  
    67   28   65 1  
# Name:          frag5-609-33/41815 -- energy: -15.607370
# Creation time: Sat Jun  5 12:52:58 2010


@<TRIPOS>MOLECULE
frag5-609-33/41815 -- energy: -15.607370
   65    67     1     1     1
SMALL
USER_CHARGES


@<TRIPOS>ATOM
      1 N1         13.4472    2.3267    1.2700 N.am       1 <1>        0.000
      2 C1         13.2119    0.8977    1.3350 C.3        1 <1>        0.000
      3 C2         11.9676    0.3687    0.6085 C.2        1 <1>        0.000
      4 N2         11.8211   -0.9510    0.3320 N.am       1 <1>        0.000
      5 C3         10.6386   -1.5384   -0.2959 C.3        1 <1>        0.000
      6 C4         11.0252   -2.8669   -0.9078 C.3        1 <1>        0.000
      7 C5         12.4457   -3.1124   -0.4727 C.3        1 <1>        0.000
      8 C6         12.7327   -2.0456    0.5422 C.3        1 <1>        0.000
      9 N5          5.5033    2.5032    1.5094 N.am       1 <1>        0.000
     10 C7          9.4849   -1.6577    0.7343 C.2        1 <1>        0.000
     11 N4          8.2688   -2.1105    0.3077 N.am       1 <1>        0.000
     12 C8          7.0430   -2.1306    1.0578 C.3        1 <1>        0.000
     13 C9          6.3541   -0.8412    1.4419 C.3        1 <1>        0.000
     14 C10         6.6903   -0.1903    2.7697 C.3        1 <1>        0.000
     15 C11         5.7245    0.8276    3.3309 C.3        1 <1>        0.000
     16 C12         4.9138    1.6332    2.3498 C.2        1 <1>        0.000
     17 O5          6.2163    4.1511   -0.4815 O.2        1 <1>        0.000
     18 O7          3.6923    1.4726    2.3135 O.2        1 <1>        0.000
     19 C13         6.8939    2.8703    1.4029 C.3        1 <1>        0.000
     20 C14         7.1740    3.8040    0.2250 C.2        1 <1>        0.000
     21 N6          8.4385    4.2146   -0.0250 N.am       1 <1>        0.000
     22 C15         9.7005    3.8409    0.6510 C.3        1 <1>        0.000
     23 C16        10.8317    4.1907   -0.2970 C.3        1 <1>        0.000
     24 C17        10.2828    5.3161   -1.1249 C.3        1 <1>        0.000
     25 C18         8.8035    5.0633   -1.1355 C.3        1 <1>        0.000
     26 C19         9.8534    4.5533    2.0199 C.2        1 <1>        0.000
     27 N7         10.8367    4.2730    2.9067 N.am       1 <1>        0.000
     28 C20        11.8136    3.2049    2.9943 C.3        1 <1>        0.000
     29 C21        12.9709    3.3531    2.0103 C.2        1 <1>        0.000
     30 O2         13.5024    4.4620    1.8716 O.2        1 <1>        0.000
     31 O4          9.0400    5.4255    2.3487 O.2        1 <1>        0.000
     32 O10         9.6730   -1.3484    1.9156 O.2        1 <1>        0.000
     33 O11        11.0825    1.1677    0.2882 O.2        1 <1>        0.000
     34 H          14.0898    2.6098    0.5302 H.spc      1 <1>        0.000
     35 H          14.0662    0.4307    0.8450 H.spc      1 <1>        0.000
     36 H          13.0643    0.6659    2.3898 H.spc      1 <1>        0.000
     37 H          10.2668   -0.8969   -1.0949 H.spc      1 <1>        0.000
     38 H          10.3625   -3.6667   -0.5773 H.spc      1 <1>        0.000
     39 H          10.9382   -2.8466   -1.9941 H.spc      1 <1>        0.000
     40 H          12.5726   -4.1111   -0.0549 H.spc      1 <1>        0.000
     41 H          13.1385   -3.0665   -1.3130 H.spc      1 <1>        0.000
     42 H          13.7600   -1.6979    0.4334 H.spc      1 <1>        0.000
     43 H          12.6040   -2.4468    1.5475 H.spc      1 <1>        0.000
     44 H           4.8768    2.9700    0.8537 H.spc      1 <1>        0.000
     45 H           8.2261   -2.4730   -0.6448 H.spc      1 <1>        0.000
     46 H           6.3327   -2.6264    0.3961 H.spc      1 <1>        0.000
     47 H           7.3204   -2.5799    2.0114 H.spc      1 <1>        0.000
     48 H           5.2981   -1.1005    1.5175 H.spc      1 <1>        0.000
     49 H           6.6717   -0.1199    0.6889 H.spc      1 <1>        0.000
     50 H           7.6161    0.3578    2.5949 H.spc      1 <1>        0.000
     51 H           6.7027   -1.0047    3.4941 H.spc      1 <1>        0.000
     52 H           4.9996    0.2556    3.9101 H.spc      1 <1>        0.000
     53 H           6.3395    1.5508    3.8665 H.spc      1 <1>        0.000
     54 H           7.4685    1.9571    1.2479 H.spc      1 <1>        0.000
     55 H           7.1707    3.3953    2.3171 H.spc      1 <1>        0.000
     56 H           9.7102    2.7745    0.8763 H.spc      1 <1>        0.000
     57 H          11.1346    3.3402   -0.9078 H.spc      1 <1>        0.000
     58 H          11.7402    4.4753    0.2337 H.spc      1 <1>        0.000
     59 H          10.7074    5.3388   -2.1285 H.spc      1 <1>        0.000
     60 H          10.5340    6.2942   -0.7147 H.spc      1 <1>        0.000
     61 H           8.2770    6.0137   -1.0483 H.spc      1 <1>        0.000
     62 H           8.5310    4.5697   -2.0684 H.spc      1 <1>        0.000
     63 H          10.9042    4.9497    3.6669 H.spc      1 <1>        0.000
     64 H          11.3007    2.2727    2.7576 H.spc      1 <1>        0.000
     65 H          12.2343    3.2284    3.9996 H.spc      1 <1>        0.000
@<TRIPOS>BOND
     1   26   27 am 
     2   26   31 2  
     3   27   28 1  
     4   28   29 1  
     5   29   30 2  
     6   12   13 1  
     7   11   12 1  
     8   10   32 2  
     9   10   11 am 
    10    7    8 1  
    11    6    7 1  
    12    5   10 1  
    13    5    6 1  
    14    4    5 1  
    15    4    8 1  
    16    3   33 2  
    17    3    4 am 
    18    1   29 am 
    19    2    3 1  
    20    1    2 1  
    21   15   16 1  
    22   13   14 1  
    23   14   15 1  
    24   16    9 am 
    25    9   19 1  
    26   16   18 2  
    27   19   20 1  
    28   20   17 2  
    29   20   21 am 
    30   21   22 1  
    31   21   25 1  
    32   22   23 1  
    33   22   26 1  
    34   23   24 1  
    35   24   25 1  
    36    1   34 1  
    37    2   35 1  
    38    2   36 1  
    39    5   37 1  
    40    6   38 1  
    41    6   39 1  
    42    7   40 1  
    43    7   41 1  
    44    8   42 1  
    45    8   43 1  
    46    9   44 1  
    47   11   45 1  
    48   12   46 1  
    49   12   47 1  
    50   13   48 1  
    51   13   49 1  
    52   14   50 1  
    53   14   51 1  
    54   15   52 1  
    55   15   53 1  
    56   19   54 1  
    57   19   55 1  
    58   22   56 1  
    59   23   57 1  
    60   23   58 1  
    61   24   59 1  
    62   24   60 1  
    63   25   61 1  
    64   25   62 1  
    65   27   63 1  
    66   28   64 1  
    67   28   65 1  
# Name:          frag5-609-33/41815 -- energy: -14.851511
# Creation time: Sat Jun  5 12:52:58 2010


@<TRIPOS>MOLECULE
frag5-609-33/41815 -- energy: -14.851511
   65    67     1     1     1
SMALL
USER_CHARGES


@<TRIPOS>ATOM
      1 N1         13.2819    1.3823    0.6875 N.am       1 <1>        0.000
      2 C1         13.4362    0.3455   -0.3028 C.3        1 <1>        0.000
      3 C2         12.2761   -0.6329   -0.2254 C.2        1 <1>        0.000
      4 N2         12.2023   -1.5338    0.7840 N.am       1 <1>        0.000
      5 C3         10.9967   -2.2771    1.1259 C.3        1 <1>        0.000
      6 C4         11.3812   -3.4249    2.0250 C.3        1 <1>        0.000
      7 C5         12.6153   -2.9168    2.7230 C.3        1 <1>        0.000
      8 C6         13.1991   -1.9176    1.7594 C.3        1 <1>        0.000
      9 N5          5.1171    2.9004    1.1572 N.am       1 <1>        0.000
     10 C7         10.0710   -1.2965    1.8793 C.2        1 <1>        0.000
     11 N4          8.7328   -1.2615    1.7382 N.am       1 <1>        0.000
     12 C8          7.8193   -1.9108    0.8432 C.3        1 <1>        0.000
     13 C9          6.5586   -1.1821    0.4503 C.3        1 <1>        0.000
     14 C10         6.7098    0.2602    0.0181 C.3        1 <1>        0.000
     15 C11         5.4901    1.0186   -0.4255 C.3        1 <1>        0.000
     16 C12         4.7398    1.6891    0.6952 C.2        1 <1>        0.000
     17 O5          6.1990    4.5964    2.9513 O.2        1 <1>        0.000
     18 O7          3.7832    1.0999    1.1997 O.2        1 <1>        0.000
     19 C13         6.1749    3.7811    0.7250 C.3        1 <1>        0.000
     20 C14         6.8328    4.5187    1.8882 C.2        1 <1>        0.000
     21 N6          8.0445    5.1215    1.7515 N.am       1 <1>        0.000
     22 C15         8.9190    5.2359    0.5787 C.3        1 <1>        0.000
     23 C16         9.7884    6.4576    0.7886 C.3        1 <1>        0.000
     24 C17         9.9152    6.5605    2.2810 C.3        1 <1>        0.000
     25 C18         8.6755    5.8917    2.8002 C.3        1 <1>        0.000
     26 C19         9.7536    3.9413    0.3499 C.2        1 <1>        0.000
     27 N7         10.8831    4.0123   -0.4162 N.am       1 <1>        0.000
     28 C20        11.8459    2.9629   -0.6474 C.3        1 <1>        0.000
     29 C21        12.6163    2.5597    0.6124 C.2        1 <1>        0.000
     30 O2         12.6817    3.3408    1.5714 O.2        1 <1>        0.000
     31 O4          9.3682    2.8723    0.8206 O.2        1 <1>        0.000
     32 O10        10.5737   -0.5149    2.7009 O.2        1 <1>        0.000
     33 O11        11.3964   -0.5523   -1.0919 O.2        1 <1>        0.000
     34 H          13.7436    1.2019    1.5790 H.spc      1 <1>        0.000
     35 H          13.4542    0.7991   -1.2938 H.spc      1 <1>        0.000
     36 H          14.3670   -0.1900   -0.1159 H.spc      1 <1>        0.000
     37 H          10.4950   -2.6756    0.2440 H.spc      1 <1>        0.000
     38 H          10.5875   -3.6986    2.7202 H.spc      1 <1>        0.000
     39 H          11.5597   -4.3486    1.4746 H.spc      1 <1>        0.000
     40 H          12.3864   -2.4701    3.6906 H.spc      1 <1>        0.000
     41 H          13.3148   -3.7190    2.9581 H.spc      1 <1>        0.000
     42 H          14.0494   -2.3671    1.2466 H.spc      1 <1>        0.000
     43 H          13.5225   -1.0340    2.3097 H.spc      1 <1>        0.000
     44 H           4.5639    3.2499    1.9396 H.spc      1 <1>        0.000
     45 H           8.2724   -0.6445    2.4073 H.spc      1 <1>        0.000
     46 H           8.3744   -2.0420   -0.0856 H.spc      1 <1>        0.000
     47 H           7.4811   -2.7996    1.3758 H.spc      1 <1>        0.000
     48 H           5.9338   -1.1627    1.3433 H.spc      1 <1>        0.000
     49 H           6.1634   -1.7137   -0.4153 H.spc      1 <1>        0.000
     50 H           7.3537    0.2244   -0.8607 H.spc      1 <1>        0.000
     51 H           7.0593    0.7850    0.9072 H.spc      1 <1>        0.000
     52 H           5.8276    1.8038   -1.1020 H.spc      1 <1>        0.000
     53 H           4.8112    0.2981   -0.8817 H.spc      1 <1>        0.000
     54 H           5.7412    4.5252    0.0570 H.spc      1 <1>        0.000
     55 H           6.9380    3.1756    0.2359 H.spc      1 <1>        0.000
     56 H           8.3283    5.3536   -0.3298 H.spc      1 <1>        0.000
     57 H           9.3538    7.3548    0.3479 H.spc      1 <1>        0.000
     58 H          10.7568    6.3652    0.2969 H.spc      1 <1>        0.000
     59 H           9.9978    7.5940    2.6175 H.spc      1 <1>        0.000
     60 H          10.8247    6.0873    2.6511 H.spc      1 <1>        0.000
     61 H           8.9470    5.2242    3.6180 H.spc      1 <1>        0.000
     62 H           7.9795    6.6542    3.1499 H.spc      1 <1>        0.000
     63 H          11.0654    4.9050   -0.8748 H.spc      1 <1>        0.000
     64 H          12.5706    3.3345   -1.3719 H.spc      1 <1>        0.000
     65 H          11.3000    2.0857   -0.9946 H.spc      1 <1>        0.000
@<TRIPOS>BOND
     1   26   27 am 
     2   26   31 2  
     3   27   28 1  
     4   28   29 1  
     5   29   30 2  
     6   12   13 1  
     7   11   12 1  
     8   10   32 2  
     9   10   11 am 
    10    7    8 1  
    11    6    7 1  
    12    5   10 1  
    13    5    6 1  
    14    4    5 1  
    15    4    8 1  
    16    3   33 2  
    17    3    4 am 
    18    1   29 am 
    19    2    3 1  
    20    1    2 1  
    21   15   16 1  
    22   13   14 1  
    23   14   15 1  
    24   16    9 am 
    25    9   19 1  
    26   16   18 2  
    27   19   20 1  
    28   20   17 2  
    29   20   21 am 
    30   21   22 1  
    31   21   25 1  
    32   22   23 1  
    33   22   26 1  
    34   23   24 1  
    35   24   25 1  
    36    1   34 1  
    37    2   35 1  
    38    2   36 1  
    39    5   37 1  
    40    6   38 1  
    41    6   39 1  
    42    7   40 1  
    43    7   41 1  
    44    8   42 1  
    45    8   43 1  
    46    9   44 1  
    47   11   45 1  
    48   12   46 1  
    49   12   47 1  
    50   13   48 1  
    51   13   49 1  
    52   14   50 1  
    53   14   51 1  
    54   15   52 1  
    55   15   53 1  
    56   19   54 1  
    57   19   55 1  
    58   22   56 1  
    59   23   57 1  
    60   23   58 1  
    61   24   59 1  
    62   24   60 1  
    63   25   61 1  
    64   25   62 1  
    65   27   63 1  
    66   28   64 1  
    67   28   65 1  
# Name:          frag5-609-33/41815 -- energy: -12.433612
# Creation time: Sat Jun  5 12:52:58 2010


@<TRIPOS>MOLECULE
frag5-609-33/41815 -- energy: -12.433612
   65    67     1     1     1
SMALL
USER_CHARGES


@<TRIPOS>ATOM
      1 N1         13.1030    1.4732    1.4048 N.am       1 <1>        0.000
      2 C1         13.3971    0.5609    0.3337 C.3        1 <1>        0.000
      3 C2         12.1739   -0.2918    0.0177 C.2        1 <1>        0.000
      4 N2         12.0261   -1.5072    0.6001 N.am       1 <1>        0.000
      5 C3         10.8128   -2.3158    0.5836 C.3        1 <1>        0.000
      6 C4         11.2187   -3.7471    0.8257 C.3        1 <1>        0.000
      7 C5         12.4021   -3.5989    1.7454 C.3        1 <1>        0.000
      8 C6         12.9878   -2.2641    1.3707 C.3        1 <1>        0.000
      9 N5          5.4367    2.7916    1.4774 N.am       1 <1>        0.000
     10 C7          9.8998   -1.8592    1.7436 C.2        1 <1>        0.000
     11 N4          8.5867   -2.1619    1.7912 N.am       1 <1>        0.000
     12 C8          7.6745   -2.5697    0.7715 C.3        1 <1>        0.000
     13 C9          6.9741   -1.4807    0.0042 C.3        1 <1>        0.000
     14 C10         6.3637   -0.3778    0.8386 C.3        1 <1>        0.000
     15 C11         5.5078    0.6646    0.1805 C.3        1 <1>        0.000
     16 C12         4.8639    1.6143    1.1591 C.2        1 <1>        0.000
     17 O5          6.3143    5.0076    2.6969 O.2        1 <1>        0.000
     18 O7          3.8044    1.2719    1.6908 O.2        1 <1>        0.000
     19 C13         6.6542    3.3924    0.9917 C.3        1 <1>        0.000
     20 C14         7.0225    4.6799    1.7327 C.2        1 <1>        0.000
     21 N6          8.0702    5.4578    1.3433 N.am       1 <1>        0.000
     22 C15         8.9620    5.3254    0.1855 C.3        1 <1>        0.000
     23 C16         9.5232    6.7014   -0.1017 C.3        1 <1>        0.000
     24 C17         9.5624    7.3560    1.2479 C.3        1 <1>        0.000
     25 C18         8.4477    6.6892    2.0015 C.3        1 <1>        0.000
     26 C19        10.0402    4.2381    0.4540 C.2        1 <1>        0.000
     27 N7         11.2952    4.3732   -0.0634 N.am       1 <1>        0.000
     28 C20        12.3539    3.3999   -0.0178 C.3        1 <1>        0.000
     29 C21        12.6489    2.7543    1.3416 C.2        1 <1>        0.000
     30 O2         12.5285    3.4004    2.3783 O.2        1 <1>        0.000
     31 O4          9.7295    3.2342    1.0994 O.2        1 <1>        0.000
     32 O10        10.3721   -1.2607    2.7148 O.2        1 <1>        0.000
     33 O11        11.3210    0.1756   -0.7469 O.2        1 <1>        0.000
     34 H          13.2564    1.1088    2.3451 H.spc      1 <1>        0.000
     35 H          13.6742    1.1300   -0.5537 H.spc      1 <1>        0.000
     36 H          14.2178   -0.0902    0.6348 H.spc      1 <1>        0.000
     37 H          10.2874   -2.2134   -0.3659 H.spc      1 <1>        0.000
     38 H          10.4186   -4.3515    1.2531 H.spc      1 <1>        0.000
     39 H          11.4558   -4.2850   -0.0922 H.spc      1 <1>        0.000
     40 H          12.1174   -3.6453    2.7965 H.spc      1 <1>        0.000
     41 H          13.1191   -4.4119    1.6312 H.spc      1 <1>        0.000
     42 H          13.8865   -2.4192    0.7738 H.spc      1 <1>        0.000
     43 H          13.2381   -1.7127    2.2770 H.spc      1 <1>        0.000
     44 H           4.9303    3.3437    2.1696 H.spc      1 <1>        0.000
     45 H           8.1718   -2.0861    2.7199 H.spc      1 <1>        0.000
     46 H           8.2714   -3.1128    0.0387 H.spc      1 <1>        0.000
     47 H           6.8884   -3.1266    1.2814 H.spc      1 <1>        0.000
     48 H           6.1501   -1.9582   -0.5259 H.spc      1 <1>        0.000
     49 H           7.7310   -1.0098   -0.6230 H.spc      1 <1>        0.000
     50 H           7.2173    0.1747    1.2313 H.spc      1 <1>        0.000
     51 H           5.6916   -0.8922    1.5255 H.spc      1 <1>        0.000
     52 H           6.1508    1.2528   -0.4742 H.spc      1 <1>        0.000
     53 H           4.7086    0.1470   -0.3501 H.spc      1 <1>        0.000
     54 H           6.5043    3.6447   -0.0581 H.spc      1 <1>        0.000
     55 H           7.4622    2.6773    1.1466 H.spc      1 <1>        0.000
     56 H           8.4357    4.9797   -0.7042 H.spc      1 <1>        0.000
     57 H           8.9172    7.2575   -0.8170 H.spc      1 <1>        0.000
     58 H          10.5049    6.6607   -0.5736 H.spc      1 <1>        0.000
     59 H           9.4352    8.4369    1.1889 H.spc      1 <1>        0.000
     60 H          10.5272    7.2346    1.7403 H.spc      1 <1>        0.000
     61 H           8.7840    6.4653    3.0139 H.spc      1 <1>        0.000
     62 H           7.5868    7.3571    2.0321 H.spc      1 <1>        0.000
     63 H          11.5047    5.2553   -0.5308 H.spc      1 <1>        0.000
     64 H          13.2618    3.9349   -0.2962 H.spc      1 <1>        0.000
     65 H          12.0383    2.5864   -0.6711 H.spc      1 <1>        0.000
@<TRIPOS>BOND
     1   26   27 am 
     2   26   31 2  
     3   27   28 1  
     4   28   29 1  
     5   29   30 2  
     6   12   13 1  
     7   11   12 1  
     8   10   32 2  
     9   10   11 am 
    10    7    8 1  
    11    6    7 1  
    12    5   10 1  
    13    5    6 1  
    14    4    5 1  
    15    4    8 1  
    16    3   33 2  
    17    3    4 am 
    18    1   29 am 
    19    2    3 1  
    20    1    2 1  
    21   15   16 1  
    22   13   14 1  
    23   14   15 1  
    24   16    9 am 
    25    9   19 1  
    26   16   18 2  
    27   19   20 1  
    28   20   17 2  
    29   20   21 am 
    30   21   22 1  
    31   21   25 1  
    32   22   23 1  
    33   22   26 1  
    34   23   24 1  
    35   24   25 1  
    36    1   34 1  
    37    2   35 1  
    38    2   36 1  
    39    5   37 1  
    40    6   38 1  
    41    6   39 1  
    42    7   40 1  
    43    7   41 1  
    44    8   42 1  
    45    8   43 1  
    46    9   44 1  
    47   11   45 1  
    48   12   46 1  
    49   12   47 1  
    50   13   48 1  
    51   13   49 1  
    52   14   50 1  
    53   14   51 1  
    54   15   52 1  
    55   15   53 1  
    56   19   54 1  
    57   19   55 1  
    58   22   56 1  
    59   23   57 1  
    60   23   58 1  
    61   24   59 1  
    62   24   60 1  
    63   25   61 1  
    64   25   62 1  
    65   27   63 1  
    66   28   64 1  
    67   28   65 1  
# Name:          frag5-609-33/41815 -- energy: -13.501640
# Creation time: Sat Jun  5 12:52:58 2010


@<TRIPOS>MOLECULE
frag5-609-33/41815 -- energy: -13.501640
   65    67     1     1     1
SMALL
USER_CHARGES


@<TRIPOS>ATOM
      1 N1         13.9112    1.6086   -0.1115 N.am       1 <1>        0.000
      2 C1         13.8894    0.2650    0.4482 C.3        1 <1>        0.000
      3 C2         12.6824   -0.6094    0.0538 C.2        1 <1>        0.000
      4 N2         12.3569   -1.6891    0.8159 N.am       1 <1>        0.000
      5 C3         11.1839   -2.5384    0.6291 C.3        1 <1>        0.000
      6 C4         11.4590   -3.8615    1.3035 C.3        1 <1>        0.000
      7 C5         12.3868   -3.4920    2.4314 C.3        1 <1>        0.000
      8 C6         13.0426   -2.2198    1.9759 C.3        1 <1>        0.000
      9 N5          5.2765    2.9860    1.1125 N.am       1 <1>        0.000
     10 C7          9.9425   -1.8520    1.2595 C.2        1 <1>        0.000
     11 N4          8.7067   -2.4071    1.1186 N.am       1 <1>        0.000
     12 C8          7.5007   -1.9285    1.7372 C.3        1 <1>        0.000
     13 C9          7.0371   -0.5074    1.5137 C.3        1 <1>        0.000
     14 C10         5.7246   -0.2683    0.8008 C.3        1 <1>        0.000
     15 C11         5.6350    0.8773   -0.1755 C.3        1 <1>        0.000
     16 C12         4.8038    2.0510    0.2695 C.2        1 <1>        0.000
     17 O5          5.8964    5.0734    2.9216 O.2        1 <1>        0.000
     18 O7          3.6456    2.1430   -0.1474 O.2        1 <1>        0.000
     19 C13         6.5691    3.1448    1.7341 C.3        1 <1>        0.000
     20 C14         6.7556    4.5983    2.1637 C.2        1 <1>        0.000
     21 N6          7.7860    5.3668    1.7221 N.am       1 <1>        0.000
     22 C15         8.8386    5.0416    0.7561 C.3        1 <1>        0.000
     23 C16         9.5019    6.3266    0.2954 C.3        1 <1>        0.000
     24 C17         8.8175    7.4340    1.0510 C.3        1 <1>        0.000
     25 C18         7.9873    6.7450    2.0913 C.3        1 <1>        0.000
     26 C19         9.8173    3.9819    1.3421 C.2        1 <1>        0.000
     27 N7         10.9447    3.6619    0.6650 N.am       1 <1>        0.000
     28 C20        11.8156    2.5471    0.9452 C.3        1 <1>        0.000
     29 C21        13.0961    2.6596    0.1101 C.2        1 <1>        0.000
     30 O2         13.4080    3.7491   -0.3861 O.2        1 <1>        0.000
     31 O4          9.5307    3.3969    2.3906 O.2        1 <1>        0.000
     32 O10        10.0972   -0.8214    1.9210 O.2        1 <1>        0.000
     33 O11        12.0323   -0.3358   -0.9616 O.2        1 <1>        0.000
     34 H          14.6634    1.7829   -0.7780 H.spc      1 <1>        0.000
     35 H          14.7744   -0.2420    0.0637 H.spc      1 <1>        0.000
     36 H          13.8414    0.3842    1.5306 H.spc      1 <1>        0.000
     37 H          10.9832   -2.6981   -0.4303 H.spc      1 <1>        0.000
     38 H          10.5496   -4.3507    1.6525 H.spc      1 <1>        0.000
     39 H          11.8956   -4.5945    0.6251 H.spc      1 <1>        0.000
     40 H          11.8541   -3.3629    3.3736 H.spc      1 <1>        0.000
     41 H          13.1149   -4.2770    2.6359 H.spc      1 <1>        0.000
     42 H          14.0795   -2.4282    1.7122 H.spc      1 <1>        0.000
     43 H          12.9977   -1.4876    2.7821 H.spc      1 <1>        0.000
     44 H           4.6019    3.7114    1.3556 H.spc      1 <1>        0.000
     45 H           8.6306   -3.2322    0.5238 H.spc      1 <1>        0.000
     46 H           6.7125   -2.5405    1.2987 H.spc      1 <1>        0.000
     47 H           7.7087   -1.9784    2.8060 H.spc      1 <1>        0.000
     48 H           7.7934   -0.0637    0.8662 H.spc      1 <1>        0.000
     49 H           6.8922   -0.0986    2.5137 H.spc      1 <1>        0.000
     50 H           5.0116   -0.0274    1.5893 H.spc      1 <1>        0.000
     51 H           5.5566   -1.1650    0.2044 H.spc      1 <1>        0.000
     52 H           6.6506    1.2506   -0.3073 H.spc      1 <1>        0.000
     53 H           5.1565    0.4823   -1.0717 H.spc      1 <1>        0.000
     54 H           7.3490    2.8745    1.0222 H.spc      1 <1>        0.000
     55 H           6.6324    2.4975    2.6088 H.spc      1 <1>        0.000
     56 H           8.4173    4.5708   -0.1322 H.spc      1 <1>        0.000
     57 H           9.4023    6.4606   -0.7817 H.spc      1 <1>        0.000
     58 H          10.5735    6.3136    0.4945 H.spc      1 <1>        0.000
     59 H           8.2063    8.0518    0.3931 H.spc      1 <1>        0.000
     60 H           9.5368    8.1192    1.4995 H.spc      1 <1>        0.000
     61 H           8.5027    6.7892    3.0507 H.spc      1 <1>        0.000
     62 H           7.0203    7.2422    2.1678 H.spc      1 <1>        0.000
     63 H          11.2023    4.2653   -0.1160 H.spc      1 <1>        0.000
     64 H          11.3029    1.6190    0.6924 H.spc      1 <1>        0.000
     65 H          12.0760    2.5526    2.0036 H.spc      1 <1>        0.000
@<TRIPOS>BOND
     1   26   27 am 
     2   26   31 2  
     3   27   28 1  
     4   28   29 1  
     5   29   30 2  
     6   12   13 1  
     7   11   12 1  
     8   10   32 2  
     9   10   11 am 
    10    7    8 1  
    11    6    7 1  
    12    5   10 1  
    13    5    6 1  
    14    4    5 1  
    15    4    8 1  
    16    3   33 2  
    17    3    4 am 
    18    1   29 am 
    19    2    3 1  
    20    1    2 1  
    21   15   16 1  
    22   13   14 1  
    23   14   15 1  
    24   16    9 am 
    25    9   19 1  
    26   16   18 2  
    27   19   20 1  
    28   20   17 2  
    29   20   21 am 
    30   21   22 1  
    31   21   25 1  
    32   22   23 1  
    33   22   26 1  
    34   23   24 1  
    35   24   25 1  
    36    1   34 1  
    37    2   35 1  
    38    2   36 1  
    39    5   37 1  
    40    6   38 1  
    41    6   39 1  
    42    7   40 1  
    43    7   41 1  
    44    8   42 1  
    45    8   43 1  
    46    9   44 1  
    47   11   45 1  
    48   12   46 1  
    49   12   47 1  
    50   13   48 1  
    51   13   49 1  
    52   14   50 1  
    53   14   51 1  
    54   15   52 1  
    55   15   53 1  
    56   19   54 1  
    57   19   55 1  
    58   22   56 1  
    59   23   57 1  
    60   23   58 1  
    61   24   59 1  
    62   24   60 1  
    63   25   61 1  
    64   25   62 1  
    65   27   63 1  
    66   28   64 1  
    67   28   65 1  
# Name:          frag5-609-33/41815 -- energy: -16.012733
# Creation time: Sat Jun  5 12:52:58 2010


@<TRIPOS>MOLECULE
frag5-609-33/41815 -- energy: -16.012733
   65    67     1     1     1
SMALL
USER_CHARGES


@<TRIPOS>ATOM
      1 N1         13.7407    1.8630    1.1331 N.am       1 <1>        0.000
      2 C1         12.8068    1.0106    1.8331 C.3        1 <1>        0.000
      3 C2         12.2078   -0.0319    0.8897 C.2        1 <1>        0.000
      4 N2         11.3320   -0.9657    1.3318 N.am       1 <1>        0.000
      5 C3         10.6051   -1.8436    0.4259 C.3        1 <1>        0.000
      6 C4         10.0854   -3.0099    1.2248 C.3        1 <1>        0.000
      7 C5          9.8878   -2.4279    2.5959 C.3        1 <1>        0.000
      8 C6         10.8909   -1.3077    2.6706 C.3        1 <1>        0.000
      9 N5          6.3376    1.9025    2.6707 N.am       1 <1>        0.000
     10 C7          9.4447   -1.0474   -0.2218 C.2        1 <1>        0.000
     11 N4          8.5847   -1.6973   -1.0537 N.am       1 <1>        0.000
     12 C8          7.2901   -1.2583   -1.4523 C.3        1 <1>        0.000
     13 C9          6.1632   -1.3171   -0.4528 C.3        1 <1>        0.000
     14 C10         5.9117   -0.1159    0.4285 C.3        1 <1>        0.000
     15 C11         5.5670   -0.2883    1.8892 C.3        1 <1>        0.000
     16 C12         6.4807    0.5539    2.7271 C.2        1 <1>        0.000
     17 O5          6.0421    4.6593    2.4694 O.2        1 <1>        0.000
     18 O7          7.3975    0.0006    3.3358 O.2        1 <1>        0.000
     19 C13         7.4807    2.7776    2.6276 C.3        1 <1>        0.000
     20 C14         7.1101    4.1595    2.0881 C.2        1 <1>        0.000
     21 N6          7.9188    4.8238    1.2202 N.am       1 <1>        0.000
     22 C15         9.0958    4.3193    0.5076 C.3        1 <1>        0.000
     23 C16         9.3236    5.2275   -0.6748 C.3        1 <1>        0.000
     24 C17         8.8119    6.5586   -0.2039 C.3        1 <1>        0.000
     25 C18         7.7526    6.2007    0.8027 C.3        1 <1>        0.000
     26 C19        10.2721    4.2458    1.5091 C.2        1 <1>        0.000
     27 N7         11.5136    3.8535    1.1883 N.am       1 <1>        0.000
     28 C20        12.1259    3.4004   -0.0303 C.3        1 <1>        0.000
     29 C21        13.5150    2.8600    0.2504 C.2        1 <1>        0.000
     30 O2         14.4751    3.3401   -0.3611 O.2        1 <1>        0.000
     31 O4         10.1038    4.5337    2.7016 O.2        1 <1>        0.000
     32 O10         9.2788    0.1505    0.0346 O.2        1 <1>        0.000
     33 O11        12.5252   -0.0028   -0.3084 O.2        1 <1>        0.000
     34 H          14.7238    1.6836    1.3376 H.spc      1 <1>        0.000
     35 H          13.3356    0.4952    2.6349 H.spc      1 <1>        0.000
     36 H          12.0009    1.6266    2.2321 H.spc      1 <1>        0.000
     37 H          11.2500   -2.2150   -0.3705 H.spc      1 <1>        0.000
     38 H           9.1682   -3.4278    0.8098 H.spc      1 <1>        0.000
     39 H          10.7698   -3.8582    1.2233 H.spc      1 <1>        0.000
     40 H           8.8675   -2.0769    2.7503 H.spc      1 <1>        0.000
     41 H          10.0385   -3.1677    3.3821 H.spc      1 <1>        0.000
     42 H          11.7471   -1.6250    3.2659 H.spc      1 <1>        0.000
     43 H          10.4295   -0.4364    3.1354 H.spc      1 <1>        0.000
     44 H           5.4004    2.3048    2.6586 H.spc      1 <1>        0.000
     45 H           8.9005   -2.5911   -1.4303 H.spc      1 <1>        0.000
     46 H           7.4092   -0.1993   -1.6814 H.spc      1 <1>        0.000
     47 H           6.9948   -1.9387   -2.2510 H.spc      1 <1>        0.000
     48 H           6.4343   -2.1198    0.2330 H.spc      1 <1>        0.000
     49 H           5.2587   -1.4235   -1.0516 H.spc      1 <1>        0.000
     50 H           5.0245    0.3489   -0.0015 H.spc      1 <1>        0.000
     51 H           6.8662    0.4103    0.4404 H.spc      1 <1>        0.000
     52 H           4.5355    0.0221    2.0559 H.spc      1 <1>        0.000
     53 H           5.6852   -1.3357    2.1670 H.spc      1 <1>        0.000
     54 H           8.2269    2.3378    1.9658 H.spc      1 <1>        0.000
     55 H           7.8638    2.8946    3.6413 H.spc      1 <1>        0.000
     56 H           8.9740    3.3099    0.1148 H.spc      1 <1>        0.000
     57 H           8.8122    4.8788   -1.5720 H.spc      1 <1>        0.000
     58 H          10.3710    5.2665   -0.9739 H.spc      1 <1>        0.000
     59 H           8.4201    7.1649   -1.0206 H.spc      1 <1>        0.000
     60 H           9.5997    7.1777    0.2253 H.spc      1 <1>        0.000
     61 H           7.8440    6.8542    1.6703 H.spc      1 <1>        0.000
     62 H           6.7687    6.3241    0.3502 H.spc      1 <1>        0.000
     63 H          12.1606    3.8829    1.9763 H.spc      1 <1>        0.000
     64 H          12.2024    4.2378   -0.7238 H.spc      1 <1>        0.000
     65 H          11.5155    2.6077   -0.4628 H.spc      1 <1>        0.000
@<TRIPOS>BOND
     1   26   27 am 
     2   26   31 2  
     3   27   28 1  
     4   28   29 1  
     5   29   30 2  
     6   12   13 1  
     7   11   12 1  
     8   10   32 2  
     9   10   11 am 
    10    7    8 1  
    11    6    7 1  
    12    5   10 1  
    13    5    6 1  
    14    4    5 1  
    15    4    8 1  
    16    3   33 2  
    17    3    4 am 
    18    1   29 am 
    19    2    3 1  
    20    1    2 1  
    21   15   16 1  
    22   13   14 1  
    23   14   15 1  
    24   16    9 am 
    25    9   19 1  
    26   16   18 2  
    27   19   20 1  
    28   20   17 2  
    29   20   21 am 
    30   21   22 1  
    31   21   25 1  
    32   22   23 1  
    33   22   26 1  
    34   23   24 1  
    35   24   25 1  
    36    1   34 1  
    37    2   35 1  
    38    2   36 1  
    39    5   37 1  
    40    6   38 1  
    41    6   39 1  
    42    7   40 1  
    43    7   41 1  
    44    8   42 1  
    45    8   43 1  
    46    9   44 1  
    47   11   45 1  
    48   12   46 1  
    49   12   47 1  
    50   13   48 1  
    51   13   49 1  
    52   14   50 1  
    53   14   51 1  
    54   15   52 1  
    55   15   53 1  
    56   19   54 1  
    57   19   55 1  
    58   22   56 1  
    59   23   57 1  
    60   23   58 1  
    61   24   59 1  
    62   24   60 1  
    63   25   61 1  
    64   25   62 1  
    65   27   63 1  
    66   28   64 1  
    67   28   65 1  
# Name:          frag5-609-33/41815 -- energy: -14.429319
# Creation time: Sat Jun  5 12:52:58 2010


@<TRIPOS>MOLECULE
frag5-609-33/41815 -- energy: -14.429319
   65    67     1     1     1
SMALL
USER_CHARGES


@<TRIPOS>ATOM
      1 N1         12.5105    1.7495    0.1527 N.am       1 <1>        0.000
      2 C1         12.9861    0.5158   -0.4064 C.3        1 <1>        0.000
      3 C2         11.8965   -0.5448   -0.3865 C.2        1 <1>        0.000
      4 N2         11.8728   -1.4951    0.5899 N.am       1 <1>        0.000
      5 C3         10.7371   -2.3855    0.8462 C.3        1 <1>        0.000
      6 C4         11.2732   -3.5266    1.6751 C.3        1 <1>        0.000
      7 C5         12.3457   -2.8642    2.5120 C.3        1 <1>        0.000
      8 C6         12.8388   -1.7431    1.6399 C.3        1 <1>        0.000
      9 N5          5.7756    2.6543    0.2641 N.am       1 <1>        0.000
     10 C7          9.6524   -1.5553    1.5836 C.2        1 <1>        0.000
     11 N4          8.4806   -2.1766    1.9391 N.am       1 <1>        0.000
     12 C8          7.4071   -1.5286    2.6601 C.3        1 <1>        0.000
     13 C9          6.3691   -0.6694    1.9663 C.3        1 <1>        0.000
     14 C10         6.4872   -0.5459    0.4652 C.3        1 <1>        0.000
     15 C11         5.5029    0.2149   -0.3916 C.3        1 <1>        0.000
     16 C12         5.0019    1.5969   -0.0327 C.2        1 <1>        0.000
     17 O5          6.3628    3.7440    2.7170 O.2        1 <1>        0.000
     18 O7          3.7751    1.7657   -0.0565 O.2        1 <1>        0.000
     19 C13         7.1578    2.7762    0.6918 C.3        1 <1>        0.000
     20 C14         7.1714    3.8545    1.7840 C.2        1 <1>        0.000
     21 N6          7.9833    4.9403    1.7149 N.am       1 <1>        0.000
     22 C15         9.0630    5.2232    0.7713 C.3        1 <1>        0.000
     23 C16         9.3391    6.7061    0.8432 C.3        1 <1>        0.000
     24 C17         8.9838    7.0674    2.2592 C.3        1 <1>        0.000
     25 C18         7.9269    6.0646    2.6248 C.3        1 <1>        0.000
     26 C19        10.2829    4.3380    1.1582 C.2        1 <1>        0.000
     27 N7         11.5176    4.6153    0.6587 N.am       1 <1>        0.000
     28 C20        12.7545    4.0184    1.0998 C.3        1 <1>        0.000
     29 C21        13.2662    2.8706    0.2446 C.2        1 <1>        0.000
     30 O2         14.3666    2.9624   -0.3131 O.2        1 <1>        0.000
     31 O4         10.1264    3.3620    1.8999 O.2        1 <1>        0.000
     32 O10         9.8495   -0.3827    1.8664 O.2        1 <1>        0.000
     33 O11        11.0145   -0.4951   -1.2446 O.2        1 <1>        0.000
     34 H          11.5519    1.7841    0.4995 H.spc      1 <1>        0.000
     35 H          13.2853    0.6916   -1.4397 H.spc      1 <1>        0.000
     36 H          13.8290    0.1635    0.1881 H.spc      1 <1>        0.000
     37 H          10.2797   -2.7948   -0.0546 H.spc      1 <1>        0.000
     38 H          10.5039   -4.0085    2.2784 H.spc      1 <1>        0.000
     39 H          11.6572   -4.3462    1.0677 H.spc      1 <1>        0.000
     40 H          11.9649   -2.5088    3.4695 H.spc      1 <1>        0.000
     41 H          13.1416   -3.5552    2.7897 H.spc      1 <1>        0.000
     42 H          13.7965   -2.0181    1.1979 H.spc      1 <1>        0.000
     43 H          12.9657   -0.8420    2.2400 H.spc      1 <1>        0.000
     44 H           5.2966    3.5499    0.1703 H.spc      1 <1>        0.000
     45 H           8.3597   -3.1554    1.6787 H.spc      1 <1>        0.000
     46 H           6.8252   -2.3625    3.0526 H.spc      1 <1>        0.000
     47 H           7.9265   -0.8243    3.3099 H.spc      1 <1>        0.000
     48 H           6.4986    0.3378    2.3623 H.spc      1 <1>        0.000
     49 H           5.4079   -1.1478    2.1543 H.spc      1 <1>        0.000
     50 H           6.3610   -1.5740    0.1259 H.spc      1 <1>        0.000
     51 H           7.4088    0.0224    0.3397 H.spc      1 <1>        0.000
     52 H           6.0536    0.3812   -1.3174 H.spc      1 <1>        0.000
     53 H           4.6028   -0.3979   -0.3426 H.spc      1 <1>        0.000
     54 H           7.8052    3.0507   -0.1410 H.spc      1 <1>        0.000
     55 H           7.5383    1.8274    1.0701 H.spc      1 <1>        0.000
     56 H           8.8128    4.9823   -0.2619 H.spc      1 <1>        0.000
     57 H           8.7615    7.2722    0.1125 H.spc      1 <1>        0.000
     58 H          10.3735    6.9485    0.5996 H.spc      1 <1>        0.000
     59 H           8.6331    8.0953    2.3517 H.spc      1 <1>        0.000
     60 H           9.8439    7.0291    2.9276 H.spc      1 <1>        0.000
     61 H           8.0989    5.7140    3.6425 H.spc      1 <1>        0.000
     62 H           6.9455    6.5341    2.5576 H.spc      1 <1>        0.000
     63 H          11.5734    5.3040   -0.0916 H.spc      1 <1>        0.000
     64 H          12.5654    3.6073    2.0914 H.spc      1 <1>        0.000
     65 H          13.5114    4.8015    1.0547 H.spc      1 <1>        0.000
@<TRIPOS>BOND
     1   26   27 am 
     2   26   31 2  
     3   27   28 1  
     4   28   29 1  
     5   29   30 2  
     6   12   13 1  
     7   11   12 1  
     8   10   32 2  
     9   10   11 am 
    10    7    8 1  
    11    6    7 1  
    12    5   10 1  
    13    5    6 1  
    14    4    5 1  
    15    4    8 1  
    16    3   33 2  
    17    3    4 am 
    18    1   29 am 
    19    2    3 1  
    20    1    2 1  
    21   15   16 1  
    22   13   14 1  
    23   14   15 1  
    24   16    9 am 
    25    9   19 1  
    26   16   18 2  
    27   19   20 1  
    28   20   17 2  
    29   20   21 am 
    30   21   22 1  
    31   21   25 1  
    32   22   23 1  
    33   22   26 1  
    34   23   24 1  
    35   24   25 1  
    36    1   34 1  
    37    2   35 1  
    38    2   36 1  
    39    5   37 1  
    40    6   38 1  
    41    6   39 1  
    42    7   40 1  
    43    7   41 1  
    44    8   42 1  
    45    8   43 1  
    46    9   44 1  
    47   11   45 1  
    48   12   46 1  
    49   12   47 1  
    50   13   48 1  
    51   13   49 1  
    52   14   50 1  
    53   14   51 1  
    54   15   52 1  
    55   15   53 1  
    56   19   54 1  
    57   19   55 1  
    58   22   56 1  
    59   23   57 1  
    60   23   58 1  
    61   24   59 1  
    62   24   60 1  
    63   25   61 1  
    64   25   62 1  
    65   27   63 1  
    66   28   64 1  
    67   28   65 1  
# Name:          frag5-609-33/41815 -- energy: -3.938651
# Creation time: Sat Jun  5 12:52:58 2010


@<TRIPOS>MOLECULE
frag5-609-33/41815 -- energy: -3.938651
   65    67     1     1     1
SMALL
USER_CHARGES


@<TRIPOS>ATOM
      1 N1         13.2344    1.3042    2.1534 N.am       1 <1>        0.000
      2 C1         13.2254    1.2969    0.7075 C.3        1 <1>        0.000
      3 C2         11.9439    0.6890    0.1818 C.2        1 <1>        0.000
      4 N2         11.8313   -0.6196   -0.1958 N.am       1 <1>        0.000
      5 C3         10.5731   -1.2863   -0.4743 C.3        1 <1>        0.000
      6 C4         10.8805   -2.5097   -1.3152 C.3        1 <1>        0.000
      7 C5         12.3006   -2.8438   -0.9597 C.3        1 <1>        0.000
      8 C6         12.8913   -1.5417   -0.4705 C.3        1 <1>        0.000
      9 N5          5.4928    3.0343    2.1000 N.am       1 <1>        0.000
     10 C7          9.8210   -1.6457    0.8400 C.2        1 <1>        0.000
     11 N4          8.6335   -2.3192    0.7676 N.am       1 <1>        0.000
     12 C8          7.7523   -2.6435    1.8484 C.3        1 <1>        0.000
     13 C9          6.8304   -1.5949    2.4205 C.3        1 <1>        0.000
     14 C10         6.0528   -0.7188    1.4512 C.3        1 <1>        0.000
     15 C11         6.3379    0.7639    1.5349 C.3        1 <1>        0.000
     16 C12         5.2414    1.7028    1.9864 C.2        1 <1>        0.000
     17 O5          5.9043    5.4459    0.6064 O.2        1 <1>        0.000
     18 O7          4.1280    1.2648    2.2459 O.2        1 <1>        0.000
     19 C13         6.7587    3.7294    2.0248 C.3        1 <1>        0.000
     20 C14         6.8866    4.7435    0.8738 C.2        1 <1>        0.000
     21 N6          8.0585    4.8782    0.1875 N.am       1 <1>        0.000
     22 C15         9.2428    4.0178    0.2407 C.3        1 <1>        0.000
     23 C16        10.1014    4.3008   -0.9740 C.3        1 <1>        0.000
     24 C17         9.7218    5.6983   -1.3724 C.3        1 <1>        0.000
     25 C18         8.3354    5.8827   -0.8171 C.3        1 <1>        0.000
     26 C19        10.0133    4.1881    1.5806 C.2        1 <1>        0.000
     27 N7         11.1501    3.4728    1.7720 N.am       1 <1>        0.000
     28 C20        11.9938    3.4207    2.9367 C.3        1 <1>        0.000
     29 C21        12.7958    2.1282    3.1223 C.2        1 <1>        0.000
     30 O2         13.1366    1.8334    4.2771 O.2        1 <1>        0.000
     31 O4          9.5784    4.9324    2.4625 O.2        1 <1>        0.000
     32 O10        10.2908   -1.3063    1.9303 O.2        1 <1>        0.000
     33 O11        10.9398    1.4288    0.1232 O.2        1 <1>        0.000
     34 H          13.6882    0.4745    2.5356 H.spc      1 <1>        0.000
     35 H          13.2998    2.3240    0.3502 H.spc      1 <1>        0.000
     36 H          14.0676    0.7023    0.3536 H.spc      1 <1>        0.000
     37 H           9.9030   -0.6257   -1.0245 H.spc      1 <1>        0.000
     38 H          10.1975   -3.3345   -1.1117 H.spc      1 <1>        0.000
     39 H          10.7536   -2.3220   -2.3814 H.spc      1 <1>        0.000
     40 H          12.3566   -3.6254   -0.2020 H.spc      1 <1>        0.000
     41 H          12.8494   -3.2440   -1.8122 H.spc      1 <1>        0.000
     42 H          13.5485   -1.1273   -1.2350 H.spc      1 <1>        0.000
     43 H          13.4673   -1.7190    0.4377 H.spc      1 <1>        0.000
     44 H           4.6761    3.6240    2.2603 H.spc      1 <1>        0.000
     45 H           8.3426   -2.6251   -0.1609 H.spc      1 <1>        0.000
     46 H           7.0811   -3.3953    1.4331 H.spc      1 <1>        0.000
     47 H           8.4185   -2.8961    2.6733 H.spc      1 <1>        0.000
     48 H           7.4773   -0.9118    2.9710 H.spc      1 <1>        0.000
     49 H           6.0750   -2.1485    2.9781 H.spc      1 <1>        0.000
     50 H           4.9987   -0.8451    1.6982 H.spc      1 <1>        0.000
     51 H           6.3439   -1.0332    0.4490 H.spc      1 <1>        0.000
     52 H           7.1141    0.8561    2.2945 H.spc      1 <1>        0.000
     53 H           6.5574    1.0639    0.5102 H.spc      1 <1>        0.000
     54 H           7.5219    2.9695    1.8568 H.spc      1 <1>        0.000
     55 H           6.8591    4.2951    2.9511 H.spc      1 <1>        0.000
     56 H           8.9418    2.9705    0.2133 H.spc      1 <1>        0.000
     57 H           9.9307    3.5826   -1.7760 H.spc      1 <1>        0.000
     58 H          11.1656    4.2085   -0.7573 H.spc      1 <1>        0.000
     59 H           9.7519    5.8383   -2.4530 H.spc      1 <1>        0.000
     60 H          10.4205    6.4389   -0.9832 H.spc      1 <1>        0.000
     61 H           8.2630    6.8704   -0.3619 H.spc      1 <1>        0.000
     62 H           7.6121    5.7850   -1.6266 H.spc      1 <1>        0.000
     63 H          11.4463    2.8948    0.9855 H.spc      1 <1>        0.000
     64 H          11.3324    3.4990    3.7995 H.spc      1 <1>        0.000
     65 H          12.7238    4.2223    2.8240 H.spc      1 <1>        0.000
@<TRIPOS>BOND
     1   26   27 am 
     2   26   31 2  
     3   27   28 1  
     4   28   29 1  
     5   29   30 2  
     6   12   13 1  
     7   11   12 1  
     8   10   32 2  
     9   10   11 am 
    10    7    8 1  
    11    6    7 1  
    12    5   10 1  
    13    5    6 1  
    14    4    5 1  
    15    4    8 1  
    16    3   33 2  
    17    3    4 am 
    18    1   29 am 
    19    2    3 1  
    20    1    2 1  
    21   15   16 1  
    22   13   14 1  
    23   14   15 1  
    24   16    9 am 
    25    9   19 1  
    26   16   18 2  
    27   19   20 1  
    28   20   17 2  
    29   20   21 am 
    30   21   22 1  
    31   21   25 1  
    32   22   23 1  
    33   22   26 1  
    34   23   24 1  
    35   24   25 1  
    36    1   34 1  
    37    2   35 1  
    38    2   36 1  
    39    5   37 1  
    40    6   38 1  
    41    6   39 1  
    42    7   40 1  
    43    7   41 1  
    44    8   42 1  
    45    8   43 1  
    46    9   44 1  
    47   11   45 1  
    48   12   46 1  
    49   12   47 1  
    50   13   48 1  
    51   13   49 1  
    52   14   50 1  
    53   14   51 1  
    54   15   52 1  
    55   15   53 1  
    56   19   54 1  
    57   19   55 1  
    58   22   56 1  
    59   23   57 1  
    60   23   58 1  
    61   24   59 1  
    62   24   60 1  
    63   25   61 1  
    64   25   62 1  
    65   27   63 1  
    66   28   64 1  
    67   28   65 1  
