#      Rotatable Fragment
#      Build by yxyuan
#
# Name:          frag4-468-102/150395
# Creation time: Sat Jun  5 12:53:37 2010


@<TRIPOS>MOLECULE
frag4-468-102/150395
   14    14     1     1     1
SMALL
USER_CHARGES


@<TRIPOS>ATOM
      1 N1          2.3165    0.1137   -0.0000 N.3        1 <1>        0.000
      2 C1          2.4021   -1.2750   -0.0000 C.3        1 <1>        0.000
      3 C2          3.6348    0.5619    0.0000 C.3        1 <1>        0.000
      4 C4          3.7932   -1.7922    0.0000 C.3        1 <1>        0.000
      5 C5          4.6381   -0.5392   -0.0000 C.3        1 <1>        0.000
      6 H           1.8023    0.4586    0.8106 H.spc      1 <1>        0.000
      7 H           1.9248   -1.6290   -0.9137 H.spc      1 <1>        0.000
      8 H           1.9248   -1.6290    0.9137 H.spc      1 <1>        0.000
      9 H           3.7837    1.1402    0.9119 H.spc      1 <1>        0.000
     10 H           3.7837    1.1402   -0.9119 H.spc      1 <1>        0.000
     11 H           3.9993   -2.4340   -0.8566 H.spc      1 <1>        0.000
     12 H           3.9993   -2.4340    0.8566 H.spc      1 <1>        0.000
     13 H           5.3099   -0.4902    0.8570 H.spc      1 <1>        0.000
     14 H           5.3099   -0.4902   -0.8570 H.spc      1 <1>        0.000
@<TRIPOS>BOND
     1    1    2 1  
     2    1    3 1  
     3    2    4 1  
     4    3    5 1  
     5    4    5 1  
     6    1    6 1  
     7    2    7 1  
     8    2    8 1  
     9    3    9 1  
    10    3   10 1  
    11    4   11 1  
    12    4   12 1  
    13    5   13 1  
    14    5   14 1  
# Name:          frag4-468-102/150395 -- energy: -0.791464
# Creation time: Sat Jun  5 12:53:37 2010


@<TRIPOS>MOLECULE
frag4-468-102/150395 -- energy: -0.791464
   14    14     1     1     1
SMALL
USER_CHARGES


@<TRIPOS>ATOM
      1 N1          2.3165    0.1137   -0.0000 N.3        1 <1>        0.000
      2 C1          2.4021   -1.2750   -0.0000 C.3        1 <1>        0.000
      3 C2          3.6348    0.5619    0.0000 C.3        1 <1>        0.000
      4 C4          3.7932   -1.7922    0.0000 C.3        1 <1>        0.000
      5 C5          4.6381   -0.5392   -0.0000 C.3        1 <1>        0.000
      6 H           1.8023    0.4586    0.8106 H.spc      1 <1>        0.000
      7 H           1.9248   -1.6290   -0.9137 H.spc      1 <1>        0.000
      8 H           1.9248   -1.6290    0.9137 H.spc      1 <1>        0.000
      9 H           3.7837    1.1402    0.9119 H.spc      1 <1>        0.000
     10 H           3.7837    1.1402   -0.9119 H.spc      1 <1>        0.000
     11 H           3.9993   -2.4340   -0.8566 H.spc      1 <1>        0.000
     12 H           3.9993   -2.4340    0.8566 H.spc      1 <1>        0.000
     13 H           5.3099   -0.4902    0.8570 H.spc      1 <1>        0.000
     14 H           5.3099   -0.4902   -0.8570 H.spc      1 <1>        0.000
@<TRIPOS>BOND
     1    1    2 1  
     2    1    3 1  
     3    2    4 1  
     4    3    5 1  
     5    4    5 1  
     6    1    6 1  
     7    2    7 1  
     8    2    8 1  
     9    3    9 1  
    10    3   10 1  
    11    4   11 1  
    12    4   12 1  
    13    5   13 1  
    14    5   14 1  
