#      Rotatable Fragment
#      Build by yxyuan
#
# Name:          frag3-129-42/96164
# Creation time: Sat Jun  5 12:52:58 2010


@<TRIPOS>MOLECULE
frag3-129-42/96164
   13    12     1     1     1
SMALL
USER_CHARGES


@<TRIPOS>ATOM
      1 O3         -0.5817   -1.6373    1.2446 O.3        1 <1>        0.000
      2 C11        -0.5866   -0.5178    0.5176 C.2        1 <1>        0.000
      3 C15        -1.8210    0.2621    0.3489 C.2        1 <1>        0.000
      4 O4          0.4546   -0.1421    0.0065 O.2        1 <1>        0.000
      5 C18        -3.0650   -0.2370    0.4491 C.2        1 <1>        0.000
      6 C22        -4.2793    0.5382    0.2702 C.2        1 <1>        0.000
      7 C27        -4.5398    1.2704   -0.8185 C.2        1 <1>        0.000
      8 H          -1.4658   -1.8039    1.5795 H.spc      1 <1>        0.000
      9 H          -1.7201    1.3243    0.1259 H.spc      1 <1>        0.000
     10 H          -3.1693   -1.2970    0.6807 H.spc      1 <1>        0.000
     11 H          -5.0212    0.5227    1.0686 H.spc      1 <1>        0.000
     12 H          -3.8192    1.3077   -1.6354 H.spc      1 <1>        0.000
     13 H          -5.4727    1.8297   -0.8887 H.spc      1 <1>        0.000
@<TRIPOS>BOND
     1    1    2 1  
     2    2    3 1  
     3    2    4 2  
     4    3    5 2  
     5    5    6 1  
     6    6    7 2  
     7    1    8 1  
     8    3    9 1  
     9    5   10 1  
    10    6   11 1  
    11    7   12 1  
    12    7   13 1  
# Name:          frag3-129-42/96164
# Creation time: Sat Jun  5 12:52:58 2010


@<TRIPOS>MOLECULE
frag3-129-42/96164
   13    12     1     1     1
SMALL
USER_CHARGES


@<TRIPOS>ATOM
      1 O3         -0.8037   -1.6590    1.2782 O.3        1 <1>        0.000
      2 C11        -0.5267   -0.5649    0.5669 C.2        1 <1>        0.000
      3 C15        -1.6006    0.3201    0.0707 C.2        1 <1>        0.000
      4 O4          0.6420   -0.2990    0.3320 O.2        1 <1>        0.000
      5 C18        -2.9095    0.0281    0.1345 C.2        1 <1>        0.000
      6 C22        -3.9686    0.9085   -0.3589 C.2        1 <1>        0.000
      7 C27        -5.2517    0.8028   -0.0050 C.2        1 <1>        0.000
      8 H          -1.7546   -1.7391    1.3827 H.spc      1 <1>        0.000
      9 H          -1.3116    1.2714   -0.3760 H.spc      1 <1>        0.000
     10 H          -3.2007   -0.9226    0.5810 H.spc      1 <1>        0.000
     11 H          -3.6936    1.6985   -1.0577 H.spc      1 <1>        0.000
     12 H          -5.5625    0.0244    0.6918 H.spc      1 <1>        0.000
     13 H          -5.9884    1.4949   -0.4129 H.spc      1 <1>        0.000
@<TRIPOS>BOND
     1    1    2 1  
     2    2    3 1  
     3    2    4 2  
     4    3    5 2  
     5    5    6 1  
     6    6    7 2  
     7    1    8 1  
     8    3    9 1  
     9    5   10 1  
    10    6   11 1  
    11    7   12 1  
    12    7   13 1  
# Name:          frag3-129-42/96164
# Creation time: Sat Jun  5 12:52:58 2010


@<TRIPOS>MOLECULE
frag3-129-42/96164
   13    12     1     1     1
SMALL
USER_CHARGES


@<TRIPOS>ATOM
      1 O3         -0.0051   -1.5742    1.4742 O.3        1 <1>        0.000
      2 C11        -0.6092   -0.6980    0.6692 C.2        1 <1>        0.000
      3 C15        -2.0624   -0.4708    0.7645 C.2        1 <1>        0.000
      4 O4          0.0591   -0.0913   -0.1490 O.2        1 <1>        0.000
      5 C18        -2.7600    0.3290   -0.0662 C.2        1 <1>        0.000
      6 C22        -4.1893    0.5653    0.0189 C.2        1 <1>        0.000
      7 C27        -4.8519    1.4766   -0.6932 C.2        1 <1>        0.000
      8 H          -0.6549   -1.9702    2.0595 H.spc      1 <1>        0.000
      9 H          -2.6078   -0.9824    1.5576 H.spc      1 <1>        0.000
     10 H          -2.2106    0.8353   -0.8599 H.spc      1 <1>        0.000
     11 H          -4.7624   -0.0466    0.7155 H.spc      1 <1>        0.000
     12 H          -4.3169    2.1095   -1.4012 H.spc      1 <1>        0.000
     13 H          -5.9288    1.5890   -0.5675 H.spc      1 <1>        0.000
@<TRIPOS>BOND
     1    1    2 1  
     2    2    3 1  
     3    2    4 2  
     4    3    5 2  
     5    5    6 1  
     6    6    7 2  
     7    1    8 1  
     8    3    9 1  
     9    5   10 1  
    10    6   11 1  
    11    7   12 1  
    12    7   13 1  
# Name:          frag3-129-42/96164
# Creation time: Sat Jun  5 12:52:58 2010


@<TRIPOS>MOLECULE
frag3-129-42/96164
   13    12     1     1     1
SMALL
USER_CHARGES


@<TRIPOS>ATOM
      1 O3         -0.3116   -1.9263    0.9323 O.3        1 <1>        0.000
      2 C11        -0.6694   -0.7059    0.5402 C.2        1 <1>        0.000
      3 C15        -2.0951   -0.4514    0.3230 C.2        1 <1>        0.000
      4 O4          0.1606    0.1694    0.3700 O.2        1 <1>        0.000
      5 C18        -2.6849    0.7530    0.4575 C.2        1 <1>        0.000
      6 C22        -4.0643    1.0582    0.2296 C.2        1 <1>        0.000
      7 C27        -4.7541    0.6396   -0.8341 C.2        1 <1>        0.000
      8 H          -1.0935   -2.4774    1.0130 H.spc      1 <1>        0.000
      9 H          -2.7225   -1.2941    0.0325 H.spc      1 <1>        0.000
     10 H          -2.0463    1.5785    0.7718 H.spc      1 <1>        0.000
     11 H          -4.5828    1.6690    0.9686 H.spc      1 <1>        0.000
     12 H          -4.2671    0.0271   -1.5929 H.spc      1 <1>        0.000
     13 H          -5.8042    0.9104   -0.9437 H.spc      1 <1>        0.000
@<TRIPOS>BOND
     1    1    2 1  
     2    2    3 1  
     3    2    4 2  
     4    3    5 2  
     5    5    6 1  
     6    6    7 2  
     7    1    8 1  
     8    3    9 1  
     9    5   10 1  
    10    6   11 1  
    11    7   12 1  
    12    7   13 1  
# Name:          frag3-129-42/96164 -- energy: -0.599618
# Creation time: Sat Jun  5 12:52:58 2010


@<TRIPOS>MOLECULE
frag3-129-42/96164 -- energy: -0.599618
   13    12     1     1     1
SMALL
USER_CHARGES


@<TRIPOS>ATOM
      1 O3         -0.5817   -1.6373    1.2446 O.3        1 <1>        0.000
      2 C11        -0.5866   -0.5178    0.5176 C.2        1 <1>        0.000
      3 C15        -1.8210    0.2621    0.3489 C.2        1 <1>        0.000
      4 O4          0.4546   -0.1421    0.0065 O.2        1 <1>        0.000
      5 C18        -3.0650   -0.2370    0.4491 C.2        1 <1>        0.000
      6 C22        -4.2793    0.5382    0.2702 C.2        1 <1>        0.000
      7 C27        -4.5398    1.2704   -0.8185 C.2        1 <1>        0.000
      8 H          -1.4658   -1.8039    1.5795 H.spc      1 <1>        0.000
      9 H          -1.7201    1.3243    0.1259 H.spc      1 <1>        0.000
     10 H          -3.1693   -1.2970    0.6807 H.spc      1 <1>        0.000
     11 H          -5.0212    0.5227    1.0686 H.spc      1 <1>        0.000
     12 H          -3.8192    1.3077   -1.6354 H.spc      1 <1>        0.000
     13 H          -5.4727    1.8297   -0.8887 H.spc      1 <1>        0.000
@<TRIPOS>BOND
     1    1    2 1  
     2    2    3 1  
     3    2    4 2  
     4    3    5 2  
     5    5    6 1  
     6    6    7 2  
     7    1    8 1  
     8    3    9 1  
     9    5   10 1  
    10    6   11 1  
    11    7   12 1  
    12    7   13 1  
# Name:          frag3-129-42/96164 -- energy: -0.004458
# Creation time: Sat Jun  5 12:52:58 2010


@<TRIPOS>MOLECULE
frag3-129-42/96164 -- energy: -0.004458
   13    12     1     1     1
SMALL
USER_CHARGES


@<TRIPOS>ATOM
      1 O3         -0.8037   -1.6590    1.2782 O.3        1 <1>        0.000
      2 C11        -0.5267   -0.5649    0.5669 C.2        1 <1>        0.000
      3 C15        -1.6006    0.3201    0.0707 C.2        1 <1>        0.000
      4 O4          0.6420   -0.2990    0.3320 O.2        1 <1>        0.000
      5 C18        -2.9095    0.0281    0.1345 C.2        1 <1>        0.000
      6 C22        -3.9686    0.9085   -0.3589 C.2        1 <1>        0.000
      7 C27        -5.2517    0.8028   -0.0050 C.2        1 <1>        0.000
      8 H          -1.7546   -1.7391    1.3827 H.spc      1 <1>        0.000
      9 H          -1.3116    1.2714   -0.3760 H.spc      1 <1>        0.000
     10 H          -3.2007   -0.9226    0.5810 H.spc      1 <1>        0.000
     11 H          -3.6936    1.6985   -1.0577 H.spc      1 <1>        0.000
     12 H          -5.5625    0.0244    0.6918 H.spc      1 <1>        0.000
     13 H          -5.9884    1.4949   -0.4129 H.spc      1 <1>        0.000
@<TRIPOS>BOND
     1    1    2 1  
     2    2    3 1  
     3    2    4 2  
     4    3    5 2  
     5    5    6 1  
     6    6    7 2  
     7    1    8 1  
     8    3    9 1  
     9    5   10 1  
    10    6   11 1  
    11    7   12 1  
    12    7   13 1  
# Name:          frag3-129-42/96164 -- energy: -0.691743
# Creation time: Sat Jun  5 12:52:59 2010


@<TRIPOS>MOLECULE
frag3-129-42/96164 -- energy: -0.691743
   13    12     1     1     1
SMALL
USER_CHARGES


@<TRIPOS>ATOM
      1 O3         -0.0051   -1.5742    1.4742 O.3        1 <1>        0.000
      2 C11        -0.6092   -0.6980    0.6692 C.2        1 <1>        0.000
      3 C15        -2.0624   -0.4708    0.7645 C.2        1 <1>        0.000
      4 O4          0.0591   -0.0913   -0.1490 O.2        1 <1>        0.000
      5 C18        -2.7600    0.3290   -0.0662 C.2        1 <1>        0.000
      6 C22        -4.1893    0.5653    0.0189 C.2        1 <1>        0.000
      7 C27        -4.8519    1.4766   -0.6932 C.2        1 <1>        0.000
      8 H          -0.6549   -1.9702    2.0595 H.spc      1 <1>        0.000
      9 H          -2.6078   -0.9824    1.5576 H.spc      1 <1>        0.000
     10 H          -2.2106    0.8353   -0.8599 H.spc      1 <1>        0.000
     11 H          -4.7624   -0.0466    0.7155 H.spc      1 <1>        0.000
     12 H          -4.3169    2.1095   -1.4012 H.spc      1 <1>        0.000
     13 H          -5.9288    1.5890   -0.5675 H.spc      1 <1>        0.000
@<TRIPOS>BOND
     1    1    2 1  
     2    2    3 1  
     3    2    4 2  
     4    3    5 2  
     5    5    6 1  
     6    6    7 2  
     7    1    8 1  
     8    3    9 1  
     9    5   10 1  
    10    6   11 1  
    11    7   12 1  
    12    7   13 1  
# Name:          frag3-129-42/96164 -- energy: -0.749560
# Creation time: Sat Jun  5 12:52:59 2010


@<TRIPOS>MOLECULE
frag3-129-42/96164 -- energy: -0.749560
   13    12     1     1     1
SMALL
USER_CHARGES


@<TRIPOS>ATOM
      1 O3         -0.3116   -1.9263    0.9323 O.3        1 <1>        0.000
      2 C11        -0.6694   -0.7059    0.5402 C.2        1 <1>        0.000
      3 C15        -2.0951   -0.4514    0.3230 C.2        1 <1>        0.000
      4 O4          0.1606    0.1694    0.3700 O.2        1 <1>        0.000
      5 C18        -2.6849    0.7530    0.4575 C.2        1 <1>        0.000
      6 C22        -4.0643    1.0582    0.2296 C.2        1 <1>        0.000
      7 C27        -4.7541    0.6396   -0.8341 C.2        1 <1>        0.000
      8 H          -1.0935   -2.4774    1.0130 H.spc      1 <1>        0.000
      9 H          -2.7225   -1.2941    0.0325 H.spc      1 <1>        0.000
     10 H          -2.0463    1.5785    0.7718 H.spc      1 <1>        0.000
     11 H          -4.5828    1.6690    0.9686 H.spc      1 <1>        0.000
     12 H          -4.2671    0.0271   -1.5929 H.spc      1 <1>        0.000
     13 H          -5.8042    0.9104   -0.9437 H.spc      1 <1>        0.000
@<TRIPOS>BOND
     1    1    2 1  
     2    2    3 1  
     3    2    4 2  
     4    3    5 2  
     5    5    6 1  
     6    6    7 2  
     7    1    8 1  
     8    3    9 1  
     9    5   10 1  
    10    6   11 1  
    11    7   12 1  
    12    7   13 1  
