#      Rotatable Fragment
#      Build by yxyuan
#
# Name:          frag5-550-180/138278
# Creation time: Sat Jun  5 12:53:43 2010


@<TRIPOS>MOLECULE
frag5-550-180/138278
   14    14     1     1     1
SMALL
USER_CHARGES


@<TRIPOS>ATOM
      1 C2         -2.1384   -1.0388   -0.0362 C.ar       1 <1>        0.000
      2 C6         -3.3165   -0.2668    0.1459 C.ar       1 <1>        0.000
      3 C7         -0.9496   -0.4551   -0.3169 C.ar       1 <1>        0.000
      4 C8         -3.2033    1.1482    0.0428 C.ar       1 <1>        0.000
      5 O1         -4.5177   -0.8960    0.4205 O.3        1 <1>        0.000
      6 C9         -0.8448    0.9459   -0.4570 C.ar       1 <1>        0.000
      7 C11        -2.0089    1.7400   -0.2456 C.ar       1 <1>        0.000
      8 S1          0.6314    1.8302   -0.7659 S.3        1 <1>        0.000
      9 H          -2.1925   -2.1239    0.0519 H.spc      1 <1>        0.000
     10 H          -0.0612   -1.0752   -0.4364 H.spc      1 <1>        0.000
     11 H          -4.0858    1.7692    0.1969 H.spc      1 <1>        0.000
     12 H          -5.2090   -0.2365    0.5144 H.spc      1 <1>        0.000
     13 H          -1.9445    2.8259   -0.3147 H.spc      1 <1>        0.000
     14 H           0.3606    3.1303   -0.8384 H.spc      1 <1>        0.000
@<TRIPOS>BOND
     1    1    2 ar 
     2    1    3 ar 
     3    2    4 ar 
     4    2    5 1  
     5    3    6 ar 
     6    4    7 ar 
     7    6    8 1  
     8    6    7 ar 
     9    1    9 1  
    10    3   10 1  
    11    4   11 1  
    12    5   12 1  
    13    7   13 1  
    14    8   14 1  
# Name:          frag5-550-180/138278 -- energy: -0.385474
# Creation time: Sat Jun  5 12:53:43 2010


@<TRIPOS>MOLECULE
frag5-550-180/138278 -- energy: -0.385474
   14    14     1     1     1
SMALL
USER_CHARGES


@<TRIPOS>ATOM
      1 C2         -2.1384   -1.0388   -0.0362 C.ar       1 <1>        0.000
      2 C6         -3.3165   -0.2668    0.1459 C.ar       1 <1>        0.000
      3 C7         -0.9496   -0.4551   -0.3169 C.ar       1 <1>        0.000
      4 C8         -3.2033    1.1482    0.0428 C.ar       1 <1>        0.000
      5 O1         -4.5177   -0.8960    0.4205 O.3        1 <1>        0.000
      6 C9         -0.8448    0.9459   -0.4570 C.ar       1 <1>        0.000
      7 C11        -2.0089    1.7400   -0.2456 C.ar       1 <1>        0.000
      8 S1          0.6314    1.8302   -0.7659 S.3        1 <1>        0.000
      9 H          -2.1925   -2.1239    0.0519 H.spc      1 <1>        0.000
     10 H          -0.0612   -1.0752   -0.4364 H.spc      1 <1>        0.000
     11 H          -4.0858    1.7692    0.1969 H.spc      1 <1>        0.000
     12 H          -5.2090   -0.2365    0.5144 H.spc      1 <1>        0.000
     13 H          -1.9445    2.8259   -0.3147 H.spc      1 <1>        0.000
     14 H           0.3606    3.1303   -0.8384 H.spc      1 <1>        0.000
@<TRIPOS>BOND
     1    1    2 ar 
     2    1    3 ar 
     3    2    4 ar 
     4    2    5 1  
     5    3    6 ar 
     6    4    7 ar 
     7    6    8 1  
     8    6    7 ar 
     9    1    9 1  
    10    3   10 1  
    11    4   11 1  
    12    5   12 1  
    13    7   13 1  
    14    8   14 1  
