#      Rotatable Fragment
#      Build by yxyuan
#
# Name:          frag2-074-4/319335
# Creation time: Sat Jun  5 12:51:57 2010


@<TRIPOS>MOLECULE
frag2-074-4/319335
   22    24     1     1     1
SMALL
USER_CHARGES


@<TRIPOS>ATOM
      1 C1         -1.2159   -0.0118   -0.0669 C.ar       1 <1>        0.000
      2 C2          0.0012   -0.7061   -0.1076 C.ar       1 <1>        0.000
      3 C3         -1.2221    1.3873   -0.1313 C.ar       1 <1>        0.000
      4 C4         -2.4181   -0.7225    0.0421 C.ar       1 <1>        0.000
      5 C5          1.2017    0.0062   -0.2168 C.ar       1 <1>        0.000
      6 C6          0.0053   -2.1048   -0.0339 C.ar       1 <1>        0.000
      7 C7         -0.0212    2.0949   -0.2262 C.ar       1 <1>        0.000
      8 C8         -2.4083   -2.1176    0.1254 C.ar       1 <1>        0.000
      9 C9          1.1921    1.4046   -0.2532 C.ar       1 <1>        0.000
     10 N1          2.3835   -0.6421   -0.2829 N.ar       1 <1>        0.000
     11 C10        -1.1954   -2.8088    0.0917 C.ar       1 <1>        0.000
     12 N2          2.3563    2.0840   -0.3105 N.ar       1 <1>        0.000
     13 C11         3.5488    0.0343   -0.3236 C.ar       1 <1>        0.000
     14 C12         3.5358    1.4312   -0.3154 C.ar       1 <1>        0.000
     15 H          -2.1688    1.9269   -0.1073 H.spc      1 <1>        0.000
     16 H          -3.3660   -0.1848    0.0621 H.spc      1 <1>        0.000
     17 H           0.9500   -2.6471   -0.0747 H.spc      1 <1>        0.000
     18 H          -0.0315    3.1836   -0.2790 H.spc      1 <1>        0.000
     19 H          -3.3462   -2.6654    0.2166 H.spc      1 <1>        0.000
     20 H          -1.1852   -3.8964    0.1633 H.spc      1 <1>        0.000
     21 H           4.4951   -0.5052   -0.3627 H.spc      1 <1>        0.000
     22 H           4.4722    1.9891   -0.3130 H.spc      1 <1>        0.000
@<TRIPOS>BOND
     1    1    4 ar 
     2   10   13 ar 
     3    9   12 ar 
     4    5   10 ar 
     5    5    9 ar 
     6   13   14 ar 
     7    6   11 ar 
     8   12   14 ar 
     9    8   11 ar 
    10    2    5 ar 
    11    3    7 ar 
    12    4    8 ar 
    13    2    6 ar 
    14    1    2 ar 
    15    1    3 ar 
    16    7    9 ar 
    17    3   15 1  
    18    4   16 1  
    19    6   17 1  
    20    7   18 1  
    21    8   19 1  
    22   11   20 1  
    23   13   21 1  
    24   14   22 1  
# Name:          frag2-074-4/319335 -- energy: -0.334952
# Creation time: Sat Jun  5 12:51:57 2010


@<TRIPOS>MOLECULE
frag2-074-4/319335 -- energy: -0.334952
   22    24     1     1     1
SMALL
USER_CHARGES


@<TRIPOS>ATOM
      1 C1         -1.2159   -0.0118   -0.0669 C.ar       1 <1>        0.000
      2 C2          0.0012   -0.7061   -0.1076 C.ar       1 <1>        0.000
      3 C3         -1.2221    1.3873   -0.1313 C.ar       1 <1>        0.000
      4 C4         -2.4181   -0.7225    0.0421 C.ar       1 <1>        0.000
      5 C5          1.2017    0.0062   -0.2168 C.ar       1 <1>        0.000
      6 C6          0.0053   -2.1048   -0.0339 C.ar       1 <1>        0.000
      7 C7         -0.0212    2.0949   -0.2262 C.ar       1 <1>        0.000
      8 C8         -2.4083   -2.1176    0.1254 C.ar       1 <1>        0.000
      9 C9          1.1921    1.4046   -0.2532 C.ar       1 <1>        0.000
     10 N1          2.3835   -0.6421   -0.2829 N.ar       1 <1>        0.000
     11 C10        -1.1954   -2.8088    0.0917 C.ar       1 <1>        0.000
     12 N2          2.3563    2.0840   -0.3105 N.ar       1 <1>        0.000
     13 C11         3.5488    0.0343   -0.3236 C.ar       1 <1>        0.000
     14 C12         3.5358    1.4312   -0.3154 C.ar       1 <1>        0.000
     15 H          -2.1688    1.9269   -0.1073 H.spc      1 <1>        0.000
     16 H          -3.3660   -0.1848    0.0621 H.spc      1 <1>        0.000
     17 H           0.9500   -2.6471   -0.0747 H.spc      1 <1>        0.000
     18 H          -0.0315    3.1836   -0.2790 H.spc      1 <1>        0.000
     19 H          -3.3462   -2.6654    0.2166 H.spc      1 <1>        0.000
     20 H          -1.1852   -3.8964    0.1633 H.spc      1 <1>        0.000
     21 H           4.4951   -0.5052   -0.3627 H.spc      1 <1>        0.000
     22 H           4.4722    1.9891   -0.3130 H.spc      1 <1>        0.000
@<TRIPOS>BOND
     1    1    4 ar 
     2   10   13 ar 
     3    9   12 ar 
     4    5   10 ar 
     5    5    9 ar 
     6   13   14 ar 
     7    6   11 ar 
     8   12   14 ar 
     9    8   11 ar 
    10    2    5 ar 
    11    3    7 ar 
    12    4    8 ar 
    13    2    6 ar 
    14    1    2 ar 
    15    1    3 ar 
    16    7    9 ar 
    17    3   15 1  
    18    4   16 1  
    19    6   17 1  
    20    7   18 1  
    21    8   19 1  
    22   11   20 1  
    23   13   21 1  
    24   14   22 1  
