#      Rotatable Fragment
#      Build by yxyuan
#
# Name:          frag4-353-121/48856
# Creation time: Sat Jun  5 12:53:08 2010


@<TRIPOS>MOLECULE
frag4-353-121/48856
   43    46     1     1     1
SMALL
USER_CHARGES


@<TRIPOS>ATOM
      1 C1          5.7190   -2.9324   -1.5314 C.3        1 <1>        0.000
      2 C2          4.4175   -3.5874   -2.0310 C.3        1 <1>        0.000
      3 C3          3.2491   -2.5869   -1.9299 C.3        1 <1>        0.000
      4 C4          3.0369   -2.0638   -0.4828 C.3        1 <1>        0.000
      5 C5          1.8715   -1.0320   -0.4129 C.3        1 <1>        0.000
      6 C6          1.9755   -0.1948    0.8905 C.3        1 <1>        0.000
      7 C7          0.7872    0.7888    0.9949 C.3        1 <1>        0.000
      8 C19         3.3181    0.5665    0.9166 C.3        1 <1>        0.000
      9 C8         -0.5537    0.0385    0.9511 C.3        1 <1>        0.000
     10 C9         -1.5575    1.1657    1.2452 C.3        1 <1>        0.000
     11 C10        -0.8505    2.0033    2.3406 C.3        1 <1>        0.000
     12 C11         0.6499    1.6093    2.2919 C.3        1 <1>        0.000
     13 C16        -0.6968   -0.7032   -0.3898 C.3        1 <1>        0.000
     14 C17         0.4707   -1.7039   -0.5400 C.3        1 <1>        0.000
     15 C20         4.4731   -0.3575    0.6814 C.2        1 <1>        0.000
     16 C21         4.3559   -1.5507    0.0745 C.2        1 <1>        0.000
     17 C22         5.5474   -2.4672   -0.0728 C.3        1 <1>        0.000
     18 H           5.9509   -2.0711   -2.1579 H.spc      1 <1>        0.000
     19 H           6.5296   -3.6593   -1.5833 H.spc      1 <1>        0.000
     20 H           4.1964   -4.4594   -1.4155 H.spc      1 <1>        0.000
     21 H           4.5437   -3.8864   -3.0716 H.spc      1 <1>        0.000
     22 H           3.4822   -1.7325   -2.5654 H.spc      1 <1>        0.000
     23 H           2.3388   -3.1009   -2.2384 H.spc      1 <1>        0.000
     24 H           2.7203   -2.8842    0.1613 H.spc      1 <1>        0.000
     25 H           1.9721   -0.3661   -1.2700 H.spc      1 <1>        0.000
     26 H           1.9366   -0.8656    1.7488 H.spc      1 <1>        0.000
     27 H           1.0036    1.4529    0.1581 H.spc      1 <1>        0.000
     28 H           3.3071    1.3161    0.1254 H.spc      1 <1>        0.000
     29 H           3.4366    1.0269    1.8974 H.spc      1 <1>        0.000
     30 H          -0.6926   -0.7726    1.6659 H.spc      1 <1>        0.000
     31 H          -1.7967    1.7537    0.3591 H.spc      1 <1>        0.000
     32 H          -2.5271    0.7875    1.5693 H.spc      1 <1>        0.000
     33 H          -0.9810    3.0707    2.1624 H.spc      1 <1>        0.000
     34 H          -1.2765    1.8018    3.3235 H.spc      1 <1>        0.000
     35 H           0.9532    1.0405    3.1709 H.spc      1 <1>        0.000
     36 H           1.3032    2.4818    2.2962 H.spc      1 <1>        0.000
     37 H          -1.6453   -1.2397   -0.4130 H.spc      1 <1>        0.000
     38 H          -0.6733    0.0140   -1.2103 H.spc      1 <1>        0.000
     39 H           0.4036   -2.1446   -1.5347 H.spc      1 <1>        0.000
     40 H           0.3820   -2.4391    0.2598 H.spc      1 <1>        0.000
     41 H           5.4610   -0.0456    1.0204 H.spc      1 <1>        0.000
     42 H           6.4432   -1.9223    0.2252 H.spc      1 <1>        0.000
     43 H           5.3901   -3.3443    0.5549 H.spc      1 <1>        0.000
@<TRIPOS>BOND
     1    1    2 1  
     2    3    4 1  
     3    1   17 1  
     4    2    3 1  
     5   16   17 1  
     6   15   16 2  
     7    8   15 1  
     8   13   14 1  
     9   11   12 1  
    10   10   11 1  
    11    9   13 1  
    12    9   10 1  
    13    7   12 1  
    14    7    9 1  
    15    6    8 1  
    16    6    7 1  
    17    5   14 1  
    18    5    6 1  
    19    4   16 1  
    20    4    5 1  
    21    1   18 1  
    22    1   19 1  
    23    2   20 1  
    24    2   21 1  
    25    3   22 1  
    26    3   23 1  
    27    4   24 1  
    28    5   25 1  
    29    6   26 1  
    30    7   27 1  
    31    8   28 1  
    32    8   29 1  
    33    9   30 1  
    34   10   31 1  
    35   10   32 1  
    36   11   33 1  
    37   11   34 1  
    38   12   35 1  
    39   12   36 1  
    40   13   37 1  
    41   13   38 1  
    42   14   39 1  
    43   14   40 1  
    44   15   41 1  
    45   17   42 1  
    46   17   43 1  
# Name:          frag4-353-121/48856 -- energy: -7.848202
# Creation time: Sat Jun  5 12:53:08 2010


@<TRIPOS>MOLECULE
frag4-353-121/48856 -- energy: -7.848202
   43    46     1     1     1
SMALL
USER_CHARGES


@<TRIPOS>ATOM
      1 C1          5.7190   -2.9324   -1.5314 C.3        1 <1>        0.000
      2 C2          4.4175   -3.5874   -2.0310 C.3        1 <1>        0.000
      3 C3          3.2491   -2.5869   -1.9299 C.3        1 <1>        0.000
      4 C4          3.0369   -2.0638   -0.4828 C.3        1 <1>        0.000
      5 C5          1.8715   -1.0320   -0.4129 C.3        1 <1>        0.000
      6 C6          1.9755   -0.1948    0.8905 C.3        1 <1>        0.000
      7 C7          0.7872    0.7888    0.9949 C.3        1 <1>        0.000
      8 C19         3.3181    0.5665    0.9166 C.3        1 <1>        0.000
      9 C8         -0.5537    0.0385    0.9511 C.3        1 <1>        0.000
     10 C9         -1.5575    1.1657    1.2452 C.3        1 <1>        0.000
     11 C10        -0.8505    2.0033    2.3406 C.3        1 <1>        0.000
     12 C11         0.6499    1.6093    2.2919 C.3        1 <1>        0.000
     13 C16        -0.6968   -0.7032   -0.3898 C.3        1 <1>        0.000
     14 C17         0.4707   -1.7039   -0.5400 C.3        1 <1>        0.000
     15 C20         4.4731   -0.3575    0.6814 C.2        1 <1>        0.000
     16 C21         4.3559   -1.5507    0.0745 C.2        1 <1>        0.000
     17 C22         5.5474   -2.4672   -0.0728 C.3        1 <1>        0.000
     18 H           5.9509   -2.0711   -2.1579 H.spc      1 <1>        0.000
     19 H           6.5296   -3.6593   -1.5833 H.spc      1 <1>        0.000
     20 H           4.1964   -4.4594   -1.4155 H.spc      1 <1>        0.000
     21 H           4.5437   -3.8864   -3.0716 H.spc      1 <1>        0.000
     22 H           3.4822   -1.7325   -2.5654 H.spc      1 <1>        0.000
     23 H           2.3388   -3.1009   -2.2384 H.spc      1 <1>        0.000
     24 H           2.7203   -2.8842    0.1613 H.spc      1 <1>        0.000
     25 H           1.9721   -0.3661   -1.2700 H.spc      1 <1>        0.000
     26 H           1.9366   -0.8656    1.7488 H.spc      1 <1>        0.000
     27 H           1.0036    1.4529    0.1581 H.spc      1 <1>        0.000
     28 H           3.3071    1.3161    0.1254 H.spc      1 <1>        0.000
     29 H           3.4366    1.0269    1.8974 H.spc      1 <1>        0.000
     30 H          -0.6926   -0.7726    1.6659 H.spc      1 <1>        0.000
     31 H          -1.7967    1.7537    0.3591 H.spc      1 <1>        0.000
     32 H          -2.5271    0.7875    1.5693 H.spc      1 <1>        0.000
     33 H          -0.9810    3.0707    2.1624 H.spc      1 <1>        0.000
     34 H          -1.2765    1.8018    3.3235 H.spc      1 <1>        0.000
     35 H           0.9532    1.0405    3.1709 H.spc      1 <1>        0.000
     36 H           1.3032    2.4818    2.2962 H.spc      1 <1>        0.000
     37 H          -1.6453   -1.2397   -0.4130 H.spc      1 <1>        0.000
     38 H          -0.6733    0.0140   -1.2103 H.spc      1 <1>        0.000
     39 H           0.4036   -2.1446   -1.5347 H.spc      1 <1>        0.000
     40 H           0.3820   -2.4391    0.2598 H.spc      1 <1>        0.000
     41 H           5.4610   -0.0456    1.0204 H.spc      1 <1>        0.000
     42 H           6.4432   -1.9223    0.2252 H.spc      1 <1>        0.000
     43 H           5.3901   -3.3443    0.5549 H.spc      1 <1>        0.000
@<TRIPOS>BOND
     1    1    2 1  
     2    3    4 1  
     3    1   17 1  
     4    2    3 1  
     5   16   17 1  
     6   15   16 2  
     7    8   15 1  
     8   13   14 1  
     9   11   12 1  
    10   10   11 1  
    11    9   13 1  
    12    9   10 1  
    13    7   12 1  
    14    7    9 1  
    15    6    8 1  
    16    6    7 1  
    17    5   14 1  
    18    5    6 1  
    19    4   16 1  
    20    4    5 1  
    21    1   18 1  
    22    1   19 1  
    23    2   20 1  
    24    2   21 1  
    25    3   22 1  
    26    3   23 1  
    27    4   24 1  
    28    5   25 1  
    29    6   26 1  
    30    7   27 1  
    31    8   28 1  
    32    8   29 1  
    33    9   30 1  
    34   10   31 1  
    35   10   32 1  
    36   11   33 1  
    37   11   34 1  
    38   12   35 1  
    39   12   36 1  
    40   13   37 1  
    41   13   38 1  
    42   14   39 1  
    43   14   40 1  
    44   15   41 1  
    45   17   42 1  
    46   17   43 1  
