#      Rotatable Fragment
#      Build by yxyuan
#
# Name:          frag3-130-34/31924
# Creation time: Sat Jun  5 12:52:03 2010


@<TRIPOS>MOLECULE
frag3-130-34/31924
    6     5     1     1     1
SMALL
USER_CHARGES


@<TRIPOS>ATOM
      1 N1         -3.7681   -2.5569    2.1150 N.4        1 <1>        0.000
      2 O1         -4.3284   -3.4910    1.2052 O.3        1 <1>        0.000
      3 H          -4.5171   -2.0275    2.5613 H.spc      1 <1>        0.000
      4 H          -3.2325   -3.0555    2.8256 H.spc      1 <1>        0.000
      5 H          -3.1534   -1.9187    1.6097 H.spc      1 <1>        0.000
      6 H          -3.6235   -3.9892    0.7852 H.spc      1 <1>        0.000
@<TRIPOS>BOND
     1    1    2 1  
     2    1    3 1  
     3    1    4 1  
     4    1    5 1  
     5    2    6 1  
# Name:          frag3-130-34/31924 -- energy: -0.049793
# Creation time: Sat Jun  5 12:52:03 2010


@<TRIPOS>MOLECULE
frag3-130-34/31924 -- energy: -0.049793
    6     5     1     1     1
SMALL
USER_CHARGES


@<TRIPOS>ATOM
      1 N1         -3.7681   -2.5569    2.1150 N.4        1 <1>        0.000
      2 O1         -4.3284   -3.4910    1.2052 O.3        1 <1>        0.000
      3 H          -4.5171   -2.0275    2.5613 H.spc      1 <1>        0.000
      4 H          -3.2325   -3.0555    2.8256 H.spc      1 <1>        0.000
      5 H          -3.1534   -1.9187    1.6097 H.spc      1 <1>        0.000
      6 H          -3.6235   -3.9892    0.7852 H.spc      1 <1>        0.000
@<TRIPOS>BOND
     1    1    2 1  
     2    1    3 1  
     3    1    4 1  
     4    1    5 1  
     5    2    6 1  
