#      Rotatable Fragment
#      Build by yxyuan
#
# Name:          frag2-053-45/319335
# Creation time: Sat Jun  5 12:53:42 2010


@<TRIPOS>MOLECULE
frag2-053-45/319335
   16    17     1     1     1
SMALL
USER_CHARGES


@<TRIPOS>ATOM
      1 C1          1.3797   -1.2146   -0.0308 C.ar       1 <1>        0.000
      2 C2          0.0896   -0.6931   -0.0101 C.ar       1 <1>        0.000
      3 C3          2.4706   -0.3526   -0.0306 C.ar       1 <1>        0.000
      4 C4         -0.0896    0.6898    0.0092 C.ar       1 <1>        0.000
      5 N2         -0.9908   -1.5070   -0.0091 N.ar       1 <1>        0.000
      6 C5          2.2546    1.0191   -0.0098 C.ar       1 <1>        0.000
      7 N3          0.9919    1.5055    0.0086 N.ar       1 <1>        0.000
      8 C8         -1.3804    1.2130    0.0294 C.ar       1 <1>        0.000
      9 C9         -2.2554   -1.0183    0.0112 C.ar       1 <1>        0.000
     10 C11        -2.4701    0.3541    0.0307 C.ar       1 <1>        0.000
     11 H           1.5341   -2.2935   -0.0471 H.spc      1 <1>        0.000
     12 H           3.4856   -0.7496   -0.0466 H.spc      1 <1>        0.000
     13 H           3.1024    1.7042   -0.0083 H.spc      1 <1>        0.000
     14 H          -1.5337    2.2921    0.0441 H.spc      1 <1>        0.000
     15 H          -3.1039   -1.7025    0.0122 H.spc      1 <1>        0.000
     16 H          -3.4847    0.7522    0.0469 H.spc      1 <1>        0.000
@<TRIPOS>BOND
     1    8   10 ar 
     2    9   10 ar 
     3    1    2 ar 
     4    1    3 ar 
     5    2    4 ar 
     6    2    5 ar 
     7    3    6 ar 
     8    4    7 ar 
     9    4    8 ar 
    10    5    9 ar 
    11    6    7 ar 
    12    1   11 1  
    13    3   12 1  
    14    6   13 1  
    15    8   14 1  
    16    9   15 1  
    17   10   16 1  
# Name:          frag2-053-45/319335 -- energy: 0.126654
# Creation time: Sat Jun  5 12:53:42 2010


@<TRIPOS>MOLECULE
frag2-053-45/319335 -- energy: 0.126654
   16    17     1     1     1
SMALL
USER_CHARGES


@<TRIPOS>ATOM
      1 C1          1.3797   -1.2146   -0.0308 C.ar       1 <1>        0.000
      2 C2          0.0896   -0.6931   -0.0101 C.ar       1 <1>        0.000
      3 C3          2.4706   -0.3526   -0.0306 C.ar       1 <1>        0.000
      4 C4         -0.0896    0.6898    0.0092 C.ar       1 <1>        0.000
      5 N2         -0.9908   -1.5070   -0.0091 N.ar       1 <1>        0.000
      6 C5          2.2546    1.0191   -0.0098 C.ar       1 <1>        0.000
      7 N3          0.9919    1.5055    0.0086 N.ar       1 <1>        0.000
      8 C8         -1.3804    1.2130    0.0294 C.ar       1 <1>        0.000
      9 C9         -2.2554   -1.0183    0.0112 C.ar       1 <1>        0.000
     10 C11        -2.4701    0.3541    0.0307 C.ar       1 <1>        0.000
     11 H           1.5341   -2.2935   -0.0471 H.spc      1 <1>        0.000
     12 H           3.4856   -0.7496   -0.0466 H.spc      1 <1>        0.000
     13 H           3.1024    1.7042   -0.0083 H.spc      1 <1>        0.000
     14 H          -1.5337    2.2921    0.0441 H.spc      1 <1>        0.000
     15 H          -3.1039   -1.7025    0.0122 H.spc      1 <1>        0.000
     16 H          -3.4847    0.7522    0.0469 H.spc      1 <1>        0.000
@<TRIPOS>BOND
     1    8   10 ar 
     2    9   10 ar 
     3    1    2 ar 
     4    1    3 ar 
     5    2    4 ar 
     6    2    5 ar 
     7    3    6 ar 
     8    4    7 ar 
     9    4    8 ar 
    10    5    9 ar 
    11    6    7 ar 
    12    1   11 1  
    13    3   12 1  
    14    6   13 1  
    15    8   14 1  
    16    9   15 1  
    17   10   16 1  
