#      Rotatable Fragment
#      Build by yxyuan
#
# Name:          frag4-355-113/48856
# Creation time: Sat Jun  5 12:53:09 2010


@<TRIPOS>MOLECULE
frag4-355-113/48856
    8     8     1     1     1
SMALL
USER_CHARGES


@<TRIPOS>ATOM
      1 C13        -0.6741    0.6886    0.1612 C.ar       1 <1>        0.000
      2 N2          0.6659    0.9980    0.1946 N.ar       1 <1>        0.000
      3 C14         1.3092   -0.1178   -0.0723 C.ar       1 <1>        0.000
      4 O4          0.4159   -1.0699   -0.4528 O.3        1 <1>        0.000
      5 C15        -0.8207   -0.5650   -0.2084 C.ar       1 <1>        0.000
      6 H          -1.4862    1.3743    0.4029 H.spc      1 <1>        0.000
      7 H           2.3878   -0.2573    0.0001 H.spc      1 <1>        0.000
      8 H          -1.7647   -1.1019   -0.3017 H.spc      1 <1>        0.000
@<TRIPOS>BOND
     1    1    2 ar 
     2    1    5 ar 
     3    2    3 ar 
     4    3    4 ar 
     5    4    5 ar 
     6    1    6 1  
     7    3    7 1  
     8    5    8 1  
# Name:          frag4-355-113/48856 -- energy: -0.168498
# Creation time: Sat Jun  5 12:53:09 2010


@<TRIPOS>MOLECULE
frag4-355-113/48856 -- energy: -0.168498
    8     8     1     1     1
SMALL
USER_CHARGES


@<TRIPOS>ATOM
      1 C13        -0.6741    0.6886    0.1612 C.ar       1 <1>        0.000
      2 N2          0.6659    0.9980    0.1946 N.ar       1 <1>        0.000
      3 C14         1.3092   -0.1178   -0.0723 C.ar       1 <1>        0.000
      4 O4          0.4159   -1.0699   -0.4528 O.3        1 <1>        0.000
      5 C15        -0.8207   -0.5650   -0.2084 C.ar       1 <1>        0.000
      6 H          -1.4862    1.3743    0.4029 H.spc      1 <1>        0.000
      7 H           2.3878   -0.2573    0.0001 H.spc      1 <1>        0.000
      8 H          -1.7647   -1.1019   -0.3017 H.spc      1 <1>        0.000
@<TRIPOS>BOND
     1    1    2 ar 
     2    1    5 ar 
     3    2    3 ar 
     4    3    4 ar 
     5    4    5 ar 
     6    1    6 1  
     7    3    7 1  
     8    5    8 1  
