#      Rotatable Fragment
#      Build by yxyuan
#
# Name:          frag4-403-197/150395
# Creation time: Sat Jun  5 12:53:34 2010


@<TRIPOS>MOLECULE
frag4-403-197/150395
   39    42     1     1     1
SMALL
USER_CHARGES


@<TRIPOS>ATOM
      1 C1          0.4435   -0.4470    0.3332 C.3        1 <1>        0.000
      2 C2          1.4385    0.2795   -0.6242 C.3        1 <1>        0.000
      3 C3         -0.9329    0.3020    0.5374 C.3        1 <1>        0.000
      4 C4          0.2462   -1.9031   -0.1586 C.3        1 <1>        0.000
      5 C5          1.6595    1.7692   -0.2431 C.3        1 <1>        0.000
      6 C6          2.8634   -0.3536   -0.5929 C.3        1 <1>        0.000
      7 C7         -2.1867   -0.5211    0.1675 C.ar       1 <1>        0.000
      8 C8         -0.8704    1.7469   -0.0338 C.3        1 <1>        0.000
      9 C9         -0.8400   -2.5996    0.6652 C.3        1 <1>        0.000
     10 C10         2.9418    1.7246    0.6113 C.3        1 <1>        0.000
     11 C11         0.4299    2.4405    0.4170 C.3        1 <1>        0.000
     12 C13         3.8351    0.7673   -0.1890 C.3        1 <1>        0.000
     13 C14        -2.1387   -1.9351    0.2624 C.ar       1 <1>        0.000
     14 C15        -3.3963    0.0507   -0.2540 C.ar       1 <1>        0.000
     15 C17        -3.2581   -2.7130   -0.0511 C.ar       1 <1>        0.000
     16 C18        -4.5214   -0.7290   -0.5292 C.ar       1 <1>        0.000
     17 C20        -4.4531   -2.1175   -0.4309 C.ar       1 <1>        0.000
     18 H           0.8906   -0.4469    1.3273 H.spc      1 <1>        0.000
     19 H           0.9721    0.1821   -1.6045 H.spc      1 <1>        0.000
     20 H          -1.0782    0.4152    1.6117 H.spc      1 <1>        0.000
     21 H           1.1836   -2.4474   -0.0441 H.spc      1 <1>        0.000
     22 H          -0.0566   -1.8871   -1.2056 H.spc      1 <1>        0.000
     23 H           1.7823    2.4213   -1.1078 H.spc      1 <1>        0.000
     24 H           2.9062   -1.1797    0.1169 H.spc      1 <1>        0.000
     25 H           3.1276   -0.7647   -1.5672 H.spc      1 <1>        0.000
     26 H          -1.7245    2.3143    0.3358 H.spc      1 <1>        0.000
     27 H          -0.8921    1.7018   -1.1226 H.spc      1 <1>        0.000
     28 H          -0.6554   -2.5016    1.7350 H.spc      1 <1>        0.000
     29 H          -0.8626   -3.6721    0.4721 H.spc      1 <1>        0.000
     30 H           2.7643    1.3915    1.6339 H.spc      1 <1>        0.000
     31 H           3.3915    2.7061    0.7613 H.spc      1 <1>        0.000
     32 H           0.3948    3.4879    0.1174 H.spc      1 <1>        0.000
     33 H           0.5192    2.3561    1.5001 H.spc      1 <1>        0.000
     34 H           4.3075    1.2468   -1.0463 H.spc      1 <1>        0.000
     35 H           4.6861    0.4025    0.3862 H.spc      1 <1>        0.000
     36 H          -3.4596    1.1327   -0.3698 H.spc      1 <1>        0.000
     37 H          -3.1913   -3.7996    0.0035 H.spc      1 <1>        0.000
     38 H          -5.4559   -0.2503   -0.8218 H.spc      1 <1>        0.000
     39 H          -5.3284   -2.7291   -0.6498 H.spc      1 <1>        0.000
@<TRIPOS>BOND
     1    5   11 1  
     2    5   10 1  
     3    3    8 1  
     4    1    4 1  
     5    4    9 1  
     6    1    3 1  
     7    6   12 1  
     8    2    6 1  
     9    1    2 1  
    10    7   13 ar 
    11    2    5 1  
    12    3    7 1  
    13   16   17 ar 
    14   15   17 ar 
    15   14   16 ar 
    16   13   15 ar 
    17   10   12 1  
    18    9   13 1  
    19    8   11 1  
    20    7   14 ar 
    21    1   18 1  
    22    2   19 1  
    23    3   20 1  
    24    4   21 1  
    25    4   22 1  
    26    5   23 1  
    27    6   24 1  
    28    6   25 1  
    29    8   26 1  
    30    8   27 1  
    31    9   28 1  
    32    9   29 1  
    33   10   30 1  
    34   10   31 1  
    35   11   32 1  
    36   11   33 1  
    37   12   34 1  
    38   12   35 1  
    39   14   36 1  
    40   15   37 1  
    41   16   38 1  
    42   17   39 1  
# Name:          frag4-403-197/150395 -- energy: -5.978789
# Creation time: Sat Jun  5 12:53:34 2010


@<TRIPOS>MOLECULE
frag4-403-197/150395 -- energy: -5.978789
   39    42     1     1     1
SMALL
USER_CHARGES


@<TRIPOS>ATOM
      1 C1          0.4435   -0.4470    0.3332 C.3        1 <1>        0.000
      2 C2          1.4385    0.2795   -0.6242 C.3        1 <1>        0.000
      3 C3         -0.9329    0.3020    0.5374 C.3        1 <1>        0.000
      4 C4          0.2462   -1.9031   -0.1586 C.3        1 <1>        0.000
      5 C5          1.6595    1.7692   -0.2431 C.3        1 <1>        0.000
      6 C6          2.8634   -0.3536   -0.5929 C.3        1 <1>        0.000
      7 C7         -2.1867   -0.5211    0.1675 C.ar       1 <1>        0.000
      8 C8         -0.8704    1.7469   -0.0338 C.3        1 <1>        0.000
      9 C9         -0.8400   -2.5996    0.6652 C.3        1 <1>        0.000
     10 C10         2.9418    1.7246    0.6113 C.3        1 <1>        0.000
     11 C11         0.4299    2.4405    0.4170 C.3        1 <1>        0.000
     12 C13         3.8351    0.7673   -0.1890 C.3        1 <1>        0.000
     13 C14        -2.1387   -1.9351    0.2624 C.ar       1 <1>        0.000
     14 C15        -3.3963    0.0507   -0.2540 C.ar       1 <1>        0.000
     15 C17        -3.2581   -2.7130   -0.0511 C.ar       1 <1>        0.000
     16 C18        -4.5214   -0.7290   -0.5292 C.ar       1 <1>        0.000
     17 C20        -4.4531   -2.1175   -0.4309 C.ar       1 <1>        0.000
     18 H           0.8906   -0.4469    1.3273 H.spc      1 <1>        0.000
     19 H           0.9721    0.1821   -1.6045 H.spc      1 <1>        0.000
     20 H          -1.0782    0.4152    1.6117 H.spc      1 <1>        0.000
     21 H           1.1836   -2.4474   -0.0441 H.spc      1 <1>        0.000
     22 H          -0.0566   -1.8871   -1.2056 H.spc      1 <1>        0.000
     23 H           1.7823    2.4213   -1.1078 H.spc      1 <1>        0.000
     24 H           2.9062   -1.1797    0.1169 H.spc      1 <1>        0.000
     25 H           3.1276   -0.7647   -1.5672 H.spc      1 <1>        0.000
     26 H          -1.7245    2.3143    0.3358 H.spc      1 <1>        0.000
     27 H          -0.8921    1.7018   -1.1226 H.spc      1 <1>        0.000
     28 H          -0.6554   -2.5016    1.7350 H.spc      1 <1>        0.000
     29 H          -0.8626   -3.6721    0.4721 H.spc      1 <1>        0.000
     30 H           2.7643    1.3915    1.6339 H.spc      1 <1>        0.000
     31 H           3.3915    2.7061    0.7613 H.spc      1 <1>        0.000
     32 H           0.3948    3.4879    0.1174 H.spc      1 <1>        0.000
     33 H           0.5192    2.3561    1.5001 H.spc      1 <1>        0.000
     34 H           4.3075    1.2468   -1.0463 H.spc      1 <1>        0.000
     35 H           4.6861    0.4025    0.3862 H.spc      1 <1>        0.000
     36 H          -3.4596    1.1327   -0.3698 H.spc      1 <1>        0.000
     37 H          -3.1913   -3.7996    0.0035 H.spc      1 <1>        0.000
     38 H          -5.4559   -0.2503   -0.8218 H.spc      1 <1>        0.000
     39 H          -5.3284   -2.7291   -0.6498 H.spc      1 <1>        0.000
@<TRIPOS>BOND
     1    5   11 1  
     2    5   10 1  
     3    3    8 1  
     4    1    4 1  
     5    4    9 1  
     6    1    3 1  
     7    6   12 1  
     8    2    6 1  
     9    1    2 1  
    10    7   13 ar 
    11    2    5 1  
    12    3    7 1  
    13   16   17 ar 
    14   15   17 ar 
    15   14   16 ar 
    16   13   15 ar 
    17   10   12 1  
    18    9   13 1  
    19    8   11 1  
    20    7   14 ar 
    21    1   18 1  
    22    2   19 1  
    23    3   20 1  
    24    4   21 1  
    25    4   22 1  
    26    5   23 1  
    27    6   24 1  
    28    6   25 1  
    29    8   26 1  
    30    8   27 1  
    31    9   28 1  
    32    9   29 1  
    33   10   30 1  
    34   10   31 1  
    35   11   32 1  
    36   11   33 1  
    37   12   34 1  
    38   12   35 1  
    39   14   36 1  
    40   15   37 1  
    41   16   38 1  
    42   17   39 1  
