#      Rotatable Fragment
#      Build by yxyuan
#
# Name:          frag4-328-217/48856
# Creation time: Sat Jun  5 12:52:49 2010


@<TRIPOS>MOLECULE
frag4-328-217/48856
   17    18     1     1     1
SMALL
USER_CHARGES


@<TRIPOS>ATOM
      1 S1          2.0121    1.4908    1.4240 S.3        1 <1>        0.000
      2 C1          3.1180    2.9302    1.6614 C.3        1 <1>        0.000
      3 C2          4.0253    3.1075    0.4627 C.2        1 <1>        0.000
      4 C3          3.7092    2.6856   -0.7703 C.2        1 <1>        0.000
      5 N1          2.5338    2.1792   -1.0189 N.pl3      1 <1>        0.000
      6 C4          1.3991    2.1423   -0.1433 C.3        1 <1>        0.000
      7 C5          0.8511    1.2645   -1.3166 C.3        1 <1>        0.000
      8 C6          2.1291    1.5610   -2.0756 C.3        1 <1>        0.000
      9 H           3.7310    2.7627    2.5470 H.spc      1 <1>        0.000
     10 H           2.5101    3.8271    1.7803 H.spc      1 <1>        0.000
     11 H           4.9847    3.6035    0.6093 H.spc      1 <1>        0.000
     12 H           4.4423    2.7669   -1.5728 H.spc      1 <1>        0.000
     13 H           0.7376    2.9017    0.2737 H.spc      1 <1>        0.000
     14 H          -0.1242    1.4657   -1.7597 H.spc      1 <1>        0.000
     15 H           0.5255    0.2385   -1.1451 H.spc      1 <1>        0.000
     16 H           2.1167    2.0437   -3.0528 H.spc      1 <1>        0.000
     17 H           2.7185    0.7689   -2.5375 H.spc      1 <1>        0.000
@<TRIPOS>BOND
     1    6    7 1  
     2    7    8 1  
     3    1    2 1  
     4    1    6 1  
     5    2    3 1  
     6    3    4 2  
     7    4    5 1  
     8    5    6 1  
     9    5    8 1  
    10    2    9 1  
    11    2   10 1  
    12    3   11 1  
    13    4   12 1  
    14    6   13 1  
    15    7   14 1  
    16    7   15 1  
    17    8   16 1  
    18    8   17 1  
# Name:          frag4-328-217/48856 -- energy: -1.290214
# Creation time: Sat Jun  5 12:52:49 2010


@<TRIPOS>MOLECULE
frag4-328-217/48856 -- energy: -1.290214
   17    18     1     1     1
SMALL
USER_CHARGES


@<TRIPOS>ATOM
      1 S1          2.0121    1.4908    1.4240 S.3        1 <1>        0.000
      2 C1          3.1180    2.9302    1.6614 C.3        1 <1>        0.000
      3 C2          4.0253    3.1075    0.4627 C.2        1 <1>        0.000
      4 C3          3.7092    2.6856   -0.7703 C.2        1 <1>        0.000
      5 N1          2.5338    2.1792   -1.0189 N.pl3      1 <1>        0.000
      6 C4          1.3991    2.1423   -0.1433 C.3        1 <1>        0.000
      7 C5          0.8511    1.2645   -1.3166 C.3        1 <1>        0.000
      8 C6          2.1291    1.5610   -2.0756 C.3        1 <1>        0.000
      9 H           3.7310    2.7627    2.5470 H.spc      1 <1>        0.000
     10 H           2.5101    3.8271    1.7803 H.spc      1 <1>        0.000
     11 H           4.9847    3.6035    0.6093 H.spc      1 <1>        0.000
     12 H           4.4423    2.7669   -1.5728 H.spc      1 <1>        0.000
     13 H           0.7376    2.9017    0.2737 H.spc      1 <1>        0.000
     14 H          -0.1242    1.4657   -1.7597 H.spc      1 <1>        0.000
     15 H           0.5255    0.2385   -1.1451 H.spc      1 <1>        0.000
     16 H           2.1167    2.0437   -3.0528 H.spc      1 <1>        0.000
     17 H           2.7185    0.7689   -2.5375 H.spc      1 <1>        0.000
@<TRIPOS>BOND
     1    6    7 1  
     2    7    8 1  
     3    1    2 1  
     4    1    6 1  
     5    2    3 1  
     6    3    4 2  
     7    4    5 1  
     8    5    6 1  
     9    5    8 1  
    10    2    9 1  
    11    2   10 1  
    12    3   11 1  
    13    4   12 1  
    14    6   13 1  
    15    7   14 1  
    16    7   15 1  
    17    8   16 1  
    18    8   17 1  
