#      Rotatable Fragment
#      Build by yxyuan
#
# Name:          frag3-212-4/31924
# Creation time: Sat Jun  5 12:52:21 2010


@<TRIPOS>MOLECULE
frag3-212-4/31924
    7     6     1     1     1
SMALL
USER_CHARGES


@<TRIPOS>ATOM
      1 S1         -2.4463   -3.5958   -1.8312 S.2        1 <1>        0.000
      2 P1         -3.6162   -2.6888   -0.6508 P.3        1 <1>        0.000
      3 O1         -2.9161   -1.4671    0.0815 O.3        1 <1>        0.000
      4 O5         -4.7671   -2.1099   -1.3252 O.2        1 <1>        0.000
      5 O6         -4.0901   -3.6576    0.5217 O.3        1 <1>        0.000
      6 H          -3.5474   -1.0416    0.6663 H.spc      1 <1>        0.000
      7 H          -4.6815   -3.1816    1.1093 H.spc      1 <1>        0.000
@<TRIPOS>BOND
     1    1    2 2  
     2    2    4 2  
     3    2    3 1  
     4    2    5 1  
     5    3    6 1  
     6    5    7 1  
# Name:          frag3-212-4/31924 -- energy: -0.227174
# Creation time: Sat Jun  5 12:52:21 2010


@<TRIPOS>MOLECULE
frag3-212-4/31924 -- energy: -0.227174
    7     6     1     1     1
SMALL
USER_CHARGES


@<TRIPOS>ATOM
      1 S1         -2.4463   -3.5958   -1.8312 S.2        1 <1>        0.000
      2 P1         -3.6162   -2.6888   -0.6508 P.3        1 <1>        0.000
      3 O1         -2.9161   -1.4671    0.0815 O.3        1 <1>        0.000
      4 O5         -4.7671   -2.1099   -1.3252 O.2        1 <1>        0.000
      5 O6         -4.0901   -3.6576    0.5217 O.3        1 <1>        0.000
      6 H          -3.5474   -1.0416    0.6663 H.spc      1 <1>        0.000
      7 H          -4.6815   -3.1816    1.1093 H.spc      1 <1>        0.000
@<TRIPOS>BOND
     1    1    2 2  
     2    2    4 2  
     3    2    3 1  
     4    2    5 1  
     5    3    6 1  
     6    5    7 1  
