#      Rotatable Fragment
#      Build by yxyuan
#
# Name:          frag5-630-85/138278
# Creation time: Sat Jun  5 12:53:49 2010


@<TRIPOS>MOLECULE
frag5-630-85/138278
   17    18     1     1     1
SMALL
USER_CHARGES


@<TRIPOS>ATOM
      1 C10         2.3405    0.9100   -0.0738 C.ar       1 <1>        0.000
      2 C11         1.0485    1.5127    0.0866 C.ar       1 <1>        0.000
      3 C12         2.5124   -0.3884   -0.1698 C.ar       1 <1>        0.000
      4 C13        -0.0956    0.7932    0.0924 C.ar       1 <1>        0.000
      5 N3          1.3882   -1.1544   -0.1455 N.ar       1 <1>        0.000
      6 O3          3.5948   -0.8418   -0.2729 O.2        1 <1>        0.000
      7 C14         0.1739   -0.7097   -0.0397 C.ar       1 <1>        0.000
      8 C15        -1.4465    1.2501    0.1664 C.ar       1 <1>        0.000
      9 C17        -1.0738   -1.5904   -0.0281 C.ar       1 <1>        0.000
     10 C18        -2.4945    0.4075    0.1210 C.ar       1 <1>        0.000
     11 C19        -2.3027   -1.0135    0.0284 C.ar       1 <1>        0.000
     12 H           3.2165    1.5571   -0.1178 H.spc      1 <1>        0.000
     13 H           0.9871    2.5941    0.2087 H.spc      1 <1>        0.000
     14 H          -1.6353    2.3193    0.2631 H.spc      1 <1>        0.000
     15 H          -0.9790   -2.6756   -0.0649 H.spc      1 <1>        0.000
     16 H          -3.5069    0.8100    0.1551 H.spc      1 <1>        0.000
     17 H          -3.1820   -1.6572    0.0023 H.spc      1 <1>        0.000
@<TRIPOS>BOND
     1    7    9 ar 
     2    4    8 ar 
     3    5    7 ar 
     4    8   10 ar 
     5   10   11 ar 
     6    9   11 ar 
     7    1    2 ar 
     8    1    3 ar 
     9    2    4 ar 
    10    3    5 ar 
    11    3    6 2  
    12    4    7 ar 
    13    1   12 1  
    14    2   13 1  
    15    8   14 1  
    16    9   15 1  
    17   10   16 1  
    18   11   17 1  
# Name:          frag5-630-85/138278 -- energy: -0.401415
# Creation time: Sat Jun  5 12:53:49 2010


@<TRIPOS>MOLECULE
frag5-630-85/138278 -- energy: -0.401415
   17    18     1     1     1
SMALL
USER_CHARGES


@<TRIPOS>ATOM
      1 C10         2.3405    0.9100   -0.0738 C.ar       1 <1>        0.000
      2 C11         1.0485    1.5127    0.0866 C.ar       1 <1>        0.000
      3 C12         2.5124   -0.3884   -0.1698 C.ar       1 <1>        0.000
      4 C13        -0.0956    0.7932    0.0924 C.ar       1 <1>        0.000
      5 N3          1.3882   -1.1544   -0.1455 N.ar       1 <1>        0.000
      6 O3          3.5948   -0.8418   -0.2729 O.2        1 <1>        0.000
      7 C14         0.1739   -0.7097   -0.0397 C.ar       1 <1>        0.000
      8 C15        -1.4465    1.2501    0.1664 C.ar       1 <1>        0.000
      9 C17        -1.0738   -1.5904   -0.0281 C.ar       1 <1>        0.000
     10 C18        -2.4945    0.4075    0.1210 C.ar       1 <1>        0.000
     11 C19        -2.3027   -1.0135    0.0284 C.ar       1 <1>        0.000
     12 H           3.2165    1.5571   -0.1178 H.spc      1 <1>        0.000
     13 H           0.9871    2.5941    0.2087 H.spc      1 <1>        0.000
     14 H          -1.6353    2.3193    0.2631 H.spc      1 <1>        0.000
     15 H          -0.9790   -2.6756   -0.0649 H.spc      1 <1>        0.000
     16 H          -3.5069    0.8100    0.1551 H.spc      1 <1>        0.000
     17 H          -3.1820   -1.6572    0.0023 H.spc      1 <1>        0.000
@<TRIPOS>BOND
     1    7    9 ar 
     2    4    8 ar 
     3    5    7 ar 
     4    8   10 ar 
     5   10   11 ar 
     6    9   11 ar 
     7    1    2 ar 
     8    1    3 ar 
     9    2    4 ar 
    10    3    5 ar 
    11    3    6 2  
    12    4    7 ar 
    13    1   12 1  
    14    2   13 1  
    15    8   14 1  
    16    9   15 1  
    17   10   16 1  
    18   11   17 1  
