#      Rotatable Fragment
#      Build by yxyuan
#
# Name:          frag3-265-3/96164
# Creation time: Sat Jun  5 12:53:22 2010


@<TRIPOS>MOLECULE
frag3-265-3/96164
    7     6     1     1     1
SMALL
USER_CHARGES


@<TRIPOS>ATOM
      1 C18         0.9967    0.0541    0.1211 C.2        1 <1>        0.000
      2 N1         -0.2598   -0.4500   -0.2075 N.am       1 <1>        0.000
      3 O3          1.9894   -0.6187   -0.1054 O.2        1 <1>        0.000
      4 C19        -1.3420    0.1042    0.3154 C.1        1 <1>        0.000
      5 N2         -2.2568    0.6005    0.8213 N.1        1 <1>        0.000
      6 H           1.0922    1.0400    0.5761 H.spc      1 <1>        0.000
      7 H          -0.3451   -1.2405   -0.8465 H.spc      1 <1>        0.000
@<TRIPOS>BOND
     1    1    2 am 
     2    1    3 2  
     3    2    4 1  
     4    4    5 3  
     5    1    6 1  
     6    2    7 1  
# Name:          frag3-265-3/96164
# Creation time: Sat Jun  5 12:53:22 2010


@<TRIPOS>MOLECULE
frag3-265-3/96164
    7     6     1     1     1
SMALL
USER_CHARGES


@<TRIPOS>ATOM
      1 C18         0.9954   -0.4573   -0.4052 C.2        1 <1>        0.000
      2 N1         -0.3741   -0.4905   -0.6592 N.am       1 <1>        0.000
      3 O3          1.4021   -0.0294    0.6560 O.2        1 <1>        0.000
      4 C19        -1.1431    0.0830    0.2537 C.1        1 <1>        0.000
      5 N2         -1.7527    0.5844    1.0996 N.1        1 <1>        0.000
      6 H           1.6996   -0.8143   -1.1567 H.spc      1 <1>        0.000
      7 H          -0.7600   -0.9288   -1.4955 H.spc      1 <1>        0.000
@<TRIPOS>BOND
     1    1    2 am 
     2    1    3 2  
     3    2    4 1  
     4    4    5 3  
     5    1    6 1  
     6    2    7 1  
# Name:          frag3-265-3/96164 -- energy: -0.214474
# Creation time: Sat Jun  5 12:53:22 2010


@<TRIPOS>MOLECULE
frag3-265-3/96164 -- energy: -0.214474
    7     6     1     1     1
SMALL
USER_CHARGES


@<TRIPOS>ATOM
      1 C18         0.9967    0.0541    0.1211 C.2        1 <1>        0.000
      2 N1         -0.2598   -0.4500   -0.2075 N.am       1 <1>        0.000
      3 O3          1.9894   -0.6187   -0.1054 O.2        1 <1>        0.000
      4 C19        -1.3420    0.1042    0.3154 C.1        1 <1>        0.000
      5 N2         -2.2568    0.6005    0.8213 N.1        1 <1>        0.000
      6 H           1.0922    1.0400    0.5761 H.spc      1 <1>        0.000
      7 H          -0.3451   -1.2405   -0.8465 H.spc      1 <1>        0.000
@<TRIPOS>BOND
     1    1    2 am 
     2    1    3 2  
     3    2    4 1  
     4    4    5 3  
     5    1    6 1  
     6    2    7 1  
# Name:          frag3-265-3/96164 -- energy: 0.134854
# Creation time: Sat Jun  5 12:53:22 2010


@<TRIPOS>MOLECULE
frag3-265-3/96164 -- energy: 0.134854
    7     6     1     1     1
SMALL
USER_CHARGES


@<TRIPOS>ATOM
      1 C18         0.9954   -0.4573   -0.4052 C.2        1 <1>        0.000
      2 N1         -0.3741   -0.4905   -0.6592 N.am       1 <1>        0.000
      3 O3          1.4021   -0.0294    0.6560 O.2        1 <1>        0.000
      4 C19        -1.1431    0.0830    0.2537 C.1        1 <1>        0.000
      5 N2         -1.7527    0.5844    1.0996 N.1        1 <1>        0.000
      6 H           1.6996   -0.8143   -1.1567 H.spc      1 <1>        0.000
      7 H          -0.7600   -0.9288   -1.4955 H.spc      1 <1>        0.000
@<TRIPOS>BOND
     1    1    2 am 
     2    1    3 2  
     3    2    4 1  
     4    4    5 3  
     5    1    6 1  
     6    2    7 1  
