#      Rotatable Fragment
#      Build by yxyuan
#
# Name:          frag5-591-118/138278
# Creation time: Sat Jun  5 12:53:45 2010


@<TRIPOS>MOLECULE
frag5-591-118/138278
   16    17     1     1     1
SMALL
USER_CHARGES


@<TRIPOS>ATOM
      1 C1          0.2434    0.5295    0.0739 C.2        1 <1>        0.000
      2 N1          1.5121    0.7005    0.0588 N.2        1 <1>        0.000
      3 C2         -0.0484   -0.8332   -0.3757 C.2        1 <1>        0.000
      4 C3         -0.8169    1.4160    0.4397 C.2        1 <1>        0.000
      5 C4          2.1551   -0.4903   -0.3836 C.3        1 <1>        0.000
      6 N2          1.0751   -1.3811   -0.6262 N.2        1 <1>        0.000
      7 C6         -1.4102   -1.2923   -0.4345 C.2        1 <1>        0.000
      8 C7         -2.0698    0.9173    0.3841 C.2        1 <1>        0.000
      9 S1          3.8057   -0.7264   -0.5761 S.3        1 <1>        0.000
     10 C9         -2.3704   -0.4249   -0.0419 C.2        1 <1>        0.000
     11 H          -0.6231    2.4433    0.7481 H.spc      1 <1>        0.000
     12 H           3.1930   -0.8028   -0.4986 H.spc      1 <1>        0.000
     13 H          -1.6575   -2.2959   -0.7805 H.spc      1 <1>        0.000
     14 H          -2.8969    1.5640    0.6768 H.spc      1 <1>        0.000
     15 H           4.4540    0.3816   -0.2283 H.spc      1 <1>        0.000
     16 H          -3.4096   -0.7537   -0.0481 H.spc      1 <1>        0.000
@<TRIPOS>BOND
     1    8   10 1  
     2    7   10 2  
     3    1    2 2  
     4    1    3 1  
     5    2    5 1  
     6    1    4 1  
     7    3    6 2  
     8    3    7 1  
     9    4    8 2  
    10    5    9 1  
    11    5    6 1  
    12    4   11 1  
    13    5   12 1  
    14    7   13 1  
    15    8   14 1  
    16    9   15 1  
    17   10   16 1  
# Name:          frag5-591-118/138278 -- energy: -0.042056
# Creation time: Sat Jun  5 12:53:45 2010


@<TRIPOS>MOLECULE
frag5-591-118/138278 -- energy: -0.042056
   16    17     1     1     1
SMALL
USER_CHARGES


@<TRIPOS>ATOM
      1 C1          0.2434    0.5295    0.0739 C.2        1 <1>        0.000
      2 N1          1.5121    0.7005    0.0588 N.2        1 <1>        0.000
      3 C2         -0.0484   -0.8332   -0.3757 C.2        1 <1>        0.000
      4 C3         -0.8169    1.4160    0.4397 C.2        1 <1>        0.000
      5 C4          2.1551   -0.4903   -0.3836 C.3        1 <1>        0.000
      6 N2          1.0751   -1.3811   -0.6262 N.2        1 <1>        0.000
      7 C6         -1.4102   -1.2923   -0.4345 C.2        1 <1>        0.000
      8 C7         -2.0698    0.9173    0.3841 C.2        1 <1>        0.000
      9 S1          3.8057   -0.7264   -0.5761 S.3        1 <1>        0.000
     10 C9         -2.3704   -0.4249   -0.0419 C.2        1 <1>        0.000
     11 H          -0.6231    2.4433    0.7481 H.spc      1 <1>        0.000
     12 H           3.1930   -0.8028   -0.4986 H.spc      1 <1>        0.000
     13 H          -1.6575   -2.2959   -0.7805 H.spc      1 <1>        0.000
     14 H          -2.8969    1.5640    0.6768 H.spc      1 <1>        0.000
     15 H           4.4540    0.3816   -0.2283 H.spc      1 <1>        0.000
     16 H          -3.4096   -0.7537   -0.0481 H.spc      1 <1>        0.000
@<TRIPOS>BOND
     1    8   10 1  
     2    7   10 2  
     3    1    2 2  
     4    1    3 1  
     5    2    5 1  
     6    1    4 1  
     7    3    6 2  
     8    3    7 1  
     9    4    8 2  
    10    5    9 1  
    11    5    6 1  
    12    4   11 1  
    13    5   12 1  
    14    7   13 1  
    15    8   14 1  
    16    9   15 1  
    17   10   16 1  
