#      Rotatable Fragment
#      Build by yxyuan
#
# Name:          frag3-288-2/31924
# Creation time: Sat Jun  5 12:52:45 2010


@<TRIPOS>MOLECULE
frag3-288-2/31924
    6     5     1     1     1
SMALL
USER_CHARGES


@<TRIPOS>ATOM
      1 N1         -0.8267   -0.5265    0.1213 N.2        1 <1>        0.000
      2 C1          0.0245    0.3766   -0.0801 C.2        1 <1>        0.000
      3 O1          1.3027    0.0512    0.1095 O.3        1 <1>        0.000
      4 H          -0.5249   -1.4554    0.4154 H.spc      1 <1>        0.000
      5 H          -0.2691    1.3780   -0.3948 H.spc      1 <1>        0.000
      6 H           1.8564    0.8140   -0.0728 H.spc      1 <1>        0.000
@<TRIPOS>BOND
     1    2    3 1  
     2    1    2 2  
     3    1    4 1  
     4    2    5 1  
     5    3    6 1  
# Name:          frag3-288-2/31924 -- energy: -0.047375
# Creation time: Sat Jun  5 12:52:45 2010


@<TRIPOS>MOLECULE
frag3-288-2/31924 -- energy: -0.047375
    6     5     1     1     1
SMALL
USER_CHARGES


@<TRIPOS>ATOM
      1 N1         -0.8267   -0.5265    0.1213 N.2        1 <1>        0.000
      2 C1          0.0245    0.3766   -0.0801 C.2        1 <1>        0.000
      3 O1          1.3027    0.0512    0.1095 O.3        1 <1>        0.000
      4 H          -0.5249   -1.4554    0.4154 H.spc      1 <1>        0.000
      5 H          -0.2691    1.3780   -0.3948 H.spc      1 <1>        0.000
      6 H           1.8564    0.8140   -0.0728 H.spc      1 <1>        0.000
@<TRIPOS>BOND
     1    2    3 1  
     2    1    2 2  
     3    1    4 1  
     4    2    5 1  
     5    3    6 1  
