#      Rotatable Fragment
#      Build by yxyuan
#
# Name:          frag3-209-7/96164
# Creation time: Sat Jun  5 12:53:10 2010


@<TRIPOS>MOLECULE
frag3-209-7/96164
   12    11     1     1     1
SMALL
USER_CHARGES


@<TRIPOS>ATOM
      1 C17         2.6366   -0.1594   -0.1133 C.2        1 <1>        0.000
      2 N10         1.3792   -0.1671   -0.3912 N.2        1 <1>        0.000
      3 N11         0.3818    0.3594    0.2765 N.pl3      1 <1>        0.000
      4 C20        -0.8738   -0.1786    0.3672 C.cat      1 <1>        0.000
      5 N12        -1.7243    0.1690    1.3446 N.pl3      1 <1>        0.000
      6 N13        -1.2682   -1.1147   -0.5271 N.pl3      1 <1>        0.000
      7 H           2.9922    0.3371    0.7896 H.spc      1 <1>        0.000
      8 H           3.3453   -0.6494   -0.7809 H.spc      1 <1>        0.000
      9 H           0.5543    1.2374    0.7661 H.spc      1 <1>        0.000
     10 H          -2.6434   -0.2697    1.4008 H.spc      1 <1>        0.000
     11 H          -2.1929   -1.5378   -0.4482 H.spc      1 <1>        0.000
     12 H          -0.6407   -1.3971   -1.2800 H.spc      1 <1>        0.000
@<TRIPOS>BOND
     1    1    2 2  
     2    2    3 1  
     3    3    4 ar 
     4    4    5 ar 
     5    4    6 ar 
     6    1    7 1  
     7    1    8 1  
     8    3    9 1  
     9    5   10 1  
    10    6   11 1  
    11    6   12 1  
# Name:          frag3-209-7/96164
# Creation time: Sat Jun  5 12:53:10 2010


@<TRIPOS>MOLECULE
frag3-209-7/96164
   12    11     1     1     1
SMALL
USER_CHARGES


@<TRIPOS>ATOM
      1 C17         2.5813    0.3902    0.0461 C.2        1 <1>        0.000
      2 N10         1.4878   -0.2432    0.2732 N.2        1 <1>        0.000
      3 N11         0.3765   -0.2732   -0.4121 N.pl3      1 <1>        0.000
      4 C20        -0.8779   -0.3119    0.1692 C.cat      1 <1>        0.000
      5 N12        -1.1046    0.2001    1.3961 N.pl3      1 <1>        0.000
      6 N13        -1.9317   -0.8534   -0.5160 N.pl3      1 <1>        0.000
      7 H           2.6718    1.0220   -0.8375 H.spc      1 <1>        0.000
      8 H           3.4192    0.2962    0.7369 H.spc      1 <1>        0.000
      9 H           0.4368   -0.2678   -1.4303 H.spc      1 <1>        0.000
     10 H          -2.0442    0.1779    1.7924 H.spc      1 <1>        0.000
     11 H          -2.8616   -0.8631   -0.0969 H.spc      1 <1>        0.000
     12 H          -1.7872   -1.2473   -1.4457 H.spc      1 <1>        0.000
@<TRIPOS>BOND
     1    1    2 2  
     2    2    3 1  
     3    3    4 ar 
     4    4    5 ar 
     5    4    6 ar 
     6    1    7 1  
     7    1    8 1  
     8    3    9 1  
     9    5   10 1  
    10    6   11 1  
    11    6   12 1  
# Name:          frag3-209-7/96164
# Creation time: Sat Jun  5 12:53:10 2010


@<TRIPOS>MOLECULE
frag3-209-7/96164
   12    11     1     1     1
SMALL
USER_CHARGES


@<TRIPOS>ATOM
      1 C17         1.8682   -0.0954   -0.9654 C.2        1 <1>        0.000
      2 N10         1.6451   -0.1758    0.2817 N.2        1 <1>        0.000
      3 N11         0.4965    0.0862    0.8959 N.pl3      1 <1>        0.000
      4 C20        -0.7512   -0.2081    0.4346 C.cat      1 <1>        0.000
      5 N12        -1.8378    0.4063    0.8956 N.pl3      1 <1>        0.000
      6 N13        -0.8894   -1.1046   -0.5859 N.pl3      1 <1>        0.000
      7 H           1.0723    0.2145   -1.6426 H.spc      1 <1>        0.000
      8 H           2.8557   -0.3363   -1.3590 H.spc      1 <1>        0.000
      9 H           0.5544    0.5531    1.8009 H.spc      1 <1>        0.000
     10 H          -2.7502    0.2037    0.4871 H.spc      1 <1>        0.000
     11 H          -1.8118   -1.2916   -0.9791 H.spc      1 <1>        0.000
     12 H          -0.0702   -1.5873   -0.9551 H.spc      1 <1>        0.000
@<TRIPOS>BOND
     1    1    2 2  
     2    2    3 1  
     3    3    4 ar 
     4    4    5 ar 
     5    4    6 ar 
     6    1    7 1  
     7    1    8 1  
     8    3    9 1  
     9    5   10 1  
    10    6   11 1  
    11    6   12 1  
# Name:          frag3-209-7/96164
# Creation time: Sat Jun  5 12:53:10 2010


@<TRIPOS>MOLECULE
frag3-209-7/96164
   12    11     1     1     1
SMALL
USER_CHARGES


@<TRIPOS>ATOM
      1 C17         2.0843   -0.0088    0.7619 C.2        1 <1>        0.000
      2 N10         1.5189    0.2127   -0.3483 N.2        1 <1>        0.000
      3 N11         0.2800   -0.0778   -0.7149 N.pl3      1 <1>        0.000
      4 C20        -0.7707   -0.3223    0.1287 C.cat      1 <1>        0.000
      5 N12        -0.6801    0.0017    1.4450 N.pl3      1 <1>        0.000
      6 N13        -1.9010   -0.8969   -0.3157 N.pl3      1 <1>        0.000
      7 H           1.5349   -0.5002    1.5649 H.spc      1 <1>        0.000
      8 H           3.1207    0.2918    0.9152 H.spc      1 <1>        0.000
      9 H           0.0912   -0.1236   -1.7162 H.spc      1 <1>        0.000
     10 H          -1.4603   -0.1921    2.0728 H.spc      1 <1>        0.000
     11 H          -2.6679   -1.0810    0.3311 H.spc      1 <1>        0.000
     12 H          -1.9921   -1.1490   -1.2998 H.spc      1 <1>        0.000
@<TRIPOS>BOND
     1    1    2 2  
     2    2    3 1  
     3    3    4 ar 
     4    4    5 ar 
     5    4    6 ar 
     6    1    7 1  
     7    1    8 1  
     8    3    9 1  
     9    5   10 1  
    10    6   11 1  
    11    6   12 1  
# Name:          frag3-209-7/96164
# Creation time: Sat Jun  5 12:53:10 2010


@<TRIPOS>MOLECULE
frag3-209-7/96164
   12    11     1     1     1
SMALL
USER_CHARGES


@<TRIPOS>ATOM
      1 C17         2.0239   -0.7978   -0.3171 C.2        1 <1>        0.000
      2 N10         1.5207    0.3682   -0.1749 N.2        1 <1>        0.000
      3 N11         0.3083    0.6860    0.2552 N.pl3      1 <1>        0.000
      4 C20        -0.7611   -0.1486    0.3736 C.cat      1 <1>        0.000
      5 N12        -1.7371    0.0495    1.2585 N.pl3      1 <1>        0.000
      6 N13        -0.8233   -1.2488   -0.4386 N.pl3      1 <1>        0.000
      7 H           1.4330   -1.6801   -0.0711 H.spc      1 <1>        0.000
      8 H           3.0440   -0.9101   -0.6844 H.spc      1 <1>        0.000
      9 H           0.1605    1.6582    0.5261 H.spc      1 <1>        0.000
     10 H          -2.5109   -0.6122    1.3210 H.spc      1 <1>        0.000
     11 H          -1.6063   -1.8977   -0.3592 H.spc      1 <1>        0.000
     12 H          -0.0867   -1.4197   -1.1231 H.spc      1 <1>        0.000
@<TRIPOS>BOND
     1    1    2 2  
     2    2    3 1  
     3    3    4 ar 
     4    4    5 ar 
     5    4    6 ar 
     6    1    7 1  
     7    1    8 1  
     8    3    9 1  
     9    5   10 1  
    10    6   11 1  
    11    6   12 1  
# Name:          frag3-209-7/96164
# Creation time: Sat Jun  5 12:53:10 2010


@<TRIPOS>MOLECULE
frag3-209-7/96164
   12    11     1     1     1
SMALL
USER_CHARGES


@<TRIPOS>ATOM
      1 C17         1.8951    0.8420   -0.0316 C.2        1 <1>        0.000
      2 N10         1.6443   -0.4029    0.0816 N.2        1 <1>        0.000
      3 N11         0.4667   -0.9901    0.1213 N.pl3      1 <1>        0.000
      4 C20        -0.7575   -0.4008    0.2337 C.cat      1 <1>        0.000
      5 N12        -0.9447    0.5946    1.1290 N.pl3      1 <1>        0.000
      6 N13        -1.7724   -0.7342   -0.5775 N.pl3      1 <1>        0.000
      7 H           1.0769    1.5579   -0.1091 H.spc      1 <1>        0.000
      8 H           2.9278    1.1904   -0.0508 H.spc      1 <1>        0.000
      9 H           0.4707   -2.0083    0.0607 H.spc      1 <1>        0.000
     10 H          -1.8433    1.0748    1.1773 H.spc      1 <1>        0.000
     11 H          -2.6621   -0.2398   -0.5109 H.spc      1 <1>        0.000
     12 H          -1.6545   -1.4821   -1.2610 H.spc      1 <1>        0.000
@<TRIPOS>BOND
     1    1    2 2  
     2    2    3 1  
     3    3    4 ar 
     4    4    5 ar 
     5    4    6 ar 
     6    1    7 1  
     7    1    8 1  
     8    3    9 1  
     9    5   10 1  
    10    6   11 1  
    11    6   12 1  
# Name:          frag3-209-7/96164 -- energy: -0.644536
# Creation time: Sat Jun  5 12:53:10 2010


@<TRIPOS>MOLECULE
frag3-209-7/96164 -- energy: -0.644536
   12    11     1     1     1
SMALL
USER_CHARGES


@<TRIPOS>ATOM
      1 C17         2.6366   -0.1594   -0.1133 C.2        1 <1>        0.000
      2 N10         1.3792   -0.1671   -0.3912 N.2        1 <1>        0.000
      3 N11         0.3818    0.3594    0.2765 N.pl3      1 <1>        0.000
      4 C20        -0.8738   -0.1786    0.3672 C.cat      1 <1>        0.000
      5 N12        -1.7243    0.1690    1.3446 N.pl3      1 <1>        0.000
      6 N13        -1.2682   -1.1147   -0.5271 N.pl3      1 <1>        0.000
      7 H           2.9922    0.3371    0.7896 H.spc      1 <1>        0.000
      8 H           3.3453   -0.6494   -0.7809 H.spc      1 <1>        0.000
      9 H           0.5543    1.2374    0.7661 H.spc      1 <1>        0.000
     10 H          -2.6434   -0.2697    1.4008 H.spc      1 <1>        0.000
     11 H          -2.1929   -1.5378   -0.4482 H.spc      1 <1>        0.000
     12 H          -0.6407   -1.3971   -1.2800 H.spc      1 <1>        0.000
@<TRIPOS>BOND
     1    1    2 2  
     2    2    3 1  
     3    3    4 ar 
     4    4    5 ar 
     5    4    6 ar 
     6    1    7 1  
     7    1    8 1  
     8    3    9 1  
     9    5   10 1  
    10    6   11 1  
    11    6   12 1  
# Name:          frag3-209-7/96164 -- energy: -0.662369
# Creation time: Sat Jun  5 12:53:10 2010


@<TRIPOS>MOLECULE
frag3-209-7/96164 -- energy: -0.662369
   12    11     1     1     1
SMALL
USER_CHARGES


@<TRIPOS>ATOM
      1 C17         2.5813    0.3902    0.0461 C.2        1 <1>        0.000
      2 N10         1.4878   -0.2432    0.2732 N.2        1 <1>        0.000
      3 N11         0.3765   -0.2732   -0.4121 N.pl3      1 <1>        0.000
      4 C20        -0.8779   -0.3119    0.1692 C.cat      1 <1>        0.000
      5 N12        -1.1046    0.2001    1.3961 N.pl3      1 <1>        0.000
      6 N13        -1.9317   -0.8534   -0.5160 N.pl3      1 <1>        0.000
      7 H           2.6718    1.0220   -0.8375 H.spc      1 <1>        0.000
      8 H           3.4192    0.2962    0.7369 H.spc      1 <1>        0.000
      9 H           0.4368   -0.2678   -1.4303 H.spc      1 <1>        0.000
     10 H          -2.0442    0.1779    1.7924 H.spc      1 <1>        0.000
     11 H          -2.8616   -0.8631   -0.0969 H.spc      1 <1>        0.000
     12 H          -1.7872   -1.2473   -1.4457 H.spc      1 <1>        0.000
@<TRIPOS>BOND
     1    1    2 2  
     2    2    3 1  
     3    3    4 ar 
     4    4    5 ar 
     5    4    6 ar 
     6    1    7 1  
     7    1    8 1  
     8    3    9 1  
     9    5   10 1  
    10    6   11 1  
    11    6   12 1  
# Name:          frag3-209-7/96164 -- energy: -0.584086
# Creation time: Sat Jun  5 12:53:10 2010


@<TRIPOS>MOLECULE
frag3-209-7/96164 -- energy: -0.584086
   12    11     1     1     1
SMALL
USER_CHARGES


@<TRIPOS>ATOM
      1 C17         1.8682   -0.0954   -0.9654 C.2        1 <1>        0.000
      2 N10         1.6451   -0.1758    0.2817 N.2        1 <1>        0.000
      3 N11         0.4965    0.0862    0.8959 N.pl3      1 <1>        0.000
      4 C20        -0.7512   -0.2081    0.4346 C.cat      1 <1>        0.000
      5 N12        -1.8378    0.4063    0.8956 N.pl3      1 <1>        0.000
      6 N13        -0.8894   -1.1046   -0.5859 N.pl3      1 <1>        0.000
      7 H           1.0723    0.2145   -1.6426 H.spc      1 <1>        0.000
      8 H           2.8557   -0.3363   -1.3590 H.spc      1 <1>        0.000
      9 H           0.5544    0.5531    1.8009 H.spc      1 <1>        0.000
     10 H          -2.7502    0.2037    0.4871 H.spc      1 <1>        0.000
     11 H          -1.8118   -1.2916   -0.9791 H.spc      1 <1>        0.000
     12 H          -0.0702   -1.5873   -0.9551 H.spc      1 <1>        0.000
@<TRIPOS>BOND
     1    1    2 2  
     2    2    3 1  
     3    3    4 ar 
     4    4    5 ar 
     5    4    6 ar 
     6    1    7 1  
     7    1    8 1  
     8    3    9 1  
     9    5   10 1  
    10    6   11 1  
    11    6   12 1  
# Name:          frag3-209-7/96164 -- energy: -0.314748
# Creation time: Sat Jun  5 12:53:10 2010


@<TRIPOS>MOLECULE
frag3-209-7/96164 -- energy: -0.314748
   12    11     1     1     1
SMALL
USER_CHARGES


@<TRIPOS>ATOM
      1 C17         2.0843   -0.0088    0.7619 C.2        1 <1>        0.000
      2 N10         1.5189    0.2127   -0.3483 N.2        1 <1>        0.000
      3 N11         0.2800   -0.0778   -0.7149 N.pl3      1 <1>        0.000
      4 C20        -0.7707   -0.3223    0.1287 C.cat      1 <1>        0.000
      5 N12        -0.6801    0.0017    1.4450 N.pl3      1 <1>        0.000
      6 N13        -1.9010   -0.8969   -0.3157 N.pl3      1 <1>        0.000
      7 H           1.5349   -0.5002    1.5649 H.spc      1 <1>        0.000
      8 H           3.1207    0.2918    0.9152 H.spc      1 <1>        0.000
      9 H           0.0912   -0.1236   -1.7162 H.spc      1 <1>        0.000
     10 H          -1.4603   -0.1921    2.0728 H.spc      1 <1>        0.000
     11 H          -2.6679   -1.0810    0.3311 H.spc      1 <1>        0.000
     12 H          -1.9921   -1.1490   -1.2998 H.spc      1 <1>        0.000
@<TRIPOS>BOND
     1    1    2 2  
     2    2    3 1  
     3    3    4 ar 
     4    4    5 ar 
     5    4    6 ar 
     6    1    7 1  
     7    1    8 1  
     8    3    9 1  
     9    5   10 1  
    10    6   11 1  
    11    6   12 1  
# Name:          frag3-209-7/96164 -- energy: 0.397312
# Creation time: Sat Jun  5 12:53:11 2010


@<TRIPOS>MOLECULE
frag3-209-7/96164 -- energy: 0.397312
   12    11     1     1     1
SMALL
USER_CHARGES


@<TRIPOS>ATOM
      1 C17         2.0239   -0.7978   -0.3171 C.2        1 <1>        0.000
      2 N10         1.5207    0.3682   -0.1749 N.2        1 <1>        0.000
      3 N11         0.3083    0.6860    0.2552 N.pl3      1 <1>        0.000
      4 C20        -0.7611   -0.1486    0.3736 C.cat      1 <1>        0.000
      5 N12        -1.7371    0.0495    1.2585 N.pl3      1 <1>        0.000
      6 N13        -0.8233   -1.2488   -0.4386 N.pl3      1 <1>        0.000
      7 H           1.4330   -1.6801   -0.0711 H.spc      1 <1>        0.000
      8 H           3.0440   -0.9101   -0.6844 H.spc      1 <1>        0.000
      9 H           0.1605    1.6582    0.5261 H.spc      1 <1>        0.000
     10 H          -2.5109   -0.6122    1.3210 H.spc      1 <1>        0.000
     11 H          -1.6063   -1.8977   -0.3592 H.spc      1 <1>        0.000
     12 H          -0.0867   -1.4197   -1.1231 H.spc      1 <1>        0.000
@<TRIPOS>BOND
     1    1    2 2  
     2    2    3 1  
     3    3    4 ar 
     4    4    5 ar 
     5    4    6 ar 
     6    1    7 1  
     7    1    8 1  
     8    3    9 1  
     9    5   10 1  
    10    6   11 1  
    11    6   12 1  
# Name:          frag3-209-7/96164 -- energy: -0.748653
# Creation time: Sat Jun  5 12:53:11 2010


@<TRIPOS>MOLECULE
frag3-209-7/96164 -- energy: -0.748653
   12    11     1     1     1
SMALL
USER_CHARGES


@<TRIPOS>ATOM
      1 C17         1.8951    0.8420   -0.0316 C.2        1 <1>        0.000
      2 N10         1.6443   -0.4029    0.0816 N.2        1 <1>        0.000
      3 N11         0.4667   -0.9901    0.1213 N.pl3      1 <1>        0.000
      4 C20        -0.7575   -0.4008    0.2337 C.cat      1 <1>        0.000
      5 N12        -0.9447    0.5946    1.1290 N.pl3      1 <1>        0.000
      6 N13        -1.7724   -0.7342   -0.5775 N.pl3      1 <1>        0.000
      7 H           1.0769    1.5579   -0.1091 H.spc      1 <1>        0.000
      8 H           2.9278    1.1904   -0.0508 H.spc      1 <1>        0.000
      9 H           0.4707   -2.0083    0.0607 H.spc      1 <1>        0.000
     10 H          -1.8433    1.0748    1.1773 H.spc      1 <1>        0.000
     11 H          -2.6621   -0.2398   -0.5109 H.spc      1 <1>        0.000
     12 H          -1.6545   -1.4821   -1.2610 H.spc      1 <1>        0.000
@<TRIPOS>BOND
     1    1    2 2  
     2    2    3 1  
     3    3    4 ar 
     4    4    5 ar 
     5    4    6 ar 
     6    1    7 1  
     7    1    8 1  
     8    3    9 1  
     9    5   10 1  
    10    6   11 1  
    11    6   12 1  
