#      Rotatable Fragment
#      Build by yxyuan
#
# Name:          frag3-191-9/96164
# Creation time: Sat Jun  5 12:53:09 2010


@<TRIPOS>MOLECULE
frag3-191-9/96164
   18    17     1     1     1
SMALL
USER_CHARGES


@<TRIPOS>ATOM
      1 O3          3.1444   -1.3150   -0.6624 O.3        1 <1>        0.000
      2 P1          1.7733   -1.1925   -0.0182 P.3        1 <1>        0.000
      3 O4          1.5246   -0.5089    1.3001 O.3        1 <1>        0.000
      4 O5          1.3507   -2.6005    0.4835 O.3        1 <1>        0.000
      5 O6          0.8528   -0.6410   -0.9779 O.2        1 <1>        0.000
      6 P2          1.0248    0.0887    2.5669 P.3        1 <1>        0.000
      7 O7         -0.2254   -0.7763    2.7273 O.3        1 <1>        0.000
      8 O8          0.4860    1.4527    2.0747 O.3        1 <1>        0.000
      9 O9          1.9706    0.0442    3.6566 O.2        1 <1>        0.000
     10 P3         -1.4554   -1.3908    2.0846 P.3        1 <1>        0.000
     11 O10        -2.8752   -0.8700    2.4042 O.3        1 <1>        0.000
     12 O11        -1.4096   -2.8478    1.5360 O.3        1 <1>        0.000
     13 O12        -1.2953   -0.7330    0.8130 O.2        1 <1>        0.000
     14 H           3.7634   -1.6824   -0.0273 H.spc      1 <1>        0.000
     15 H           1.9962   -2.9198    1.1183 H.spc      1 <1>        0.000
     16 H          -0.1281    1.3105    1.3507 H.spc      1 <1>        0.000
     17 H          -3.1599   -1.2198    3.2516 H.spc      1 <1>        0.000
     18 H          -1.5045   -3.4659    2.2644 H.spc      1 <1>        0.000
@<TRIPOS>BOND
     1    6    9 2  
     2   10   13 2  
     3    7   10 1  
     4   10   12 1  
     5   10   11 1  
     6    1    2 1  
     7    2    3 1  
     8    2    4 1  
     9    2    5 2  
    10    3    6 1  
    11    6    7 1  
    12    6    8 1  
    13    1   14 1  
    14    4   15 1  
    15    8   16 1  
    16   11   17 1  
    17   12   18 1  
# Name:          frag3-191-9/96164
# Creation time: Sat Jun  5 12:53:09 2010


@<TRIPOS>MOLECULE
frag3-191-9/96164
   18    17     1     1     1
SMALL
USER_CHARGES


@<TRIPOS>ATOM
      1 O3          2.1842   -2.5902    0.8911 O.3        1 <1>        0.000
      2 P1          1.9384   -1.3031    0.0510 P.3        1 <1>        0.000
      3 O4          1.7972   -0.2871    1.1606 O.3        1 <1>        0.000
      4 O5          0.5521   -1.2889   -0.6508 O.3        1 <1>        0.000
      5 O6          2.9854   -1.0146   -0.8919 O.2        1 <1>        0.000
      6 P2          1.0648    0.2079    2.3738 P.3        1 <1>        0.000
      7 O7         -0.1909   -0.7080    2.1834 O.3        1 <1>        0.000
      8 O8          0.6423    1.6748    2.3596 O.3        1 <1>        0.000
      9 O9          1.7413   -0.0891    3.6132 O.2        1 <1>        0.000
     10 P3         -1.5642   -1.3064    1.8544 P.3        1 <1>        0.000
     11 O10        -2.6041   -1.3946    3.0202 O.3        1 <1>        0.000
     12 O11        -1.5881   -2.7386    1.1944 O.3        1 <1>        0.000
     13 O12        -2.0921   -0.4526    0.8295 O.2        1 <1>        0.000
     14 H           1.4504   -2.7211    1.4961 H.spc      1 <1>        0.000
     15 H          -0.1332   -1.4831   -0.0071 H.spc      1 <1>        0.000
     16 H           0.1926    1.8691    1.5340 H.spc      1 <1>        0.000
     17 H          -2.2600   -1.9643    3.7120 H.spc      1 <1>        0.000
     18 H          -1.2467   -3.3831    1.8186 H.spc      1 <1>        0.000
@<TRIPOS>BOND
     1    6    9 2  
     2   10   13 2  
     3    7   10 1  
     4   10   12 1  
     5   10   11 1  
     6    1    2 1  
     7    2    3 1  
     8    2    4 1  
     9    2    5 2  
    10    3    6 1  
    11    6    7 1  
    12    6    8 1  
    13    1   14 1  
    14    4   15 1  
    15    8   16 1  
    16   11   17 1  
    17   12   18 1  
# Name:          frag3-191-9/96164 -- energy: -3.930903
# Creation time: Sat Jun  5 12:53:09 2010


@<TRIPOS>MOLECULE
frag3-191-9/96164 -- energy: -3.930903
   18    17     1     1     1
SMALL
USER_CHARGES


@<TRIPOS>ATOM
      1 O3          3.1444   -1.3150   -0.6624 O.3        1 <1>        0.000
      2 P1          1.7733   -1.1925   -0.0182 P.3        1 <1>        0.000
      3 O4          1.5246   -0.5089    1.3001 O.3        1 <1>        0.000
      4 O5          1.3507   -2.6005    0.4835 O.3        1 <1>        0.000
      5 O6          0.8528   -0.6410   -0.9779 O.2        1 <1>        0.000
      6 P2          1.0248    0.0887    2.5669 P.3        1 <1>        0.000
      7 O7         -0.2254   -0.7763    2.7273 O.3        1 <1>        0.000
      8 O8          0.4860    1.4527    2.0747 O.3        1 <1>        0.000
      9 O9          1.9706    0.0442    3.6566 O.2        1 <1>        0.000
     10 P3         -1.4554   -1.3908    2.0846 P.3        1 <1>        0.000
     11 O10        -2.8752   -0.8700    2.4042 O.3        1 <1>        0.000
     12 O11        -1.4096   -2.8478    1.5360 O.3        1 <1>        0.000
     13 O12        -1.2953   -0.7330    0.8130 O.2        1 <1>        0.000
     14 H           3.7634   -1.6824   -0.0273 H.spc      1 <1>        0.000
     15 H           1.9962   -2.9198    1.1183 H.spc      1 <1>        0.000
     16 H          -0.1281    1.3105    1.3507 H.spc      1 <1>        0.000
     17 H          -3.1599   -1.2198    3.2516 H.spc      1 <1>        0.000
     18 H          -1.5045   -3.4659    2.2644 H.spc      1 <1>        0.000
@<TRIPOS>BOND
     1    6    9 2  
     2   10   13 2  
     3    7   10 1  
     4   10   12 1  
     5   10   11 1  
     6    1    2 1  
     7    2    3 1  
     8    2    4 1  
     9    2    5 2  
    10    3    6 1  
    11    6    7 1  
    12    6    8 1  
    13    1   14 1  
    14    4   15 1  
    15    8   16 1  
    16   11   17 1  
    17   12   18 1  
# Name:          frag3-191-9/96164 -- energy: -2.463130
# Creation time: Sat Jun  5 12:53:09 2010


@<TRIPOS>MOLECULE
frag3-191-9/96164 -- energy: -2.463130
   18    17     1     1     1
SMALL
USER_CHARGES


@<TRIPOS>ATOM
      1 O3          2.1842   -2.5902    0.8911 O.3        1 <1>        0.000
      2 P1          1.9384   -1.3031    0.0510 P.3        1 <1>        0.000
      3 O4          1.7972   -0.2871    1.1606 O.3        1 <1>        0.000
      4 O5          0.5521   -1.2889   -0.6508 O.3        1 <1>        0.000
      5 O6          2.9854   -1.0146   -0.8919 O.2        1 <1>        0.000
      6 P2          1.0648    0.2079    2.3738 P.3        1 <1>        0.000
      7 O7         -0.1909   -0.7080    2.1834 O.3        1 <1>        0.000
      8 O8          0.6423    1.6748    2.3596 O.3        1 <1>        0.000
      9 O9          1.7413   -0.0891    3.6132 O.2        1 <1>        0.000
     10 P3         -1.5642   -1.3064    1.8544 P.3        1 <1>        0.000
     11 O10        -2.6041   -1.3946    3.0202 O.3        1 <1>        0.000
     12 O11        -1.5881   -2.7386    1.1944 O.3        1 <1>        0.000
     13 O12        -2.0921   -0.4526    0.8295 O.2        1 <1>        0.000
     14 H           1.4504   -2.7211    1.4961 H.spc      1 <1>        0.000
     15 H          -0.1332   -1.4831   -0.0071 H.spc      1 <1>        0.000
     16 H           0.1926    1.8691    1.5340 H.spc      1 <1>        0.000
     17 H          -2.2600   -1.9643    3.7120 H.spc      1 <1>        0.000
     18 H          -1.2467   -3.3831    1.8186 H.spc      1 <1>        0.000
@<TRIPOS>BOND
     1    6    9 2  
     2   10   13 2  
     3    7   10 1  
     4   10   12 1  
     5   10   11 1  
     6    1    2 1  
     7    2    3 1  
     8    2    4 1  
     9    2    5 2  
    10    3    6 1  
    11    6    7 1  
    12    6    8 1  
    13    1   14 1  
    14    4   15 1  
    15    8   16 1  
    16   11   17 1  
    17   12   18 1  
