#      Rotatable Fragment
#      Build by yxyuan
#
# Name:          frag5-578-42/41815
# Creation time: Sat Jun  5 12:52:55 2010


@<TRIPOS>MOLECULE
frag5-578-42/41815
   38    38     1     1     1
SMALL
USER_CHARGES


@<TRIPOS>ATOM
      1 C7         -0.6306    1.6969   -0.1049 C.3        1 <1>        0.000
      2 C8         -0.1962    2.4858   -1.3230 C.3        1 <1>        0.000
      3 C9          1.2758    2.5707   -1.6612 C.3        1 <1>        0.000
      4 C10         2.0932    1.2912   -1.6707 C.3        1 <1>        0.000
      5 C11         3.5494    1.4023   -1.2862 C.2        1 <1>        0.000
      6 C12         3.9860    2.2882   -0.1403 C.3        1 <1>        0.000
      7 C13         4.9352    1.7524    0.9078 C.3        1 <1>        0.000
      8 C14         5.6291    2.8046    1.7460 C.3        1 <1>        0.000
      9 C15         4.7291    3.8855    2.3092 C.3        1 <1>        0.000
     10 O3          3.5110    3.3891    2.8191 O.3        1 <1>        0.000
     11 C16         2.4243    4.1919    2.8495 C.2        1 <1>        0.000
     12 C17         1.0844    3.5143    3.0045 C.3        1 <1>        0.000
     13 C18         0.3415    3.2796    1.7131 C.3        1 <1>        0.000
     14 C19         0.1048    1.8754    1.2127 C.3        1 <1>        0.000
     15 O9          2.4734    5.4133    2.7189 O.2        1 <1>        0.000
     16 O12         4.3991    0.7570   -1.9086 O.2        1 <1>        0.000
     17 H          -0.4571    0.6557   -0.3766 H.spc      1 <1>        0.000
     18 H          -1.6443    2.0424    0.0981 H.spc      1 <1>        0.000
     19 H          -0.4934    3.5128   -1.1109 H.spc      1 <1>        0.000
     20 H          -0.6470    1.9653   -2.1679 H.spc      1 <1>        0.000
     21 H           1.7141    3.1825   -0.8727 H.spc      1 <1>        0.000
     22 H           1.3114    2.9387   -2.6866 H.spc      1 <1>        0.000
     23 H           1.6375    0.6424   -0.9228 H.spc      1 <1>        0.000
     24 H           2.0847    0.9413   -2.7030 H.spc      1 <1>        0.000
     25 H           3.0672    2.5006    0.4062 H.spc      1 <1>        0.000
     26 H           4.5352    3.1003   -0.6167 H.spc      1 <1>        0.000
     27 H           4.3381    1.1501    1.5925 H.spc      1 <1>        0.000
     28 H           5.7168    1.2108    0.3750 H.spc      1 <1>        0.000
     29 H           6.3421    3.3042    1.0902 H.spc      1 <1>        0.000
     30 H           6.0632    2.2851    2.6003 H.spc      1 <1>        0.000
     31 H           5.2615    4.3607    3.1332 H.spc      1 <1>        0.000
     32 H           4.4904    4.5715    1.4965 H.spc      1 <1>        0.000
     33 H           1.2740    2.5347    3.4432 H.spc      1 <1>        0.000
     34 H           0.4642    4.1743    3.6110 H.spc      1 <1>        0.000
     35 H          -0.6583    3.6700    1.9028 H.spc      1 <1>        0.000
     36 H           0.9754    3.7336    0.9514 H.spc      1 <1>        0.000
     37 H           1.0980    1.4584    1.0463 H.spc      1 <1>        0.000
     38 H          -0.5318    1.4064    1.9630 H.spc      1 <1>        0.000
@<TRIPOS>BOND
     1    7    8 1  
     2    1    2 1  
     3    5    6 1  
     4    1   14 1  
     5    4    5 1  
     6    2    3 1  
     7    3    4 1  
     8    6    7 1  
     9    5   16 2  
    10   13   14 1  
    11   12   13 1  
    12   11   12 1  
    13   11   15 2  
    14   10   11 1  
    15    9   10 1  
    16    8    9 1  
    17    1   17 1  
    18    1   18 1  
    19    2   19 1  
    20    2   20 1  
    21    3   21 1  
    22    3   22 1  
    23    4   23 1  
    24    4   24 1  
    25    6   25 1  
    26    6   26 1  
    27    7   27 1  
    28    7   28 1  
    29    8   29 1  
    30    8   30 1  
    31    9   31 1  
    32    9   32 1  
    33   12   33 1  
    34   12   34 1  
    35   13   35 1  
    36   13   36 1  
    37   14   37 1  
    38   14   38 1  
# Name:          frag5-578-42/41815
# Creation time: Sat Jun  5 12:52:55 2010


@<TRIPOS>MOLECULE
frag5-578-42/41815
   38    38     1     1     1
SMALL
USER_CHARGES


@<TRIPOS>ATOM
      1 C7          0.2702    2.9292    0.1836 C.3        1 <1>        0.000
      2 C8          0.8147    1.5642   -0.1936 C.3        1 <1>        0.000
      3 C9          1.4916    1.3484   -1.5361 C.3        1 <1>        0.000
      4 C10         2.6885    2.1715   -1.9665 C.3        1 <1>        0.000
      5 C11         4.0492    1.5268   -1.8291 C.2        1 <1>        0.000
      6 C12         5.1884    2.2251   -1.1321 C.3        1 <1>        0.000
      7 C13         5.2482    2.0673    0.3657 C.3        1 <1>        0.000
      8 C14         4.0597    2.4873    1.1862 C.3        1 <1>        0.000
      9 C15         4.1977    3.2517    2.4815 C.3        1 <1>        0.000
     10 O3          3.0289    3.3267    3.2667 O.3        1 <1>        0.000
     11 C16         2.0985    4.2415    2.8942 C.2        1 <1>        0.000
     12 C17         0.7037    4.0330    3.4126 C.3        1 <1>        0.000
     13 C18        -0.0187    2.8568    2.7950 C.3        1 <1>        0.000
     14 C19        -0.6291    2.9937    1.4095 C.3        1 <1>        0.000
     15 O9          2.2956    5.1836    2.1417 O.2        1 <1>        0.000
     16 O12         4.2222    0.3914   -2.2935 O.2        1 <1>        0.000
     17 H          -0.3459    3.2486   -0.6569 H.spc      1 <1>        0.000
     18 H           1.1393    3.5443    0.4170 H.spc      1 <1>        0.000
     19 H          -0.0671    0.9246   -0.2317 H.spc      1 <1>        0.000
     20 H           1.6019    1.3780    0.5369 H.spc      1 <1>        0.000
     21 H           0.7212    1.6148   -2.2597 H.spc      1 <1>        0.000
     22 H           1.8867    0.3349   -1.4663 H.spc      1 <1>        0.000
     23 H           2.5538    2.3586   -3.0318 H.spc      1 <1>        0.000
     24 H           2.7034    3.0414   -1.3099 H.spc      1 <1>        0.000
     25 H           5.0541    3.2902   -1.3211 H.spc      1 <1>        0.000
     26 H           6.1034    1.7792   -1.5222 H.spc      1 <1>        0.000
     27 H           5.3423    0.9944    0.5333 H.spc      1 <1>        0.000
     28 H           6.0586    2.7217    0.6867 H.spc      1 <1>        0.000
     29 H           3.6207    1.5396    1.4980 H.spc      1 <1>        0.000
     30 H           3.5378    3.1877    0.5342 H.spc      1 <1>        0.000
     31 H           4.9401    2.7217    3.0782 H.spc      1 <1>        0.000
     32 H           4.4584    4.2754    2.2127 H.spc      1 <1>        0.000
     33 H           0.7844    3.8353    4.4815 H.spc      1 <1>        0.000
     34 H           0.1319    4.9273    3.1650 H.spc      1 <1>        0.000
     35 H           0.7477    2.0897    2.6841 H.spc      1 <1>        0.000
     36 H          -0.8682    2.6779    3.4541 H.spc      1 <1>        0.000
     37 H          -1.2904    2.1326    1.3126 H.spc      1 <1>        0.000
     38 H          -1.0497    3.9991    1.3910 H.spc      1 <1>        0.000
@<TRIPOS>BOND
     1    7    8 1  
     2    1    2 1  
     3    5    6 1  
     4    1   14 1  
     5    4    5 1  
     6    2    3 1  
     7    3    4 1  
     8    6    7 1  
     9    5   16 2  
    10   13   14 1  
    11   12   13 1  
    12   11   12 1  
    13   11   15 2  
    14   10   11 1  
    15    9   10 1  
    16    8    9 1  
    17    1   17 1  
    18    1   18 1  
    19    2   19 1  
    20    2   20 1  
    21    3   21 1  
    22    3   22 1  
    23    4   23 1  
    24    4   24 1  
    25    6   25 1  
    26    6   26 1  
    27    7   27 1  
    28    7   28 1  
    29    8   29 1  
    30    8   30 1  
    31    9   31 1  
    32    9   32 1  
    33   12   33 1  
    34   12   34 1  
    35   13   35 1  
    36   13   36 1  
    37   14   37 1  
    38   14   38 1  
# Name:          frag5-578-42/41815
# Creation time: Sat Jun  5 12:52:55 2010


@<TRIPOS>MOLECULE
frag5-578-42/41815
   38    38     1     1     1
SMALL
USER_CHARGES


@<TRIPOS>ATOM
      1 C7         -0.0490    3.0141    0.1349 C.3        1 <1>        0.000
      2 C8          0.1529    1.9287   -0.9196 C.3        1 <1>        0.000
      3 C9          1.5149    1.3245   -1.1830 C.3        1 <1>        0.000
      4 C10         2.5873    2.1619   -1.8420 C.3        1 <1>        0.000
      5 C11         3.9862    1.6093   -1.7604 C.2        1 <1>        0.000
      6 C12         4.9010    2.0321   -0.6414 C.3        1 <1>        0.000
      7 C13         4.4614    1.6923    0.7509 C.3        1 <1>        0.000
      8 C14         5.0763    2.4263    1.9012 C.3        1 <1>        0.000
      9 C15         4.4469    3.7436    2.2423 C.3        1 <1>        0.000
     10 O3          3.3019    3.6352    3.0449 O.3        1 <1>        0.000
     11 C16         2.1694    4.2417    2.6834 C.2        1 <1>        0.000
     12 C17         0.9232    3.7763    3.3430 C.3        1 <1>        0.000
     13 C18         0.3298    2.5171    2.7423 C.3        1 <1>        0.000
     14 C19        -0.5816    2.6062    1.5174 C.3        1 <1>        0.000
     15 O9          2.0972    5.0757    1.7841 O.2        1 <1>        0.000
     16 O12         4.3916    0.8130   -2.6123 O.2        1 <1>        0.000
     17 H          -0.8105    3.6748   -0.2795 H.spc      1 <1>        0.000
     18 H           0.9462    3.4177    0.3215 H.spc      1 <1>        0.000
     19 H          -0.0959    2.4271   -1.8565 H.spc      1 <1>        0.000
     20 H          -0.4353    1.0906   -0.5458 H.spc      1 <1>        0.000
     21 H           1.3260    0.5139   -1.8868 H.spc      1 <1>        0.000
     22 H           1.9117    1.0961   -0.1938 H.spc      1 <1>        0.000
     23 H           2.3349    2.2104   -2.9013 H.spc      1 <1>        0.000
     24 H           2.6006    3.1170   -1.3169 H.spc      1 <1>        0.000
     25 H           4.9465    3.1203   -0.6852 H.spc      1 <1>        0.000
     26 H           5.8373    1.4970   -0.8001 H.spc      1 <1>        0.000
     27 H           3.4032    1.9516    0.7839 H.spc      1 <1>        0.000
     28 H           4.7521    0.6514    0.8925 H.spc      1 <1>        0.000
     29 H           6.1062    2.6408    1.6157 H.spc      1 <1>        0.000
     30 H           4.9519    1.7887    2.7764 H.spc      1 <1>        0.000
     31 H           5.1830    4.3190    2.8036 H.spc      1 <1>        0.000
     32 H           4.1431    4.2101    1.3052 H.spc      1 <1>        0.000
     33 H           1.1751    3.5488    4.3788 H.spc      1 <1>        0.000
     34 H           0.1831    4.5675    3.2233 H.spc      1 <1>        0.000
     35 H           1.1932    1.9482    2.3973 H.spc      1 <1>        0.000
     36 H          -0.3106    2.1172    3.5285 H.spc      1 <1>        0.000
     37 H          -0.9153    1.5789    1.3708 H.spc      1 <1>        0.000
     38 H          -1.2753    3.4076    1.7717 H.spc      1 <1>        0.000
@<TRIPOS>BOND
     1    7    8 1  
     2    1    2 1  
     3    5    6 1  
     4    1   14 1  
     5    4    5 1  
     6    2    3 1  
     7    3    4 1  
     8    6    7 1  
     9    5   16 2  
    10   13   14 1  
    11   12   13 1  
    12   11   12 1  
    13   11   15 2  
    14   10   11 1  
    15    9   10 1  
    16    8    9 1  
    17    1   17 1  
    18    1   18 1  
    19    2   19 1  
    20    2   20 1  
    21    3   21 1  
    22    3   22 1  
    23    4   23 1  
    24    4   24 1  
    25    6   25 1  
    26    6   26 1  
    27    7   27 1  
    28    7   28 1  
    29    8   29 1  
    30    8   30 1  
    31    9   31 1  
    32    9   32 1  
    33   12   33 1  
    34   12   34 1  
    35   13   35 1  
    36   13   36 1  
    37   14   37 1  
    38   14   38 1  
# Name:          frag5-578-42/41815
# Creation time: Sat Jun  5 12:52:55 2010


@<TRIPOS>MOLECULE
frag5-578-42/41815
   38    38     1     1     1
SMALL
USER_CHARGES


@<TRIPOS>ATOM
      1 C7         -0.7022    2.7144   -0.4190 C.3        1 <1>        0.000
      2 C8          0.5557    2.3414   -1.1654 C.3        1 <1>        0.000
      3 C9          1.4541    1.3077   -0.5283 C.3        1 <1>        0.000
      4 C10         2.5551    0.6830   -1.3398 C.3        1 <1>        0.000
      5 C11         3.9706    1.1541   -1.0487 C.2        1 <1>        0.000
      6 C12         4.4514    2.5295   -1.4097 C.3        1 <1>        0.000
      7 C13         4.1266    3.6790   -0.4794 C.3        1 <1>        0.000
      8 C14         4.8583    3.8246    0.8458 C.3        1 <1>        0.000
      9 C15         4.4761    2.9812    2.0490 C.3        1 <1>        0.000
     10 O3          3.0812    2.7951    2.2480 O.3        1 <1>        0.000
     11 C16         2.4397    3.5755    3.1404 C.2        1 <1>        0.000
     12 C17         0.9286    3.6025    3.0622 C.3        1 <1>        0.000
     13 C18         0.3727    3.8893    1.6770 C.3        1 <1>        0.000
     14 C19        -0.6172    2.8911    1.0842 C.3        1 <1>        0.000
     15 O9          3.0012    4.2587    3.9714 O.2        1 <1>        0.000
     16 O12         4.7574    0.3711   -0.5020 O.2        1 <1>        0.000
     17 H          -1.3858    1.8793   -0.5722 H.spc      1 <1>        0.000
     18 H          -0.9881    3.6918   -0.8077 H.spc      1 <1>        0.000
     19 H           1.1483    3.2544   -1.2223 H.spc      1 <1>        0.000
     20 H           0.2231    1.9050   -2.1072 H.spc      1 <1>        0.000
     21 H           0.7902    0.4799   -0.2790 H.spc      1 <1>        0.000
     22 H           1.9682    1.8424    0.2704 H.spc      1 <1>        0.000
     23 H           2.5377   -0.3803   -1.1005 H.spc      1 <1>        0.000
     24 H           2.3555    0.9556   -2.3761 H.spc      1 <1>        0.000
     25 H           3.9466    2.7702   -2.3453 H.spc      1 <1>        0.000
     26 H           5.5392    2.4600   -1.4060 H.spc      1 <1>        0.000
     27 H           4.4077    4.5692   -1.0421 H.spc      1 <1>        0.000
     28 H           3.0872    3.5120   -0.1968 H.spc      1 <1>        0.000
     29 H           4.6372    4.8452    1.1583 H.spc      1 <1>        0.000
     30 H           5.8782    3.5139    0.6193 H.spc      1 <1>        0.000
     31 H           4.9003    1.9913    1.8813 H.spc      1 <1>        0.000
     32 H           4.8472    3.5084    2.9279 H.spc      1 <1>        0.000
     33 H           0.5772    2.6109    3.3473 H.spc      1 <1>        0.000
     34 H           0.5903    4.4079    3.7141 H.spc      1 <1>        0.000
     35 H          -0.1806    4.8234    1.7743 H.spc      1 <1>        0.000
     36 H           1.2345    3.8740    1.0098 H.spc      1 <1>        0.000
     37 H          -0.2838    1.9219    1.4552 H.spc      1 <1>        0.000
     38 H          -1.5967    3.2742    1.3705 H.spc      1 <1>        0.000
@<TRIPOS>BOND
     1    7    8 1  
     2    1    2 1  
     3    5    6 1  
     4    1   14 1  
     5    4    5 1  
     6    2    3 1  
     7    3    4 1  
     8    6    7 1  
     9    5   16 2  
    10   13   14 1  
    11   12   13 1  
    12   11   12 1  
    13   11   15 2  
    14   10   11 1  
    15    9   10 1  
    16    8    9 1  
    17    1   17 1  
    18    1   18 1  
    19    2   19 1  
    20    2   20 1  
    21    3   21 1  
    22    3   22 1  
    23    4   23 1  
    24    4   24 1  
    25    6   25 1  
    26    6   26 1  
    27    7   27 1  
    28    7   28 1  
    29    8   29 1  
    30    8   30 1  
    31    9   31 1  
    32    9   32 1  
    33   12   33 1  
    34   12   34 1  
    35   13   35 1  
    36   13   36 1  
    37   14   37 1  
    38   14   38 1  
# Name:          frag5-578-42/41815
# Creation time: Sat Jun  5 12:52:55 2010


@<TRIPOS>MOLECULE
frag5-578-42/41815
   38    38     1     1     1
SMALL
USER_CHARGES


@<TRIPOS>ATOM
      1 C7         -0.1330    2.7437    0.1341 C.3        1 <1>        0.000
      2 C8          0.9037    1.7407   -0.3479 C.3        1 <1>        0.000
      3 C9          1.5880    2.1327   -1.6495 C.3        1 <1>        0.000
      4 C10         2.7366    1.3352   -2.2152 C.3        1 <1>        0.000
      5 C11         4.0025    1.1823   -1.3943 C.2        1 <1>        0.000
      6 C12         4.9496    2.3470   -1.1835 C.3        1 <1>        0.000
      7 C13         4.5459    3.4459   -0.2306 C.3        1 <1>        0.000
      8 C14         4.9613    3.3769    1.2222 C.3        1 <1>        0.000
      9 C15         4.0911    2.6247    2.2090 C.3        1 <1>        0.000
     10 O3          2.7044    2.8931    2.1817 O.3        1 <1>        0.000
     11 C16         2.2552    3.9686    2.8529 C.2        1 <1>        0.000
     12 C17         0.7891    4.2950    2.7596 C.3        1 <1>        0.000
     13 C18        -0.1341    3.1009    2.7613 C.3        1 <1>        0.000
     14 C19        -0.8100    2.6391    1.4830 C.3        1 <1>        0.000
     15 O9          2.9739    4.7059    3.5125 O.2        1 <1>        0.000
     16 O12         4.2853    0.0664   -0.9098 O.2        1 <1>        0.000
     17 H          -0.9552    2.6101   -0.5689 H.spc      1 <1>        0.000
     18 H           0.4340    3.6715    0.2107 H.spc      1 <1>        0.000
     19 H           0.3835    0.7998   -0.5273 H.spc      1 <1>        0.000
     20 H           1.6767    1.6820    0.4183 H.spc      1 <1>        0.000
     21 H           2.0330    3.1021   -1.4250 H.spc      1 <1>        0.000
     22 H           0.8031    2.0204   -2.3974 H.spc      1 <1>        0.000
     23 H           2.3484    0.3224   -2.3227 H.spc      1 <1>        0.000
     24 H           3.0450    1.8816   -3.1065 H.spc      1 <1>        0.000
     25 H           5.0256    2.8303   -2.1575 H.spc      1 <1>        0.000
     26 H           5.8461    1.9077   -0.7460 H.spc      1 <1>        0.000
     27 H           5.0437    4.3363   -0.6146 H.spc      1 <1>        0.000
     28 H           3.4572    3.3987   -0.2055 H.spc      1 <1>        0.000
     29 H           4.9413    4.4110    1.5662 H.spc      1 <1>        0.000
     30 H           5.9065    2.8341    1.2154 H.spc      1 <1>        0.000
     31 H           4.1938    1.5707    1.9509 H.spc      1 <1>        0.000
     32 H           4.4325    2.9306    3.1979 H.spc      1 <1>        0.000
     33 H           0.5419    4.8840    3.6428 H.spc      1 <1>        0.000
     34 H           0.6411    4.8047    1.8076 H.spc      1 <1>        0.000
     35 H           0.5107    2.2666    3.0375 H.spc      1 <1>        0.000
     36 H          -0.9603    3.4044    3.4042 H.spc      1 <1>        0.000
     37 H          -0.9259    1.5651    1.6285 H.spc      1 <1>        0.000
     38 H          -1.6672    3.3061    1.3915 H.spc      1 <1>        0.000
@<TRIPOS>BOND
     1    7    8 1  
     2    1    2 1  
     3    5    6 1  
     4    1   14 1  
     5    4    5 1  
     6    2    3 1  
     7    3    4 1  
     8    6    7 1  
     9    5   16 2  
    10   13   14 1  
    11   12   13 1  
    12   11   12 1  
    13   11   15 2  
    14   10   11 1  
    15    9   10 1  
    16    8    9 1  
    17    1   17 1  
    18    1   18 1  
    19    2   19 1  
    20    2   20 1  
    21    3   21 1  
    22    3   22 1  
    23    4   23 1  
    24    4   24 1  
    25    6   25 1  
    26    6   26 1  
    27    7   27 1  
    28    7   28 1  
    29    8   29 1  
    30    8   30 1  
    31    9   31 1  
    32    9   32 1  
    33   12   33 1  
    34   12   34 1  
    35   13   35 1  
    36   13   36 1  
    37   14   37 1  
    38   14   38 1  
# Name:          frag5-578-42/41815
# Creation time: Sat Jun  5 12:52:55 2010


@<TRIPOS>MOLECULE
frag5-578-42/41815
   38    38     1     1     1
SMALL
USER_CHARGES


@<TRIPOS>ATOM
      1 C7         -0.8316    2.5771   -0.0211 C.3        1 <1>        0.000
      2 C8          0.1379    1.7543   -0.8788 C.3        1 <1>        0.000
      3 C9          1.6107    2.0640   -0.7663 C.3        1 <1>        0.000
      4 C10         2.6316    1.0619   -1.2326 C.3        1 <1>        0.000
      5 C11         4.0194    1.6321   -1.4088 C.2        1 <1>        0.000
      6 C12         5.1609    1.3735   -0.4411 C.3        1 <1>        0.000
      7 C13         4.8881    1.2726    1.0449 C.3        1 <1>        0.000
      8 C14         5.2030    2.4714    1.9174 C.3        1 <1>        0.000
      9 C15         4.4460    3.7608    1.6855 C.3        1 <1>        0.000
     10 O3          3.0466    3.6503    1.6369 O.3        1 <1>        0.000
     11 C16         2.2643    4.3382    2.4955 C.2        1 <1>        0.000
     12 C17         0.7773    4.1554    2.3630 C.3        1 <1>        0.000
     13 C18         0.2806    2.7220    2.3789 C.3        1 <1>        0.000
     14 C19        -0.8746    2.3275    1.4852 C.3        1 <1>        0.000
     15 O9          2.7045    5.1048    3.3344 O.2        1 <1>        0.000
     16 O12         4.2447    2.3324   -2.4073 O.2        1 <1>        0.000
     17 H          -1.8249    2.3081   -0.3805 H.spc      1 <1>        0.000
     18 H          -0.4966    3.6089   -0.1271 H.spc      1 <1>        0.000
     19 H          -0.1283    1.9748   -1.9125 H.spc      1 <1>        0.000
     20 H           0.0293    0.7254   -0.5358 H.spc      1 <1>        0.000
     21 H           1.7880    2.1531    0.3055 H.spc      1 <1>        0.000
     22 H           1.7575    2.9245   -1.4190 H.spc      1 <1>        0.000
     23 H           2.6957    0.2873   -0.4684 H.spc      1 <1>        0.000
     24 H           2.3057    0.6991   -2.2074 H.spc      1 <1>        0.000
     25 H           5.8048    2.2474   -0.5405 H.spc      1 <1>        0.000
     26 H           5.5327    0.3867   -0.7168 H.spc      1 <1>        0.000
     27 H           3.8105    1.1324    1.1292 H.spc      1 <1>        0.000
     28 H           5.5429    0.4781    1.4029 H.spc      1 <1>        0.000
     29 H           6.2439    2.7123    1.7014 H.spc      1 <1>        0.000
     30 H           4.9339    2.1637    2.9279 H.spc      1 <1>        0.000
     31 H           4.6737    4.4071    2.5332 H.spc      1 <1>        0.000
     32 H           4.7590    4.1291    0.7085 H.spc      1 <1>        0.000
     33 H           0.3301    4.6444    3.2284 H.spc      1 <1>        0.000
     34 H           0.5038    4.5638    1.3901 H.spc      1 <1>        0.000
     35 H           1.1237    2.1318    2.0199 H.spc      1 <1>        0.000
     36 H          -0.0871    2.5666    3.3932 H.spc      1 <1>        0.000
     37 H          -0.9133    1.2415    1.5703 H.spc      1 <1>        0.000
     38 H          -1.6989    2.9511    1.8311 H.spc      1 <1>        0.000
@<TRIPOS>BOND
     1    7    8 1  
     2    1    2 1  
     3    5    6 1  
     4    1   14 1  
     5    4    5 1  
     6    2    3 1  
     7    3    4 1  
     8    6    7 1  
     9    5   16 2  
    10   13   14 1  
    11   12   13 1  
    12   11   12 1  
    13   11   15 2  
    14   10   11 1  
    15    9   10 1  
    16    8    9 1  
    17    1   17 1  
    18    1   18 1  
    19    2   19 1  
    20    2   20 1  
    21    3   21 1  
    22    3   22 1  
    23    4   23 1  
    24    4   24 1  
    25    6   25 1  
    26    6   26 1  
    27    7   27 1  
    28    7   28 1  
    29    8   29 1  
    30    8   30 1  
    31    9   31 1  
    32    9   32 1  
    33   12   33 1  
    34   12   34 1  
    35   13   35 1  
    36   13   36 1  
    37   14   37 1  
    38   14   38 1  
# Name:          frag5-578-42/41815
# Creation time: Sat Jun  5 12:52:55 2010


@<TRIPOS>MOLECULE
frag5-578-42/41815
   38    38     1     1     1
SMALL
USER_CHARGES


@<TRIPOS>ATOM
      1 C7         -0.4212    2.7872   -0.1044 C.3        1 <1>        0.000
      2 C8          0.4505    1.8844   -0.9545 C.3        1 <1>        0.000
      3 C9          1.7387    2.4462   -1.5138 C.3        1 <1>        0.000
      4 C10         2.6734    1.4868   -2.2162 C.3        1 <1>        0.000
      5 C11         3.8545    0.9707   -1.4153 C.2        1 <1>        0.000
      6 C12         5.1229    1.7960   -1.2443 C.3        1 <1>        0.000
      7 C13         5.0944    2.8904   -0.2108 C.3        1 <1>        0.000
      8 C14         4.4083    2.6445    1.1022 C.3        1 <1>        0.000
      9 C15         3.9732    3.8501    1.8974 C.3        1 <1>        0.000
     10 O3          3.3128    3.4628    3.0757 O.3        1 <1>        0.000
     11 C16         2.1453    4.0894    3.3022 C.2        1 <1>        0.000
     12 C17         0.9954    3.1877    3.6146 C.3        1 <1>        0.000
     13 C18         0.4646    2.5265    2.3652 C.3        1 <1>        0.000
     14 C19         0.1386    3.4065    1.1691 C.3        1 <1>        0.000
     15 O9          1.9989    5.2990    3.1723 O.2        1 <1>        0.000
     16 O12         3.7590   -0.1299   -0.8538 O.2        1 <1>        0.000
     17 H          -1.2293    2.1413    0.2390 H.spc      1 <1>        0.000
     18 H          -0.6407    3.6390   -0.7481 H.spc      1 <1>        0.000
     19 H          -0.1565    1.6395   -1.8261 H.spc      1 <1>        0.000
     20 H           0.7560    1.0752   -0.2912 H.spc      1 <1>        0.000
     21 H           2.2939    2.8188   -0.6530 H.spc      1 <1>        0.000
     22 H           1.4381    3.1699   -2.2714 H.spc      1 <1>        0.000
     23 H           2.0732    0.6107   -2.4618 H.spc      1 <1>        0.000
     24 H           3.0989    2.0421   -3.0521 H.spc      1 <1>        0.000
     25 H           5.2839    2.2945   -2.2002 H.spc      1 <1>        0.000
     26 H           5.8904    1.0959   -0.9143 H.spc      1 <1>        0.000
     27 H           6.1402    3.0552    0.0485 H.spc      1 <1>        0.000
     28 H           4.5260    3.6964   -0.6749 H.spc      1 <1>        0.000
     29 H           5.1415    2.1316    1.7247 H.spc      1 <1>        0.000
     30 H           3.4916    2.1077    0.8581 H.spc      1 <1>        0.000
     31 H           4.8562    4.4303    2.1653 H.spc      1 <1>        0.000
     32 H           3.2880    4.4416    1.2901 H.spc      1 <1>        0.000
     33 H           1.3376    2.4123    4.2999 H.spc      1 <1>        0.000
     34 H           0.1976    3.7827    4.0590 H.spc      1 <1>        0.000
     35 H           1.2641    1.8671    2.0273 H.spc      1 <1>        0.000
     36 H          -0.4843    2.0776    2.6587 H.spc      1 <1>        0.000
     37 H          -0.6556    4.0636    1.5236 H.spc      1 <1>        0.000
     38 H           1.0998    3.8237    0.8687 H.spc      1 <1>        0.000
@<TRIPOS>BOND
     1    7    8 1  
     2    1    2 1  
     3    5    6 1  
     4    1   14 1  
     5    4    5 1  
     6    2    3 1  
     7    3    4 1  
     8    6    7 1  
     9    5   16 2  
    10   13   14 1  
    11   12   13 1  
    12   11   12 1  
    13   11   15 2  
    14   10   11 1  
    15    9   10 1  
    16    8    9 1  
    17    1   17 1  
    18    1   18 1  
    19    2   19 1  
    20    2   20 1  
    21    3   21 1  
    22    3   22 1  
    23    4   23 1  
    24    4   24 1  
    25    6   25 1  
    26    6   26 1  
    27    7   27 1  
    28    7   28 1  
    29    8   29 1  
    30    8   30 1  
    31    9   31 1  
    32    9   32 1  
    33   12   33 1  
    34   12   34 1  
    35   13   35 1  
    36   13   36 1  
    37   14   37 1  
    38   14   38 1  
# Name:          frag5-578-42/41815
# Creation time: Sat Jun  5 12:52:55 2010


@<TRIPOS>MOLECULE
frag5-578-42/41815
   38    38     1     1     1
SMALL
USER_CHARGES


@<TRIPOS>ATOM
      1 C7         -0.8026    1.8677    0.1782 C.3        1 <1>        0.000
      2 C8          0.1567    1.6470   -0.9849 C.3        1 <1>        0.000
      3 C9          1.6545    1.6955   -0.8021 C.3        1 <1>        0.000
      4 C10         2.5631    1.7336   -2.0096 C.3        1 <1>        0.000
      5 C11         3.9867    1.2638   -1.7817 C.2        1 <1>        0.000
      6 C12         4.9481    2.0506   -0.9202 C.3        1 <1>        0.000
      7 C13         4.7662    1.9739    0.5702 C.3        1 <1>        0.000
      8 C14         5.3254    3.0825    1.4352 C.3        1 <1>        0.000
      9 C15         4.4432    3.5870    2.5529 C.3        1 <1>        0.000
     10 O3          3.1553    3.9575    2.1436 O.3        1 <1>        0.000
     11 C16         2.2582    4.3003    3.0765 C.2        1 <1>        0.000
     12 C17         0.8615    4.4625    2.5832 C.3        1 <1>        0.000
     13 C18         0.2148    3.1583    2.1903 C.3        1 <1>        0.000
     14 C19        -0.7209    3.1439    1.0048 C.3        1 <1>        0.000
     15 O9          2.5216    4.4542    4.2668 O.2        1 <1>        0.000
     16 O12         4.3776    0.2199   -2.3175 O.2        1 <1>        0.000
     17 H          -0.5621    1.0719    0.8831 H.spc      1 <1>        0.000
     18 H          -1.7878    1.9079   -0.2864 H.spc      1 <1>        0.000
     19 H          -0.0487    2.4852   -1.6507 H.spc      1 <1>        0.000
     20 H          -0.0331    0.6159   -1.2831 H.spc      1 <1>        0.000
     21 H           1.8989    0.7557   -0.3070 H.spc      1 <1>        0.000
     22 H           1.8363    2.6428   -0.2946 H.spc      1 <1>        0.000
     23 H           2.1288    1.0535   -2.7423 H.spc      1 <1>        0.000
     24 H           2.6292    2.7789   -2.3114 H.spc      1 <1>        0.000
     25 H           4.7882    3.0966   -1.1820 H.spc      1 <1>        0.000
     26 H           5.9330    1.6275   -1.1179 H.spc      1 <1>        0.000
     27 H           3.6879    2.0144    0.7240 H.spc      1 <1>        0.000
     28 H           5.3099    1.0793    0.8739 H.spc      1 <1>        0.000
     29 H           5.4796    3.9319    0.7697 H.spc      1 <1>        0.000
     30 H           6.2106    2.6676    1.9173 H.spc      1 <1>        0.000
     31 H           4.3319    2.7721    3.2683 H.spc      1 <1>        0.000
     32 H           4.9198    4.4777    2.9624 H.spc      1 <1>        0.000
     33 H           0.2728    4.8920    3.3938 H.spc      1 <1>        0.000
     34 H           0.8960    5.0945    1.6958 H.spc      1 <1>        0.000
     35 H           1.0406    2.5051    1.9085 H.spc      1 <1>        0.000
     36 H          -0.4033    2.8791    3.0436 H.spc      1 <1>        0.000
     37 H          -1.7186    3.2848    1.4207 H.spc      1 <1>        0.000
     38 H          -0.3400    3.9062    0.3251 H.spc      1 <1>        0.000
@<TRIPOS>BOND
     1    7    8 1  
     2    1    2 1  
     3    5    6 1  
     4    1   14 1  
     5    4    5 1  
     6    2    3 1  
     7    3    4 1  
     8    6    7 1  
     9    5   16 2  
    10   13   14 1  
    11   12   13 1  
    12   11   12 1  
    13   11   15 2  
    14   10   11 1  
    15    9   10 1  
    16    8    9 1  
    17    1   17 1  
    18    1   18 1  
    19    2   19 1  
    20    2   20 1  
    21    3   21 1  
    22    3   22 1  
    23    4   23 1  
    24    4   24 1  
    25    6   25 1  
    26    6   26 1  
    27    7   27 1  
    28    7   28 1  
    29    8   29 1  
    30    8   30 1  
    31    9   31 1  
    32    9   32 1  
    33   12   33 1  
    34   12   34 1  
    35   13   35 1  
    36   13   36 1  
    37   14   37 1  
    38   14   38 1  
# Name:          frag5-578-42/41815
# Creation time: Sat Jun  5 12:52:55 2010


@<TRIPOS>MOLECULE
frag5-578-42/41815
   38    38     1     1     1
SMALL
USER_CHARGES


@<TRIPOS>ATOM
      1 C7         -0.1297    2.6551   -0.4740 C.3        1 <1>        0.000
      2 C8          0.1704    1.1751   -0.2530 C.3        1 <1>        0.000
      3 C9          1.5663    0.6420   -0.4961 C.3        1 <1>        0.000
      4 C10         2.2282    1.1236   -1.7788 C.3        1 <1>        0.000
      5 C11         3.7235    1.3309   -1.7521 C.2        1 <1>        0.000
      6 C12         4.5054    1.3297   -0.4525 C.3        1 <1>        0.000
      7 C13         4.1683    2.4980    0.4485 C.3        1 <1>        0.000
      8 C14         4.8609    2.6354    1.7865 C.3        1 <1>        0.000
      9 C15         4.6191    3.9124    2.5667 C.3        1 <1>        0.000
     10 O3          3.3805    4.5686    2.4334 O.3        1 <1>        0.000
     11 C16         2.3266    4.0129    3.0723 C.2        1 <1>        0.000
     12 C17         0.9718    4.5977    2.8073 C.3        1 <1>        0.000
     13 C18         0.1235    3.7575    1.8785 C.3        1 <1>        0.000
     14 C19         0.4483    3.7499    0.4007 C.3        1 <1>        0.000
     15 O9          2.4226    3.0549    3.8117 O.2        1 <1>        0.000
     16 O12         4.3239    1.5544   -2.8134 O.2        1 <1>        0.000
     17 H          -1.2009    2.7237   -0.2847 H.spc      1 <1>        0.000
     18 H           0.3116    2.8563   -1.4502 H.spc      1 <1>        0.000
     19 H          -0.4502    0.6586   -0.9853 H.spc      1 <1>        0.000
     20 H           0.0002    1.0184    0.8122 H.spc      1 <1>        0.000
     21 H           1.4784   -0.4415   -0.5765 H.spc      1 <1>        0.000
     22 H           2.1851    0.9966    0.3281 H.spc      1 <1>        0.000
     23 H           2.0527    0.3381   -2.5138 H.spc      1 <1>        0.000
     24 H           1.7983    2.1044   -1.9819 H.spc      1 <1>        0.000
     25 H           5.5635    1.4017   -0.7041 H.spc      1 <1>        0.000
     26 H           4.2520    0.4154    0.0841 H.spc      1 <1>        0.000
     27 H           4.4790    3.3783   -0.1141 H.spc      1 <1>        0.000
     28 H           3.1158    2.3601    0.6961 H.spc      1 <1>        0.000
     29 H           5.9288    2.6204    1.5688 H.spc      1 <1>        0.000
     30 H           4.4658    1.8312    2.4072 H.spc      1 <1>        0.000
     31 H           4.6686    3.6154    3.6143 H.spc      1 <1>        0.000
     32 H           5.3546    4.6196    2.1833 H.spc      1 <1>        0.000
     33 H           0.4493    4.6600    3.7619 H.spc      1 <1>        0.000
     34 H           1.1206    5.5660    2.3293 H.spc      1 <1>        0.000
     35 H           0.2786    2.7298    2.2069 H.spc      1 <1>        0.000
     36 H          -0.8768    4.1853    1.9454 H.spc      1 <1>        0.000
     37 H           0.0184    4.6740    0.0143 H.spc      1 <1>        0.000
     38 H           1.5279    3.6076    0.3515 H.spc      1 <1>        0.000
@<TRIPOS>BOND
     1    7    8 1  
     2    1    2 1  
     3    5    6 1  
     4    1   14 1  
     5    4    5 1  
     6    2    3 1  
     7    3    4 1  
     8    6    7 1  
     9    5   16 2  
    10   13   14 1  
    11   12   13 1  
    12   11   12 1  
    13   11   15 2  
    14   10   11 1  
    15    9   10 1  
    16    8    9 1  
    17    1   17 1  
    18    1   18 1  
    19    2   19 1  
    20    2   20 1  
    21    3   21 1  
    22    3   22 1  
    23    4   23 1  
    24    4   24 1  
    25    6   25 1  
    26    6   26 1  
    27    7   27 1  
    28    7   28 1  
    29    8   29 1  
    30    8   30 1  
    31    9   31 1  
    32    9   32 1  
    33   12   33 1  
    34   12   34 1  
    35   13   35 1  
    36   13   36 1  
    37   14   37 1  
    38   14   38 1  
# Name:          frag5-578-42/41815
# Creation time: Sat Jun  5 12:52:55 2010


@<TRIPOS>MOLECULE
frag5-578-42/41815
   38    38     1     1     1
SMALL
USER_CHARGES


@<TRIPOS>ATOM
      1 C7         -0.2103    3.1019   -0.4209 C.3        1 <1>        0.000
      2 C8          0.8391    2.3827   -1.2545 C.3        1 <1>        0.000
      3 C9          1.2512    0.9727   -0.8721 C.3        1 <1>        0.000
      4 C10         2.3827    0.3185   -1.6285 C.3        1 <1>        0.000
      5 C11         3.7999    0.8044   -1.4330 C.2        1 <1>        0.000
      6 C12         4.2880    1.4205   -0.1486 C.3        1 <1>        0.000
      7 C13         4.3804    2.9216   -0.1835 C.3        1 <1>        0.000
      8 C14         5.0987    3.5854    0.9719 C.3        1 <1>        0.000
      9 C15         4.2791    3.9770    2.1933 C.3        1 <1>        0.000
     10 O3          2.9737    3.4593    2.3296 O.3        1 <1>        0.000
     11 C16         2.2251    3.9352    3.3539 C.2        1 <1>        0.000
     12 C17         0.7374    3.6769    3.3691 C.3        1 <1>        0.000
     13 C18         0.1920    2.9835    2.1453 C.3        1 <1>        0.000
     14 C19         0.1659    3.7887    0.8654 C.3        1 <1>        0.000
     15 O9          2.7047    4.5982    4.2702 O.2        1 <1>        0.000
     16 O12         4.6019    0.6718   -2.3721 O.2        1 <1>        0.000
     17 H          -0.8922    2.3102   -0.1105 H.spc      1 <1>        0.000
     18 H          -0.5527    3.9119   -1.0650 H.spc      1 <1>        0.000
     19 H           1.7442    2.9789   -1.1382 H.spc      1 <1>        0.000
     20 H           0.3902    2.2836   -2.2428 H.spc      1 <1>        0.000
     21 H           0.3771    0.3556   -1.0798 H.spc      1 <1>        0.000
     22 H           1.6045    1.0495    0.1562 H.spc      1 <1>        0.000
     23 H           2.3942   -0.7099   -1.2673 H.spc      1 <1>        0.000
     24 H           2.1655    0.5241   -2.6767 H.spc      1 <1>        0.000
     25 H           5.2936    1.0396    0.0300 H.spc      1 <1>        0.000
     26 H           3.5688    1.1597    0.6278 H.spc      1 <1>        0.000
     27 H           4.9566    3.1663   -1.0758 H.spc      1 <1>        0.000
     28 H           3.3539    3.2865   -0.1485 H.spc      1 <1>        0.000
     29 H           5.4862    4.5222    0.5714 H.spc      1 <1>        0.000
     30 H           5.8154    2.8462    1.3297 H.spc      1 <1>        0.000
     31 H           4.8316    3.5783    3.0441 H.spc      1 <1>        0.000
     32 H           4.1482    5.0560    2.1118 H.spc      1 <1>        0.000
     33 H           0.5434    3.0170    4.2147 H.spc      1 <1>        0.000
     34 H           0.2515    4.6514    3.4187 H.spc      1 <1>        0.000
     35 H           0.8560    2.1399    1.9565 H.spc      1 <1>        0.000
     36 H          -0.8472    2.7457    2.3723 H.spc      1 <1>        0.000
     37 H          -0.6098    4.5385    1.0209 H.spc      1 <1>        0.000
     38 H           1.1951    4.1163    0.7185 H.spc      1 <1>        0.000
@<TRIPOS>BOND
     1    7    8 1  
     2    1    2 1  
     3    5    6 1  
     4    1   14 1  
     5    4    5 1  
     6    2    3 1  
     7    3    4 1  
     8    6    7 1  
     9    5   16 2  
    10   13   14 1  
    11   12   13 1  
    12   11   12 1  
    13   11   15 2  
    14   10   11 1  
    15    9   10 1  
    16    8    9 1  
    17    1   17 1  
    18    1   18 1  
    19    2   19 1  
    20    2   20 1  
    21    3   21 1  
    22    3   22 1  
    23    4   23 1  
    24    4   24 1  
    25    6   25 1  
    26    6   26 1  
    27    7   27 1  
    28    7   28 1  
    29    8   29 1  
    30    8   30 1  
    31    9   31 1  
    32    9   32 1  
    33   12   33 1  
    34   12   34 1  
    35   13   35 1  
    36   13   36 1  
    37   14   37 1  
    38   14   38 1  
# Name:          frag5-578-42/41815
# Creation time: Sat Jun  5 12:52:55 2010


@<TRIPOS>MOLECULE
frag5-578-42/41815
   38    38     1     1     1
SMALL
USER_CHARGES


@<TRIPOS>ATOM
      1 C7         -0.7952    2.2332   -0.0717 C.3        1 <1>        0.000
      2 C8          0.1161    2.0796   -1.2672 C.3        1 <1>        0.000
      3 C9          1.5897    1.8501   -1.0116 C.3        1 <1>        0.000
      4 C10         2.5515    1.5108   -2.1179 C.3        1 <1>        0.000
      5 C11         3.9381    1.0379   -1.6962 C.2        1 <1>        0.000
      6 C12         4.9003    1.9300   -0.9504 C.3        1 <1>        0.000
      7 C13         4.6140    2.2196    0.4964 C.3        1 <1>        0.000
      8 C14         5.0384    3.5302    1.1185 C.3        1 <1>        0.000
      9 C15         4.5238    3.8414    2.5188 C.3        1 <1>        0.000
     10 O3          3.2238    3.3716    2.7783 O.3        1 <1>        0.000
     11 C16         2.2768    4.1965    3.2544 C.2        1 <1>        0.000
     12 C17         0.8532    3.7105    3.2187 C.3        1 <1>        0.000
     13 C18         0.5137    2.7209    2.1273 C.3        1 <1>        0.000
     14 C19        -0.4730    3.1563    1.0694 C.3        1 <1>        0.000
     15 O9          2.5289    5.3078    3.7137 O.2        1 <1>        0.000
     16 O12         4.3093   -0.0983   -1.9949 O.2        1 <1>        0.000
     17 H          -0.7792    1.2452    0.3885 H.spc      1 <1>        0.000
     18 H          -1.7023    2.6624   -0.4972 H.spc      1 <1>        0.000
     19 H           0.0591    3.0297   -1.7984 H.spc      1 <1>        0.000
     20 H          -0.2311    1.1840   -1.7825 H.spc      1 <1>        0.000
     21 H           1.6035    0.9614   -0.3806 H.spc      1 <1>        0.000
     22 H           1.9408    2.8192   -0.6571 H.spc      1 <1>        0.000
     23 H           2.1029    0.6798   -2.6623 H.spc      1 <1>        0.000
     24 H           2.7055    2.4341   -2.6764 H.spc      1 <1>        0.000
     25 H           4.8509    2.8952   -1.4545 H.spc      1 <1>        0.000
     26 H           5.8522    1.3991   -0.9569 H.spc      1 <1>        0.000
     27 H           3.5257    2.2359    0.5554 H.spc      1 <1>        0.000
     28 H           5.1886    1.4683    1.0381 H.spc      1 <1>        0.000
     29 H           4.6277    4.3080    0.4747 H.spc      1 <1>        0.000
     30 H           6.1232    3.4749    1.2094 H.spc      1 <1>        0.000
     31 H           5.1903    3.3427    3.2225 H.spc      1 <1>        0.000
     32 H           4.4967    4.9268    2.6156 H.spc      1 <1>        0.000
     33 H           0.6843    3.1926    4.1628 H.spc      1 <1>        0.000
     34 H           0.2356    4.5898    3.0356 H.spc      1 <1>        0.000
     35 H           1.4485    2.5378    1.5975 H.spc      1 <1>        0.000
     36 H           0.0460    1.8764    2.6335 H.spc      1 <1>        0.000
     37 H          -1.4159    3.2732    1.6037 H.spc      1 <1>        0.000
     38 H          -0.0083    4.0232    0.5996 H.spc      1 <1>        0.000
@<TRIPOS>BOND
     1    7    8 1  
     2    1    2 1  
     3    5    6 1  
     4    1   14 1  
     5    4    5 1  
     6    2    3 1  
     7    3    4 1  
     8    6    7 1  
     9    5   16 2  
    10   13   14 1  
    11   12   13 1  
    12   11   12 1  
    13   11   15 2  
    14   10   11 1  
    15    9   10 1  
    16    8    9 1  
    17    1   17 1  
    18    1   18 1  
    19    2   19 1  
    20    2   20 1  
    21    3   21 1  
    22    3   22 1  
    23    4   23 1  
    24    4   24 1  
    25    6   25 1  
    26    6   26 1  
    27    7   27 1  
    28    7   28 1  
    29    8   29 1  
    30    8   30 1  
    31    9   31 1  
    32    9   32 1  
    33   12   33 1  
    34   12   34 1  
    35   13   35 1  
    36   13   36 1  
    37   14   37 1  
    38   14   38 1  
# Name:          frag5-578-42/41815
# Creation time: Sat Jun  5 12:52:55 2010


@<TRIPOS>MOLECULE
frag5-578-42/41815
   38    38     1     1     1
SMALL
USER_CHARGES


@<TRIPOS>ATOM
      1 C7         -0.5651    1.8500    0.0715 C.3        1 <1>        0.000
      2 C8          0.0690    2.4782   -1.1496 C.3        1 <1>        0.000
      3 C9          1.5802    2.5807   -1.2077 C.3        1 <1>        0.000
      4 C10         2.3724    1.4248   -1.7539 C.3        1 <1>        0.000
      5 C11         3.7709    1.1593   -1.2266 C.2        1 <1>        0.000
      6 C12         4.8537    2.2130   -1.1038 C.3        1 <1>        0.000
      7 C13         4.7712    3.2285    0.0159 C.3        1 <1>        0.000
      8 C14         5.0532    2.8053    1.4476 C.3        1 <1>        0.000
      9 C15         4.6610    3.7810    2.5475 C.3        1 <1>        0.000
     10 O3          3.4030    4.4229    2.4476 O.3        1 <1>        0.000
     11 C16         2.3321    3.7055    2.8402 C.2        1 <1>        0.000
     12 C17         0.9706    4.3339    2.7425 C.3        1 <1>        0.000
     13 C18         0.0059    3.7647    1.7301 C.3        1 <1>        0.000
     14 C19        -0.0586    2.2821    1.4287 C.3        1 <1>        0.000
     15 O9          2.4330    2.5708    3.2788 O.2        1 <1>        0.000
     16 O12         4.0570   -0.0026   -0.9231 O.2        1 <1>        0.000
     17 H          -0.3397    0.7858    0.0018 H.spc      1 <1>        0.000
     18 H          -1.6126    2.1499    0.0426 H.spc      1 <1>        0.000
     19 H          -0.2871    3.5084   -1.1576 H.spc      1 <1>        0.000
     20 H          -0.2047    1.8270   -1.9798 H.spc      1 <1>        0.000
     21 H           1.8946    2.6685   -0.1677 H.spc      1 <1>        0.000
     22 H           1.7784    3.4043   -1.8936 H.spc      1 <1>        0.000
     23 H           1.7995    0.5408   -1.4741 H.spc      1 <1>        0.000
     24 H           2.5153    1.6618   -2.8082 H.spc      1 <1>        0.000
     25 H           4.7778    2.7997   -2.0193 H.spc      1 <1>        0.000
     26 H           5.7676    1.6528   -0.9062 H.spc      1 <1>        0.000
     27 H           5.5539    3.9515   -0.2137 H.spc      1 <1>        0.000
     28 H           3.7268    3.5403    0.0246 H.spc      1 <1>        0.000
     29 H           6.1356    2.6976    1.5180 H.spc      1 <1>        0.000
     30 H           4.4541    1.9105    1.6165 H.spc      1 <1>        0.000
     31 H           4.6104    3.1850    3.4587 H.spc      1 <1>        0.000
     32 H           5.3991    4.5817    2.5010 H.spc      1 <1>        0.000
     33 H           0.5038    4.1709    3.7139 H.spc      1 <1>        0.000
     34 H           1.1463    5.3636    2.4311 H.spc      1 <1>        0.000
     35 H          -0.9727    3.9820    2.1582 H.spc      1 <1>        0.000
     36 H           0.3344    4.2037    0.7880 H.spc      1 <1>        0.000
     37 H           0.9735    1.9345    1.4742 H.spc      1 <1>        0.000
     38 H          -0.7719    1.8741    2.1448 H.spc      1 <1>        0.000
@<TRIPOS>BOND
     1    7    8 1  
     2    1    2 1  
     3    5    6 1  
     4    1   14 1  
     5    4    5 1  
     6    2    3 1  
     7    3    4 1  
     8    6    7 1  
     9    5   16 2  
    10   13   14 1  
    11   12   13 1  
    12   11   12 1  
    13   11   15 2  
    14   10   11 1  
    15    9   10 1  
    16    8    9 1  
    17    1   17 1  
    18    1   18 1  
    19    2   19 1  
    20    2   20 1  
    21    3   21 1  
    22    3   22 1  
    23    4   23 1  
    24    4   24 1  
    25    6   25 1  
    26    6   26 1  
    27    7   27 1  
    28    7   28 1  
    29    8   29 1  
    30    8   30 1  
    31    9   31 1  
    32    9   32 1  
    33   12   33 1  
    34   12   34 1  
    35   13   35 1  
    36   13   36 1  
    37   14   37 1  
    38   14   38 1  
# Name:          frag5-578-42/41815
# Creation time: Sat Jun  5 12:52:55 2010


@<TRIPOS>MOLECULE
frag5-578-42/41815
   38    38     1     1     1
SMALL
USER_CHARGES


@<TRIPOS>ATOM
      1 C7         -0.7193    2.1154    0.1148 C.3        1 <1>        0.000
      2 C8          0.2568    2.5371   -0.9648 C.3        1 <1>        0.000
      3 C9          1.4152    1.5996   -1.1686 C.3        1 <1>        0.000
      4 C10         2.6718    2.0759   -1.8499 C.3        1 <1>        0.000
      5 C11         3.8649    1.2138   -1.4928 C.2        1 <1>        0.000
      6 C12         4.4456    1.2480   -0.0990 C.3        1 <1>        0.000
      7 C13         5.1696    2.5365    0.2280 C.3        1 <1>        0.000
      8 C14         5.4734    2.8123    1.6937 C.3        1 <1>        0.000
      9 C15         4.4778    3.7362    2.3895 C.3        1 <1>        0.000
     10 O3          3.1212    3.4077    2.2051 O.3        1 <1>        0.000
     11 C16         2.2200    4.2459    2.7358 C.2        1 <1>        0.000
     12 C17         0.8738    4.3153    2.0824 C.3        1 <1>        0.000
     13 C18        -0.1373    3.2646    2.4052 C.3        1 <1>        0.000
     14 C19        -0.2764    2.0177    1.5654 C.3        1 <1>        0.000
     15 O9          2.4700    4.9905    3.6815 O.2        1 <1>        0.000
     16 O12         4.3823    0.4817   -2.3406 O.2        1 <1>        0.000
     17 H          -0.9871    1.0930   -0.1520 H.spc      1 <1>        0.000
     18 H          -1.4713    2.9045    0.1178 H.spc      1 <1>        0.000
     19 H           0.6754    3.4951   -0.6564 H.spc      1 <1>        0.000
     20 H          -0.2991    2.5618   -1.9021 H.spc      1 <1>        0.000
     21 H           1.0242    0.8295   -1.8335 H.spc      1 <1>        0.000
     22 H           1.7366    1.3457   -0.1585 H.spc      1 <1>        0.000
     23 H           2.5194    2.0214   -2.9278 H.spc      1 <1>        0.000
     24 H           2.8747    3.0954   -1.5218 H.spc      1 <1>        0.000
     25 H           5.1729    0.4391   -0.0293 H.spc      1 <1>        0.000
     26 H           3.6161    1.1537    0.6018 H.spc      1 <1>        0.000
     27 H           6.1385    2.4647   -0.2662 H.spc      1 <1>        0.000
     28 H           4.5045    3.3386   -0.0920 H.spc      1 <1>        0.000
     29 H           6.4435    3.3081    1.7284 H.spc      1 <1>        0.000
     30 H           5.4320    1.8541    2.2117 H.spc      1 <1>        0.000
     31 H           4.6750    3.6587    3.4587 H.spc      1 <1>        0.000
     32 H           4.6198    4.7279    1.9600 H.spc      1 <1>        0.000
     33 H           0.4352    5.2480    2.4372 H.spc      1 <1>        0.000
     34 H           1.0707    4.2000    1.0166 H.spc      1 <1>        0.000
     35 H           0.1800    2.8887    3.3779 H.spc      1 <1>        0.000
     36 H          -1.0921    3.7739    2.2744 H.spc      1 <1>        0.000
     37 H           0.7346    1.6138    1.5124 H.spc      1 <1>        0.000
     38 H          -1.0702    1.4513    2.0525 H.spc      1 <1>        0.000
@<TRIPOS>BOND
     1    7    8 1  
     2    1    2 1  
     3    5    6 1  
     4    1   14 1  
     5    4    5 1  
     6    2    3 1  
     7    3    4 1  
     8    6    7 1  
     9    5   16 2  
    10   13   14 1  
    11   12   13 1  
    12   11   12 1  
    13   11   15 2  
    14   10   11 1  
    15    9   10 1  
    16    8    9 1  
    17    1   17 1  
    18    1   18 1  
    19    2   19 1  
    20    2   20 1  
    21    3   21 1  
    22    3   22 1  
    23    4   23 1  
    24    4   24 1  
    25    6   25 1  
    26    6   26 1  
    27    7   27 1  
    28    7   28 1  
    29    8   29 1  
    30    8   30 1  
    31    9   31 1  
    32    9   32 1  
    33   12   33 1  
    34   12   34 1  
    35   13   35 1  
    36   13   36 1  
    37   14   37 1  
    38   14   38 1  
# Name:          frag5-578-42/41815
# Creation time: Sat Jun  5 12:52:55 2010


@<TRIPOS>MOLECULE
frag5-578-42/41815
   38    38     1     1     1
SMALL
USER_CHARGES


@<TRIPOS>ATOM
      1 C7         -0.9540    2.2381    0.2282 C.3        1 <1>        0.000
      2 C8          0.0328    1.4386   -0.6093 C.3        1 <1>        0.000
      3 C9          1.4934    1.8305   -0.5713 C.3        1 <1>        0.000
      4 C10         2.5409    1.1406   -1.4013 C.3        1 <1>        0.000
      5 C11         3.9702    1.4554   -1.0137 C.2        1 <1>        0.000
      6 C12         4.5777    2.8221   -1.2105 C.3        1 <1>        0.000
      7 C13         4.4934    3.7955   -0.0658 C.3        1 <1>        0.000
      8 C14         5.1890    3.5379    1.2487 C.3        1 <1>        0.000
      9 C15         4.6028    2.5200    2.1992 C.3        1 <1>        0.000
     10 O3          3.2039    2.3827    2.2762 O.3        1 <1>        0.000
     11 C16         2.4276    3.3756    2.7321 C.2        1 <1>        0.000
     12 C17         0.9372    3.2463    2.5660 C.3        1 <1>        0.000
     13 C18         0.3908    4.1434    1.4804 C.3        1 <1>        0.000
     14 C19        -0.7405    3.6983    0.5752 C.3        1 <1>        0.000
     15 O9          2.8823    4.3976    3.2390 O.2        1 <1>        0.000
     16 O12         4.6619    0.5756   -0.4877 O.2        1 <1>        0.000
     17 H          -0.9179    1.7425    1.1983 H.spc      1 <1>        0.000
     18 H          -1.8506    2.2566   -0.3914 H.spc      1 <1>        0.000
     19 H          -0.2777    1.5945   -1.6424 H.spc      1 <1>        0.000
     20 H          -0.0021    0.4275   -0.2036 H.spc      1 <1>        0.000
     21 H           1.7894    1.5965    0.4513 H.spc      1 <1>        0.000
     22 H           1.4907    2.8469   -0.9650 H.spc      1 <1>        0.000
     23 H           2.4032    0.0691   -1.2564 H.spc      1 <1>        0.000
     24 H           2.4087    1.4855   -2.4268 H.spc      1 <1>        0.000
     25 H           4.0133    3.2782   -2.0238 H.spc      1 <1>        0.000
     26 H           5.6421    2.6485   -1.3684 H.spc      1 <1>        0.000
     27 H           4.9878    4.6882   -0.4490 H.spc      1 <1>        0.000
     28 H           3.4356    3.7939    0.1972 H.spc      1 <1>        0.000
     29 H           5.1373    4.4856    1.7847 H.spc      1 <1>        0.000
     30 H           6.1659    3.1384    0.9764 H.spc      1 <1>        0.000
     31 H           4.9593    1.5571    1.8335 H.spc      1 <1>        0.000
     32 H           4.9066    2.8550    3.1910 H.spc      1 <1>        0.000
     33 H           0.7199    2.2149    2.2883 H.spc      1 <1>        0.000
     34 H           0.4695    3.5367    3.5067 H.spc      1 <1>        0.000
     35 H          -0.0321    4.9853    2.0286 H.spc      1 <1>        0.000
     36 H           1.2329    4.2689    0.7999 H.spc      1 <1>        0.000
     37 H          -1.6385    3.9662    1.1319 H.spc      1 <1>        0.000
     38 H          -0.5026    4.1602   -0.3830 H.spc      1 <1>        0.000
@<TRIPOS>BOND
     1    7    8 1  
     2    1    2 1  
     3    5    6 1  
     4    1   14 1  
     5    4    5 1  
     6    2    3 1  
     7    3    4 1  
     8    6    7 1  
     9    5   16 2  
    10   13   14 1  
    11   12   13 1  
    12   11   12 1  
    13   11   15 2  
    14   10   11 1  
    15    9   10 1  
    16    8    9 1  
    17    1   17 1  
    18    1   18 1  
    19    2   19 1  
    20    2   20 1  
    21    3   21 1  
    22    3   22 1  
    23    4   23 1  
    24    4   24 1  
    25    6   25 1  
    26    6   26 1  
    27    7   27 1  
    28    7   28 1  
    29    8   29 1  
    30    8   30 1  
    31    9   31 1  
    32    9   32 1  
    33   12   33 1  
    34   12   34 1  
    35   13   35 1  
    36   13   36 1  
    37   14   37 1  
    38   14   38 1  
# Name:          frag5-578-42/41815
# Creation time: Sat Jun  5 12:52:55 2010


@<TRIPOS>MOLECULE
frag5-578-42/41815
   38    38     1     1     1
SMALL
USER_CHARGES


@<TRIPOS>ATOM
      1 C7          0.1569    3.4494   -0.0599 C.3        1 <1>        0.000
      2 C8          1.2213    2.7387   -0.8329 C.3        1 <1>        0.000
      3 C9          1.3396    1.2769   -1.1489 C.3        1 <1>        0.000
      4 C10         2.4195    0.8392   -2.1280 C.3        1 <1>        0.000
      5 C11         3.8475    0.8726   -1.6354 C.2        1 <1>        0.000
      6 C12         4.5114    2.1539   -1.2049 C.3        1 <1>        0.000
      7 C13         4.6680    2.2869    0.2885 C.3        1 <1>        0.000
      8 C14         4.9433    3.6554    0.8671 C.3        1 <1>        0.000
      9 C15         4.1892    4.0569    2.1161 C.3        1 <1>        0.000
     10 O3          2.8072    3.7865    2.1249 O.3        1 <1>        0.000
     11 C16         2.1250    4.0225    3.2507 C.2        1 <1>        0.000
     12 C17         0.6864    3.6316    3.3410 C.3        1 <1>        0.000
     13 C18         0.1982    2.5415    2.4190 C.3        1 <1>        0.000
     14 C19        -0.5325    2.8980    1.1456 C.3        1 <1>        0.000
     15 O9          2.6359    4.5692    4.2287 O.2        1 <1>        0.000
     16 O12         4.4924   -0.1811   -1.5860 O.2        1 <1>        0.000
     17 H          -0.6547    3.5148   -0.7845 H.spc      1 <1>        0.000
     18 H           0.6955    4.3044    0.3488 H.spc      1 <1>        0.000
     19 H           2.0765    2.8727   -0.1705 H.spc      1 <1>        0.000
     20 H           1.0561    3.1487   -1.8293 H.spc      1 <1>        0.000
     21 H           0.3954    1.0073   -1.6221 H.spc      1 <1>        0.000
     22 H           1.5963    0.7979   -0.2040 H.spc      1 <1>        0.000
     23 H           2.2081   -0.2055   -2.3563 H.spc      1 <1>        0.000
     24 H           2.3741    1.5463   -2.9563 H.spc      1 <1>        0.000
     25 H           3.8787    2.9759   -1.5396 H.spc      1 <1>        0.000
     26 H           5.5114    2.1631   -1.6384 H.spc      1 <1>        0.000
     27 H           3.7041    1.9915    0.7030 H.spc      1 <1>        0.000
     28 H           5.5465    1.6913    0.5365 H.spc      1 <1>        0.000
     29 H           4.6332    4.3641    0.0992 H.spc      1 <1>        0.000
     30 H           5.9952    3.6447    1.1527 H.spc      1 <1>        0.000
     31 H           4.6179    3.4727    2.9303 H.spc      1 <1>        0.000
     32 H           4.2870    5.1397    2.1947 H.spc      1 <1>        0.000
     33 H           0.5521    3.2426    4.3503 H.spc      1 <1>        0.000
     34 H           0.1235    4.5228    3.0636 H.spc      1 <1>        0.000
     35 H           1.1072    2.0441    2.0808 H.spc      1 <1>        0.000
     36 H          -0.5363    1.9943    3.0099 H.spc      1 <1>        0.000
     37 H          -0.9098    1.9363    0.7980 H.spc      1 <1>        0.000
     38 H          -1.1853    3.7147    1.4539 H.spc      1 <1>        0.000
@<TRIPOS>BOND
     1    7    8 1  
     2    1    2 1  
     3    5    6 1  
     4    1   14 1  
     5    4    5 1  
     6    2    3 1  
     7    3    4 1  
     8    6    7 1  
     9    5   16 2  
    10   13   14 1  
    11   12   13 1  
    12   11   12 1  
    13   11   15 2  
    14   10   11 1  
    15    9   10 1  
    16    8    9 1  
    17    1   17 1  
    18    1   18 1  
    19    2   19 1  
    20    2   20 1  
    21    3   21 1  
    22    3   22 1  
    23    4   23 1  
    24    4   24 1  
    25    6   25 1  
    26    6   26 1  
    27    7   27 1  
    28    7   28 1  
    29    8   29 1  
    30    8   30 1  
    31    9   31 1  
    32    9   32 1  
    33   12   33 1  
    34   12   34 1  
    35   13   35 1  
    36   13   36 1  
    37   14   37 1  
    38   14   38 1  
# Name:          frag5-578-42/41815
# Creation time: Sat Jun  5 12:52:55 2010


@<TRIPOS>MOLECULE
frag5-578-42/41815
   38    38     1     1     1
SMALL
USER_CHARGES


@<TRIPOS>ATOM
      1 C7         -0.4678    2.4940   -0.5267 C.3        1 <1>        0.000
      2 C8         -0.1136    1.0225   -0.6498 C.3        1 <1>        0.000
      3 C9          1.3228    0.5274   -0.6344 C.3        1 <1>        0.000
      4 C10         2.2819    1.0365   -1.6916 C.3        1 <1>        0.000
      5 C11         3.4254    1.9358   -1.2610 C.2        1 <1>        0.000
      6 C12         4.2473    1.6640   -0.0162 C.3        1 <1>        0.000
      7 C13         4.9976    2.8543    0.5401 C.3        1 <1>        0.000
      8 C14         5.5016    2.8518    1.9698 C.3        1 <1>        0.000
      9 C15         4.5090    2.7831    3.1175 C.3        1 <1>        0.000
     10 O3          3.1469    2.8723    2.7921 O.3        1 <1>        0.000
     11 C16         2.7021    4.1019    2.4624 C.2        1 <1>        0.000
     12 C17         1.4771    4.1866    1.6039 C.3        1 <1>        0.000
     13 C18         0.3915    3.1779    1.8579 C.3        1 <1>        0.000
     14 C19        -0.7262    3.0759    0.8484 C.3        1 <1>        0.000
     15 O9          3.2895    5.1277    2.7655 O.2        1 <1>        0.000
     16 O12         3.7243    2.8866   -1.9921 O.2        1 <1>        0.000
     17 H          -1.4134    2.6003   -1.0584 H.spc      1 <1>        0.000
     18 H           0.4094    3.0254   -0.8958 H.spc      1 <1>        0.000
     19 H          -0.4607    0.7613   -1.6495 H.spc      1 <1>        0.000
     20 H          -0.5427    0.5826    0.2505 H.spc      1 <1>        0.000
     21 H           1.2534   -0.5462   -0.8095 H.spc      1 <1>        0.000
     22 H           1.7328    0.8797    0.3121 H.spc      1 <1>        0.000
     23 H           2.7589    0.1439   -2.0964 H.spc      1 <1>        0.000
     24 H           1.6731    1.6491   -2.3566 H.spc      1 <1>        0.000
     25 H           4.9989    0.9255   -0.2951 H.spc      1 <1>        0.000
     26 H           3.5460    1.3496    0.7568 H.spc      1 <1>        0.000
     27 H           5.9045    2.9035   -0.0625 H.spc      1 <1>        0.000
     28 H           4.2688    3.6644    0.5155 H.spc      1 <1>        0.000
     29 H           5.9940    3.8168    2.0895 H.spc      1 <1>        0.000
     30 H           6.0839    1.9343    2.0545 H.spc      1 <1>        0.000
     31 H           4.6426    1.7988    3.5664 H.spc      1 <1>        0.000
     32 H           4.7211    3.6488    3.7450 H.spc      1 <1>        0.000
     33 H           1.0334    5.1595    1.8152 H.spc      1 <1>        0.000
     34 H           1.8166    4.0066    0.5839 H.spc      1 <1>        0.000
     35 H           0.8872    2.2073    1.8415 H.spc      1 <1>        0.000
     36 H          -0.0842    3.4909    2.7873 H.spc      1 <1>        0.000
     37 H          -1.4371    2.3860    1.3031 H.spc      1 <1>        0.000
     38 H          -1.0082    4.1107    0.6539 H.spc      1 <1>        0.000
@<TRIPOS>BOND
     1    7    8 1  
     2    1    2 1  
     3    5    6 1  
     4    1   14 1  
     5    4    5 1  
     6    2    3 1  
     7    3    4 1  
     8    6    7 1  
     9    5   16 2  
    10   13   14 1  
    11   12   13 1  
    12   11   12 1  
    13   11   15 2  
    14   10   11 1  
    15    9   10 1  
    16    8    9 1  
    17    1   17 1  
    18    1   18 1  
    19    2   19 1  
    20    2   20 1  
    21    3   21 1  
    22    3   22 1  
    23    4   23 1  
    24    4   24 1  
    25    6   25 1  
    26    6   26 1  
    27    7   27 1  
    28    7   28 1  
    29    8   29 1  
    30    8   30 1  
    31    9   31 1  
    32    9   32 1  
    33   12   33 1  
    34   12   34 1  
    35   13   35 1  
    36   13   36 1  
    37   14   37 1  
    38   14   38 1  
# Name:          frag5-578-42/41815
# Creation time: Sat Jun  5 12:52:55 2010


@<TRIPOS>MOLECULE
frag5-578-42/41815
   38    38     1     1     1
SMALL
USER_CHARGES


@<TRIPOS>ATOM
      1 C7         -0.2535    1.8619    0.5607 C.3        1 <1>        0.000
      2 C8          0.4663    1.4775   -0.7281 C.3        1 <1>        0.000
      3 C9          1.6308    2.3686   -1.0936 C.3        1 <1>        0.000
      4 C10         2.7096    1.8463   -2.0207 C.3        1 <1>        0.000
      5 C11         3.7698    0.9850   -1.3817 C.2        1 <1>        0.000
      6 C12         4.5369    1.4528   -0.1521 C.3        1 <1>        0.000
      7 C13         4.8062    2.9504   -0.0847 C.3        1 <1>        0.000
      8 C14         5.3440    3.6095    1.1710 C.3        1 <1>        0.000
      9 C15         4.4719    3.7146    2.4023 C.3        1 <1>        0.000
     10 O3          3.1299    4.1048    2.2003 O.3        1 <1>        0.000
     11 C16         2.2039    3.6789    3.0670 C.2        1 <1>        0.000
     12 C17         0.7558    4.0469    2.8550 C.3        1 <1>        0.000
     13 C18         0.2950    4.3090    1.4285 C.3        1 <1>        0.000
     14 C19        -0.6579    3.3166    0.7691 C.3        1 <1>        0.000
     15 O9          2.4769    3.0008    4.0578 O.2        1 <1>        0.000
     16 O12         4.0238   -0.1256   -1.8651 O.2        1 <1>        0.000
     17 H           0.4600    1.6499    1.3570 H.spc      1 <1>        0.000
     18 H          -1.1921    1.3082    0.5363 H.spc      1 <1>        0.000
     19 H          -0.2621    1.5619   -1.5346 H.spc      1 <1>        0.000
     20 H           0.8691    0.4757   -0.5789 H.spc      1 <1>        0.000
     21 H           2.1437    2.5538   -0.1498 H.spc      1 <1>        0.000
     22 H           1.1818    3.2019   -1.6341 H.spc      1 <1>        0.000
     23 H           2.2050    1.2172   -2.7540 H.spc      1 <1>        0.000
     24 H           3.2239    2.7222   -2.4161 H.spc      1 <1>        0.000
     25 H           5.5094    0.9617   -0.1851 H.spc      1 <1>        0.000
     26 H           3.9207    1.2070    0.7127 H.spc      1 <1>        0.000
     27 H           5.5997    3.1030   -0.8163 H.spc      1 <1>        0.000
     28 H           3.8190    3.3958   -0.2073 H.spc      1 <1>        0.000
     29 H           5.5287    4.6432    0.8787 H.spc      1 <1>        0.000
     30 H           6.1743    2.9737    1.4784 H.spc      1 <1>        0.000
     31 H           4.4313    2.7115    2.8269 H.spc      1 <1>        0.000
     32 H           4.9199    4.4922    3.0209 H.spc      1 <1>        0.000
     33 H           0.1826    3.1836    3.1930 H.spc      1 <1>        0.000
     34 H           0.6131    4.9883    3.3856 H.spc      1 <1>        0.000
     35 H          -0.2625    5.2443    1.4794 H.spc      1 <1>        0.000
     36 H           1.2032    4.2705    0.8270 H.spc      1 <1>        0.000
     37 H          -1.5007    3.2610    1.4581 H.spc      1 <1>        0.000
     38 H          -0.7851    3.7035   -0.2420 H.spc      1 <1>        0.000
@<TRIPOS>BOND
     1    7    8 1  
     2    1    2 1  
     3    5    6 1  
     4    1   14 1  
     5    4    5 1  
     6    2    3 1  
     7    3    4 1  
     8    6    7 1  
     9    5   16 2  
    10   13   14 1  
    11   12   13 1  
    12   11   12 1  
    13   11   15 2  
    14   10   11 1  
    15    9   10 1  
    16    8    9 1  
    17    1   17 1  
    18    1   18 1  
    19    2   19 1  
    20    2   20 1  
    21    3   21 1  
    22    3   22 1  
    23    4   23 1  
    24    4   24 1  
    25    6   25 1  
    26    6   26 1  
    27    7   27 1  
    28    7   28 1  
    29    8   29 1  
    30    8   30 1  
    31    9   31 1  
    32    9   32 1  
    33   12   33 1  
    34   12   34 1  
    35   13   35 1  
    36   13   36 1  
    37   14   37 1  
    38   14   38 1  
# Name:          frag5-578-42/41815
# Creation time: Sat Jun  5 12:52:55 2010


@<TRIPOS>MOLECULE
frag5-578-42/41815
   38    38     1     1     1
SMALL
USER_CHARGES


@<TRIPOS>ATOM
      1 C7         -0.5351    2.1078    0.2770 C.3        1 <1>        0.000
      2 C8          0.1625    1.5756   -0.9515 C.3        1 <1>        0.000
      3 C9          1.6072    1.1414   -0.8095 C.3        1 <1>        0.000
      4 C10         2.6248    1.7376   -1.7440 C.3        1 <1>        0.000
      5 C11         4.0377    1.2374   -1.5846 C.2        1 <1>        0.000
      6 C12         4.9599    1.7232   -0.4874 C.3        1 <1>        0.000
      7 C13         4.9134    3.1664   -0.0623 C.3        1 <1>        0.000
      8 C14         4.9722    3.4725    1.4128 C.3        1 <1>        0.000
      9 C15         4.0521    2.7168    2.3489 C.3        1 <1>        0.000
     10 O3          2.6840    3.0300    2.2483 O.3        1 <1>        0.000
     11 C16         2.2544    4.0249    3.0477 C.2        1 <1>        0.000
     12 C17         0.8778    4.5946    2.8711 C.3        1 <1>        0.000
     13 C18        -0.1751    3.7063    2.2687 C.3        1 <1>        0.000
     14 C19        -0.1422    3.4739    0.7800 C.3        1 <1>        0.000
     15 O9          2.9668    4.5230    3.9205 O.2        1 <1>        0.000
     16 O12         4.4489    0.3668   -2.3502 O.2        1 <1>        0.000
     17 H          -0.2726    1.4183    1.0794 H.spc      1 <1>        0.000
     18 H          -1.5853    2.1940   -0.0020 H.spc      1 <1>        0.000
     19 H           0.1753    2.4031   -1.6608 H.spc      1 <1>        0.000
     20 H          -0.3859    0.6761   -1.2313 H.spc      1 <1>        0.000
     21 H           1.6087    0.0733   -1.0268 H.spc      1 <1>        0.000
     22 H           1.9078    1.4653    0.1869 H.spc      1 <1>        0.000
     23 H           2.3139    1.4631   -2.7520 H.spc      1 <1>        0.000
     24 H           2.6511    2.8057   -1.5282 H.spc      1 <1>        0.000
     25 H           5.9636    1.5863   -0.8898 H.spc      1 <1>        0.000
     26 H           4.6541    1.1649    0.3974 H.spc      1 <1>        0.000
     27 H           5.8076    3.6219   -0.4878 H.spc      1 <1>        0.000
     28 H           3.9431    3.5346   -0.3954 H.spc      1 <1>        0.000
     29 H           4.6688    4.5159    1.4982 H.spc      1 <1>        0.000
     30 H           5.9803    3.1942    1.7202 H.spc      1 <1>        0.000
     31 H           4.1464    1.6626    2.0884 H.spc      1 <1>        0.000
     32 H           4.3554    2.9845    3.3610 H.spc      1 <1>        0.000
     33 H           0.5257    4.8229    3.8771 H.spc      1 <1>        0.000
     34 H           0.9931    5.4242    2.1735 H.spc      1 <1>        0.000
     35 H          -0.0154    2.7256    2.7169 H.spc      1 <1>        0.000
     36 H          -1.1219    4.2111    2.4605 H.spc      1 <1>        0.000
     37 H          -0.8759    4.1621    0.3604 H.spc      1 <1>        0.000
     38 H           0.8993    3.6051    0.4866 H.spc      1 <1>        0.000
@<TRIPOS>BOND
     1    7    8 1  
     2    1    2 1  
     3    5    6 1  
     4    1   14 1  
     5    4    5 1  
     6    2    3 1  
     7    3    4 1  
     8    6    7 1  
     9    5   16 2  
    10   13   14 1  
    11   12   13 1  
    12   11   12 1  
    13   11   15 2  
    14   10   11 1  
    15    9   10 1  
    16    8    9 1  
    17    1   17 1  
    18    1   18 1  
    19    2   19 1  
    20    2   20 1  
    21    3   21 1  
    22    3   22 1  
    23    4   23 1  
    24    4   24 1  
    25    6   25 1  
    26    6   26 1  
    27    7   27 1  
    28    7   28 1  
    29    8   29 1  
    30    8   30 1  
    31    9   31 1  
    32    9   32 1  
    33   12   33 1  
    34   12   34 1  
    35   13   35 1  
    36   13   36 1  
    37   14   37 1  
    38   14   38 1  
# Name:          frag5-578-42/41815
# Creation time: Sat Jun  5 12:52:55 2010


@<TRIPOS>MOLECULE
frag5-578-42/41815
   38    38     1     1     1
SMALL
USER_CHARGES


@<TRIPOS>ATOM
      1 C7         -0.8110    2.0035    0.2250 C.3        1 <1>        0.000
      2 C8          0.1959    1.8069   -0.9052 C.3        1 <1>        0.000
      3 C9          1.6523    1.4265   -0.6705 C.3        1 <1>        0.000
      4 C10         2.5531    1.4935   -1.8906 C.3        1 <1>        0.000
      5 C11         4.0590    1.5363   -1.7141 C.2        1 <1>        0.000
      6 C12         4.7164    2.5314   -0.7888 C.3        1 <1>        0.000
      7 C13         5.4031    1.8855    0.3795 C.3        1 <1>        0.000
      8 C14         4.8032    2.1250    1.7451 C.3        1 <1>        0.000
      9 C15         4.2219    3.4736    2.1063 C.3        1 <1>        0.000
     10 O3          2.8175    3.4653    2.1239 O.3        1 <1>        0.000
     11 C16         2.1949    4.3779    2.8876 C.2        1 <1>        0.000
     12 C17         0.7385    4.1443    3.1764 C.3        1 <1>        0.000
     13 C18         0.1211    2.9736    2.4448 C.3        1 <1>        0.000
     14 C19        -0.4940    3.2274    1.0779 C.3        1 <1>        0.000
     15 O9          2.7598    5.3457    3.3581 O.2        1 <1>        0.000
     16 O12         4.7779    0.7817   -2.3699 O.2        1 <1>        0.000
     17 H          -0.7725    1.1244    0.8683 H.spc      1 <1>        0.000
     18 H          -1.7951    2.1482   -0.2208 H.spc      1 <1>        0.000
     19 H           0.2693    2.8015   -1.3450 H.spc      1 <1>        0.000
     20 H          -0.2005    0.9440   -1.4404 H.spc      1 <1>        0.000
     21 H           1.6516    0.3868   -0.3433 H.spc      1 <1>        0.000
     22 H           2.0483    2.1459    0.0462 H.spc      1 <1>        0.000
     23 H           2.3656    0.5601   -2.4215 H.spc      1 <1>        0.000
     24 H           2.3052    2.4442   -2.3626 H.spc      1 <1>        0.000
     25 H           3.9363    3.1831   -0.3953 H.spc      1 <1>        0.000
     26 H           5.4727    3.0673   -1.3624 H.spc      1 <1>        0.000
     27 H           5.3346    0.8112    0.2084 H.spc      1 <1>        0.000
     28 H           6.4030    2.3180    0.4135 H.spc      1 <1>        0.000
     29 H           5.6421    2.0035    2.4304 H.spc      1 <1>        0.000
     30 H           3.9504    1.4473    1.7848 H.spc      1 <1>        0.000
     31 H           4.5697    3.7334    3.1061 H.spc      1 <1>        0.000
     32 H           4.5450    4.1923    1.3532 H.spc      1 <1>        0.000
     33 H           0.6601    3.9263    4.2415 H.spc      1 <1>        0.000
     34 H           0.2057    5.0367    2.8481 H.spc      1 <1>        0.000
     35 H           0.9422    2.2792    2.2671 H.spc      1 <1>        0.000
     36 H          -0.7040    2.6423    3.0753 H.spc      1 <1>        0.000
     37 H          -1.4504    3.7147    1.2672 H.spc      1 <1>        0.000
     38 H           0.2480    3.7968    0.5181 H.spc      1 <1>        0.000
@<TRIPOS>BOND
     1    7    8 1  
     2    1    2 1  
     3    5    6 1  
     4    1   14 1  
     5    4    5 1  
     6    2    3 1  
     7    3    4 1  
     8    6    7 1  
     9    5   16 2  
    10   13   14 1  
    11   12   13 1  
    12   11   12 1  
    13   11   15 2  
    14   10   11 1  
    15    9   10 1  
    16    8    9 1  
    17    1   17 1  
    18    1   18 1  
    19    2   19 1  
    20    2   20 1  
    21    3   21 1  
    22    3   22 1  
    23    4   23 1  
    24    4   24 1  
    25    6   25 1  
    26    6   26 1  
    27    7   27 1  
    28    7   28 1  
    29    8   29 1  
    30    8   30 1  
    31    9   31 1  
    32    9   32 1  
    33   12   33 1  
    34   12   34 1  
    35   13   35 1  
    36   13   36 1  
    37   14   37 1  
    38   14   38 1  
# Name:          frag5-578-42/41815
# Creation time: Sat Jun  5 12:52:55 2010


@<TRIPOS>MOLECULE
frag5-578-42/41815
   38    38     1     1     1
SMALL
USER_CHARGES


@<TRIPOS>ATOM
      1 C7         -0.1238    1.7990    0.0965 C.3        1 <1>        0.000
      2 C8          0.5142    1.1563   -1.1186 C.3        1 <1>        0.000
      3 C9          1.2496    1.9514   -2.1827 C.3        1 <1>        0.000
      4 C10         2.6938    2.3488   -1.9621 C.3        1 <1>        0.000
      5 C11         3.6346    1.2110   -1.6110 C.2        1 <1>        0.000
      6 C12         4.7448    1.3587   -0.5821 C.3        1 <1>        0.000
      7 C13         4.3964    1.9666    0.7554 C.3        1 <1>        0.000
      8 C14         4.8950    3.3493    1.1241 C.3        1 <1>        0.000
      9 C15         4.4144    3.8753    2.4656 C.3        1 <1>        0.000
     10 O3          3.0928    3.4667    2.7681 O.3        1 <1>        0.000
     11 C16         2.2984    4.3461    3.4068 C.2        1 <1>        0.000
     12 C17         0.8466    4.3645    2.9675 C.3        1 <1>        0.000
     13 C18         0.3118    3.1409    2.2556 C.3        1 <1>        0.000
     14 C19         0.5047    3.0002    0.7618 C.3        1 <1>        0.000
     15 O9          2.7211    5.1292    4.2439 O.2        1 <1>        0.000
     16 O12         3.5150    0.1343   -2.2031 O.2        1 <1>        0.000
     17 H          -0.0808    1.0218    0.8596 H.spc      1 <1>        0.000
     18 H          -1.0793    2.1714   -0.2728 H.spc      1 <1>        0.000
     19 H          -0.3386    0.7462   -1.6596 H.spc      1 <1>        0.000
     20 H           1.2980    0.5333   -0.6877 H.spc      1 <1>        0.000
     21 H           0.7108    2.8972   -2.2392 H.spc      1 <1>        0.000
     22 H           1.2766    1.2903   -3.0489 H.spc      1 <1>        0.000
     23 H           3.0490    2.7676   -2.9036 H.spc      1 <1>        0.000
     24 H           2.7025    3.0333   -1.1139 H.spc      1 <1>        0.000
     25 H           5.4657    2.0420   -1.0310 H.spc      1 <1>        0.000
     26 H           5.0711    0.3424   -0.3613 H.spc      1 <1>        0.000
     27 H           3.3117    2.0703    0.7291 H.spc      1 <1>        0.000
     28 H           4.8710    1.3072    1.4821 H.spc      1 <1>        0.000
     29 H           4.5122    4.0320    0.3655 H.spc      1 <1>        0.000
     30 H           5.9813    3.2837    1.1852 H.spc      1 <1>        0.000
     31 H           5.0735    3.4782    3.2376 H.spc      1 <1>        0.000
     32 H           4.4277    4.9644    2.4234 H.spc      1 <1>        0.000
     33 H           0.2649    4.4453    3.8858 H.spc      1 <1>        0.000
     34 H           0.7703    5.1783    2.2463 H.spc      1 <1>        0.000
     35 H           0.8680    2.3075    2.6848 H.spc      1 <1>        0.000
     36 H          -0.7686    3.1943    2.3900 H.spc      1 <1>        0.000
     37 H           0.0231    3.8712    0.3173 H.spc      1 <1>        0.000
     38 H           1.5790    2.8949    0.6102 H.spc      1 <1>        0.000
@<TRIPOS>BOND
     1    7    8 1  
     2    1    2 1  
     3    5    6 1  
     4    1   14 1  
     5    4    5 1  
     6    2    3 1  
     7    3    4 1  
     8    6    7 1  
     9    5   16 2  
    10   13   14 1  
    11   12   13 1  
    12   11   12 1  
    13   11   15 2  
    14   10   11 1  
    15    9   10 1  
    16    8    9 1  
    17    1   17 1  
    18    1   18 1  
    19    2   19 1  
    20    2   20 1  
    21    3   21 1  
    22    3   22 1  
    23    4   23 1  
    24    4   24 1  
    25    6   25 1  
    26    6   26 1  
    27    7   27 1  
    28    7   28 1  
    29    8   29 1  
    30    8   30 1  
    31    9   31 1  
    32    9   32 1  
    33   12   33 1  
    34   12   34 1  
    35   13   35 1  
    36   13   36 1  
    37   14   37 1  
    38   14   38 1  
# Name:          frag5-578-42/41815
# Creation time: Sat Jun  5 12:52:55 2010


@<TRIPOS>MOLECULE
frag5-578-42/41815
   38    38     1     1     1
SMALL
USER_CHARGES


@<TRIPOS>ATOM
      1 C7         -0.5663    2.4122    0.0287 C.3        1 <1>        0.000
      2 C8          0.5305    1.4588   -0.3891 C.3        1 <1>        0.000
      3 C9          1.5842    1.9766   -1.3425 C.3        1 <1>        0.000
      4 C10         2.5382    0.9795   -1.9692 C.3        1 <1>        0.000
      5 C11         4.0698    1.0937   -1.9067 C.2        1 <1>        0.000
      6 C12         4.9021    1.4157   -0.6630 C.3        1 <1>        0.000
      7 C13         4.3561    2.4263    0.2933 C.3        1 <1>        0.000
      8 C14         5.1313    2.8245    1.5167 C.3        1 <1>        0.000
      9 C15         4.3592    3.6256    2.5561 C.3        1 <1>        0.000
     10 O3          3.0100    3.2846    2.8184 O.3        1 <1>        0.000
     11 C16         2.1584    4.2899    3.1097 C.2        1 <1>        0.000
     12 C17         0.7299    3.9603    3.4254 C.3        1 <1>        0.000
     13 C18        -0.0416    3.0977    2.4653 C.3        1 <1>        0.000
     14 C19        -0.2457    3.5060    1.0238 C.3        1 <1>        0.000
     15 O9          2.5059    5.4616    3.1562 O.2        1 <1>        0.000
     16 O12         4.6874    0.7853   -2.9374 O.2        1 <1>        0.000
     17 H          -1.3077    1.7873    0.5267 H.spc      1 <1>        0.000
     18 H          -0.8465    2.9364   -0.8850 H.spc      1 <1>        0.000
     19 H           0.0283    0.6500   -0.9198 H.spc      1 <1>        0.000
     20 H           1.0640    1.2072    0.5275 H.spc      1 <1>        0.000
     21 H           2.2120    2.6373   -0.7446 H.spc      1 <1>        0.000
     22 H           1.0297    2.4062   -2.1768 H.spc      1 <1>        0.000
     23 H           2.3428    0.0711   -1.3993 H.spc      1 <1>        0.000
     24 H           2.3336    1.0898   -3.0341 H.spc      1 <1>        0.000
     25 H           5.8339    1.8402   -1.0366 H.spc      1 <1>        0.000
     26 H           4.9611    0.4835   -0.1012 H.spc      1 <1>        0.000
     27 H           4.2961    3.3428   -0.2937 H.spc      1 <1>        0.000
     28 H           3.4553    1.9578    0.6899 H.spc      1 <1>        0.000
     29 H           5.9425    3.4661    1.1727 H.spc      1 <1>        0.000
     30 H           5.4354    1.8983    2.0044 H.spc      1 <1>        0.000
     31 H           4.8827    3.4472    3.4954 H.spc      1 <1>        0.000
     32 H           4.3214    4.6400    2.1591 H.spc      1 <1>        0.000
     33 H           0.7696    3.3873    4.3518 H.spc      1 <1>        0.000
     34 H           0.2112    4.9190    3.4244 H.spc      1 <1>        0.000
     35 H           0.5551    2.1882    2.3959 H.spc      1 <1>        0.000
     36 H          -1.0504    3.0876    2.8779 H.spc      1 <1>        0.000
     37 H          -1.1132    4.1659    1.0251 H.spc      1 <1>        0.000
     38 H           0.7056    3.9283    0.7002 H.spc      1 <1>        0.000
@<TRIPOS>BOND
     1    7    8 1  
     2    1    2 1  
     3    5    6 1  
     4    1   14 1  
     5    4    5 1  
     6    2    3 1  
     7    3    4 1  
     8    6    7 1  
     9    5   16 2  
    10   13   14 1  
    11   12   13 1  
    12   11   12 1  
    13   11   15 2  
    14   10   11 1  
    15    9   10 1  
    16    8    9 1  
    17    1   17 1  
    18    1   18 1  
    19    2   19 1  
    20    2   20 1  
    21    3   21 1  
    22    3   22 1  
    23    4   23 1  
    24    4   24 1  
    25    6   25 1  
    26    6   26 1  
    27    7   27 1  
    28    7   28 1  
    29    8   29 1  
    30    8   30 1  
    31    9   31 1  
    32    9   32 1  
    33   12   33 1  
    34   12   34 1  
    35   13   35 1  
    36   13   36 1  
    37   14   37 1  
    38   14   38 1  
# Name:          frag5-578-42/41815
# Creation time: Sat Jun  5 12:52:55 2010


@<TRIPOS>MOLECULE
frag5-578-42/41815
   38    38     1     1     1
SMALL
USER_CHARGES


@<TRIPOS>ATOM
      1 C7         -0.0026    2.1653    0.4154 C.3        1 <1>        0.000
      2 C8          1.1299    1.2013    0.1543 C.3        1 <1>        0.000
      3 C9          1.4336    0.8530   -1.2870 C.3        1 <1>        0.000
      4 C10         2.3763    1.7060   -2.0970 C.3        1 <1>        0.000
      5 C11         3.8755    1.6094   -1.8659 C.2        1 <1>        0.000
      6 C12         4.4964    1.4802   -0.4922 C.3        1 <1>        0.000
      7 C13         4.6032    2.7594    0.2978 C.3        1 <1>        0.000
      8 C14         4.9064    2.7087    1.7854 C.3        1 <1>        0.000
      9 C15         3.7822    2.4245    2.7665 C.3        1 <1>        0.000
     10 O3          2.5251    2.9684    2.4516 O.3        1 <1>        0.000
     11 C16         2.2977    4.2722    2.6924 C.2        1 <1>        0.000
     12 C17         1.1378    4.8933    1.9673 C.3        1 <1>        0.000
     13 C18        -0.1918    4.1847    2.0285 C.3        1 <1>        0.000
     14 C19        -0.2963    2.6908    1.8054 C.3        1 <1>        0.000
     15 O9          3.0110    4.9751    3.4010 O.2        1 <1>        0.000
     16 O12         4.6250    1.7059   -2.8377 O.2        1 <1>        0.000
     17 H          -0.8941    1.5916    0.1622 H.spc      1 <1>        0.000
     18 H           0.2827    3.0568   -0.1431 H.spc      1 <1>        0.000
     19 H           0.8323    0.2647    0.6258 H.spc      1 <1>        0.000
     20 H           2.0263    1.6928    0.5323 H.spc      1 <1>        0.000
     21 H           0.4750    0.9545   -1.7957 H.spc      1 <1>        0.000
     22 H           1.9293   -0.1161   -1.2305 H.spc      1 <1>        0.000
     23 H           2.2361    1.3683   -3.1238 H.spc      1 <1>        0.000
     24 H           2.1231    2.7298   -1.8216 H.spc      1 <1>        0.000
     25 H           5.5156    1.1254   -0.6455 H.spc      1 <1>        0.000
     26 H           3.8473    0.8169    0.0795 H.spc      1 <1>        0.000
     27 H           5.4572    3.2785   -0.1373 H.spc      1 <1>        0.000
     28 H           3.6089    3.2018    0.2368 H.spc      1 <1>        0.000
     29 H           5.2439    3.7149    2.0341 H.spc      1 <1>        0.000
     30 H           5.5932    1.8701    1.9001 H.spc      1 <1>        0.000
     31 H           3.6511    1.3424    2.7712 H.spc      1 <1>        0.000
     32 H           4.0815    2.8808    3.7101 H.spc      1 <1>        0.000
     33 H           0.9759    5.8571    2.4500 H.spc      1 <1>        0.000
     34 H           1.4193    4.8924    0.9143 H.spc      1 <1>        0.000
     35 H          -0.5133    4.3189    3.0613 H.spc      1 <1>        0.000
     36 H          -0.7561    4.6138    1.2005 H.spc      1 <1>        0.000
     37 H           0.4599    2.2454    2.4518 H.spc      1 <1>        0.000
     38 H          -1.3391    2.4389    1.9986 H.spc      1 <1>        0.000
@<TRIPOS>BOND
     1    7    8 1  
     2    1    2 1  
     3    5    6 1  
     4    1   14 1  
     5    4    5 1  
     6    2    3 1  
     7    3    4 1  
     8    6    7 1  
     9    5   16 2  
    10   13   14 1  
    11   12   13 1  
    12   11   12 1  
    13   11   15 2  
    14   10   11 1  
    15    9   10 1  
    16    8    9 1  
    17    1   17 1  
    18    1   18 1  
    19    2   19 1  
    20    2   20 1  
    21    3   21 1  
    22    3   22 1  
    23    4   23 1  
    24    4   24 1  
    25    6   25 1  
    26    6   26 1  
    27    7   27 1  
    28    7   28 1  
    29    8   29 1  
    30    8   30 1  
    31    9   31 1  
    32    9   32 1  
    33   12   33 1  
    34   12   34 1  
    35   13   35 1  
    36   13   36 1  
    37   14   37 1  
    38   14   38 1  
# Name:          frag5-578-42/41815
# Creation time: Sat Jun  5 12:52:55 2010


@<TRIPOS>MOLECULE
frag5-578-42/41815
   38    38     1     1     1
SMALL
USER_CHARGES


@<TRIPOS>ATOM
      1 C7         -0.8217    2.0563   -0.1007 C.3        1 <1>        0.000
      2 C8          0.3630    1.6511   -0.9592 C.3        1 <1>        0.000
      3 C9          1.5098    0.8628   -0.3475 C.3        1 <1>        0.000
      4 C10         2.7645    0.6396   -1.1765 C.3        1 <1>        0.000
      5 C11         3.6632    1.8632   -1.3726 C.2        1 <1>        0.000
      6 C12         5.0395    2.0009   -0.7130 C.3        1 <1>        0.000
      7 C13         5.3706    1.5998    0.7202 C.3        1 <1>        0.000
      8 C14         4.8254    2.2712    1.9805 C.3        1 <1>        0.000
      9 C15         4.6218    3.7736    2.1452 C.3        1 <1>        0.000
     10 O3          3.3348    4.2935    1.8566 O.3        1 <1>        0.000
     11 C16         2.3753    4.0335    2.7659 C.2        1 <1>        0.000
     12 C17         0.9639    4.4726    2.4420 C.3        1 <1>        0.000
     13 C18         0.4564    3.9695    1.1094 C.3        1 <1>        0.000
     14 C19        -0.6086    2.8970    1.1400 C.3        1 <1>        0.000
     15 O9          2.5850    3.4436    3.8272 O.2        1 <1>        0.000
     16 O12         3.2665    2.7698   -2.1320 O.2        1 <1>        0.000
     17 H          -1.2197    1.1137    0.2751 H.spc      1 <1>        0.000
     18 H          -1.4278    2.6845   -0.7535 H.spc      1 <1>        0.000
     19 H           0.8137    2.5952   -1.2652 H.spc      1 <1>        0.000
     20 H          -0.0594    0.9813   -1.7082 H.spc      1 <1>        0.000
     21 H           1.1060   -0.1339   -0.1698 H.spc      1 <1>        0.000
     22 H           1.8363    1.4543    0.5078 H.spc      1 <1>        0.000
     23 H           3.3614   -0.0963   -0.6377 H.spc      1 <1>        0.000
     24 H           2.4273    0.3442   -2.1700 H.spc      1 <1>        0.000
     25 H           5.1766    3.0820   -0.6879 H.spc      1 <1>        0.000
     26 H           5.6447    1.3045   -1.2935 H.spc      1 <1>        0.000
     27 H           4.9325    0.6038    0.7850 H.spc      1 <1>        0.000
     28 H           6.4342    1.8302    0.7813 H.spc      1 <1>        0.000
     29 H           5.6021    2.0577    2.7148 H.spc      1 <1>        0.000
     30 H           3.8054    1.8896    2.0272 H.spc      1 <1>        0.000
     31 H           4.7918    3.9793    3.2020 H.spc      1 <1>        0.000
     32 H           5.2958    4.2420    1.4280 H.spc      1 <1>        0.000
     33 H           0.3118    4.0624    3.2131 H.spc      1 <1>        0.000
     34 H           0.9652    5.5617    2.3982 H.spc      1 <1>        0.000
     35 H          -0.0021    4.8299    0.6219 H.spc      1 <1>        0.000
     36 H           1.3170    3.5198    0.6142 H.spc      1 <1>        0.000
     37 H          -0.2844    2.1949    1.9081 H.spc      1 <1>        0.000
     38 H          -1.5472    3.4312    1.2873 H.spc      1 <1>        0.000
@<TRIPOS>BOND
     1    7    8 1  
     2    1    2 1  
     3    5    6 1  
     4    1   14 1  
     5    4    5 1  
     6    2    3 1  
     7    3    4 1  
     8    6    7 1  
     9    5   16 2  
    10   13   14 1  
    11   12   13 1  
    12   11   12 1  
    13   11   15 2  
    14   10   11 1  
    15    9   10 1  
    16    8    9 1  
    17    1   17 1  
    18    1   18 1  
    19    2   19 1  
    20    2   20 1  
    21    3   21 1  
    22    3   22 1  
    23    4   23 1  
    24    4   24 1  
    25    6   25 1  
    26    6   26 1  
    27    7   27 1  
    28    7   28 1  
    29    8   29 1  
    30    8   30 1  
    31    9   31 1  
    32    9   32 1  
    33   12   33 1  
    34   12   34 1  
    35   13   35 1  
    36   13   36 1  
    37   14   37 1  
    38   14   38 1  
# Name:          frag5-578-42/41815
# Creation time: Sat Jun  5 12:52:55 2010


@<TRIPOS>MOLECULE
frag5-578-42/41815
   38    38     1     1     1
SMALL
USER_CHARGES


@<TRIPOS>ATOM
      1 C7          0.0075    1.7046    0.3814 C.3        1 <1>        0.000
      2 C8         -0.0095    1.3296   -1.0852 C.3        1 <1>        0.000
      3 C9          1.1120    1.7390   -2.0182 C.3        1 <1>        0.000
      4 C10         2.3479    0.8824   -2.1100 C.3        1 <1>        0.000
      5 C11         3.6205    1.4699   -1.5475 C.2        1 <1>        0.000
      6 C12         3.6696    1.9303   -0.1138 C.3        1 <1>        0.000
      7 C13         4.8828    1.5948    0.7069 C.3        1 <1>        0.000
      8 C14         5.4095    2.6185    1.6848 C.3        1 <1>        0.000
      9 C15         4.5000    3.4885    2.5449 C.3        1 <1>        0.000
     10 O3          3.1701    3.7562    2.1467 O.3        1 <1>        0.000
     11 C16         2.3765    4.3744    3.0463 C.2        1 <1>        0.000
     12 C17         0.9631    4.7137    2.6713 C.3        1 <1>        0.000
     13 C18         0.1143    3.5588    2.2123 C.3        1 <1>        0.000
     14 C19         0.1773    3.1605    0.7545 C.3        1 <1>        0.000
     15 O9          2.7610    4.6819    4.1737 O.2        1 <1>        0.000
     16 O12         4.6068    1.5951   -2.2624 O.2        1 <1>        0.000
     17 H           0.8826    1.2019    0.7931 H.spc      1 <1>        0.000
     18 H          -0.9778    1.4281    0.7568 H.spc      1 <1>        0.000
     19 H          -0.8805    1.8538   -1.4785 H.spc      1 <1>        0.000
     20 H           0.0425    0.2409   -1.0767 H.spc      1 <1>        0.000
     21 H           1.4643    2.6932   -1.6264 H.spc      1 <1>        0.000
     22 H           0.6722    1.6991   -3.0148 H.spc      1 <1>        0.000
     23 H           2.1408   -0.0095   -1.5186 H.spc      1 <1>        0.000
     24 H           2.5308    0.7305   -3.1738 H.spc      1 <1>        0.000
     25 H           2.8427    1.4180    0.3781 H.spc      1 <1>        0.000
     26 H           3.6520    3.0190   -0.1638 H.spc      1 <1>        0.000
     27 H           4.5806    0.7473    1.3222 H.spc      1 <1>        0.000
     28 H           5.6849    1.4602   -0.0188 H.spc      1 <1>        0.000
     29 H           5.9100    3.3422    1.0415 H.spc      1 <1>        0.000
     30 H           5.9394    2.0114    2.4188 H.spc      1 <1>        0.000
     31 H           4.3928    2.9267    3.4728 H.spc      1 <1>        0.000
     32 H           4.9822    4.4660    2.5390 H.spc      1 <1>        0.000
     33 H           0.4904    5.1053    3.5720 H.spc      1 <1>        0.000
     34 H           1.0243    5.4049    1.8307 H.spc      1 <1>        0.000
     35 H           0.4839    2.6937    2.7629 H.spc      1 <1>        0.000
     36 H          -0.9155    3.8744    2.3798 H.spc      1 <1>        0.000
     37 H          -0.6668    3.6690    0.2887 H.spc      1 <1>        0.000
     38 H           1.1892    3.4142    0.4386 H.spc      1 <1>        0.000
@<TRIPOS>BOND
     1    7    8 1  
     2    1    2 1  
     3    5    6 1  
     4    1   14 1  
     5    4    5 1  
     6    2    3 1  
     7    3    4 1  
     8    6    7 1  
     9    5   16 2  
    10   13   14 1  
    11   12   13 1  
    12   11   12 1  
    13   11   15 2  
    14   10   11 1  
    15    9   10 1  
    16    8    9 1  
    17    1   17 1  
    18    1   18 1  
    19    2   19 1  
    20    2   20 1  
    21    3   21 1  
    22    3   22 1  
    23    4   23 1  
    24    4   24 1  
    25    6   25 1  
    26    6   26 1  
    27    7   27 1  
    28    7   28 1  
    29    8   29 1  
    30    8   30 1  
    31    9   31 1  
    32    9   32 1  
    33   12   33 1  
    34   12   34 1  
    35   13   35 1  
    36   13   36 1  
    37   14   37 1  
    38   14   38 1  
# Name:          frag5-578-42/41815
# Creation time: Sat Jun  5 12:52:55 2010


@<TRIPOS>MOLECULE
frag5-578-42/41815
   38    38     1     1     1
SMALL
USER_CHARGES


@<TRIPOS>ATOM
      1 C7          0.6676    2.8317   -0.2166 C.3        1 <1>        0.000
      2 C8          0.1748    1.6046   -0.9881 C.3        1 <1>        0.000
      3 C9          1.0582    0.9835   -2.0980 C.3        1 <1>        0.000
      4 C10         2.4496    0.4771   -1.7605 C.3        1 <1>        0.000
      5 C11         3.5007    1.4668   -1.2628 C.2        1 <1>        0.000
      6 C12         4.3527    1.0947   -0.0505 C.3        1 <1>        0.000
      7 C13         5.4413    2.0495    0.3732 C.3        1 <1>        0.000
      8 C14         5.3670    2.6592    1.7527 C.3        1 <1>        0.000
      9 C15         4.3361    3.7524    1.9886 C.3        1 <1>        0.000
     10 O3          2.9712    3.4592    2.1245 O.3        1 <1>        0.000
     11 C16         2.2893    4.1964    3.0385 C.2        1 <1>        0.000
     12 C17         0.7939    4.1493    3.1006 C.3        1 <1>        0.000
     13 C18         0.0676    3.0836    2.3255 C.3        1 <1>        0.000
     14 C19        -0.2912    3.3151    0.8635 C.3        1 <1>        0.000
     15 O9          2.8558    4.9465    3.8376 O.2        1 <1>        0.000
     16 O12         3.6747    2.5285   -1.8425 O.2        1 <1>        0.000
     17 H           0.7765    3.6425   -0.9369 H.spc      1 <1>        0.000
     18 H           1.5957    2.5486    0.2799 H.spc      1 <1>        0.000
     19 H          -0.7170    1.9506   -1.5106 H.spc      1 <1>        0.000
     20 H           0.0939    0.8221   -0.2336 H.spc      1 <1>        0.000
     21 H           1.2264    1.7981   -2.8024 H.spc      1 <1>        0.000
     22 H           0.5131    0.0951   -2.4171 H.spc      1 <1>        0.000
     23 H           2.3019   -0.2146   -0.9311 H.spc      1 <1>        0.000
     24 H           2.8457    0.0989   -2.7029 H.spc      1 <1>        0.000
     25 H           4.8681    0.1762   -0.3314 H.spc      1 <1>        0.000
     26 H           3.6587    1.0579    0.7892 H.spc      1 <1>        0.000
     27 H           6.3565    1.4574    0.3719 H.spc      1 <1>        0.000
     28 H           5.3662    2.8913   -0.3152 H.spc      1 <1>        0.000
     29 H           6.3356    3.1321    1.9149 H.spc      1 <1>        0.000
     30 H           5.0835    1.8430    2.4172 H.spc      1 <1>        0.000
     31 H           4.6111    4.1628    2.9602 H.spc      1 <1>        0.000
     32 H           4.3830    4.3533    1.0804 H.spc      1 <1>        0.000
     33 H           0.5616    3.9453    4.1458 H.spc      1 <1>        0.000
     34 H           0.4639    5.0910    2.6621 H.spc      1 <1>        0.000
     35 H           0.7598    2.2418    2.3059 H.spc      1 <1>        0.000
     36 H          -0.8939    2.9877    2.8299 H.spc      1 <1>        0.000
     37 H          -1.2053    2.7431    0.7044 H.spc      1 <1>        0.000
     38 H          -0.3200    4.3987    0.7493 H.spc      1 <1>        0.000
@<TRIPOS>BOND
     1    7    8 1  
     2    1    2 1  
     3    5    6 1  
     4    1   14 1  
     5    4    5 1  
     6    2    3 1  
     7    3    4 1  
     8    6    7 1  
     9    5   16 2  
    10   13   14 1  
    11   12   13 1  
    12   11   12 1  
    13   11   15 2  
    14   10   11 1  
    15    9   10 1  
    16    8    9 1  
    17    1   17 1  
    18    1   18 1  
    19    2   19 1  
    20    2   20 1  
    21    3   21 1  
    22    3   22 1  
    23    4   23 1  
    24    4   24 1  
    25    6   25 1  
    26    6   26 1  
    27    7   27 1  
    28    7   28 1  
    29    8   29 1  
    30    8   30 1  
    31    9   31 1  
    32    9   32 1  
    33   12   33 1  
    34   12   34 1  
    35   13   35 1  
    36   13   36 1  
    37   14   37 1  
    38   14   38 1  
# Name:          frag5-578-42/41815
# Creation time: Sat Jun  5 12:52:55 2010


@<TRIPOS>MOLECULE
frag5-578-42/41815
   38    38     1     1     1
SMALL
USER_CHARGES


@<TRIPOS>ATOM
      1 C7         -0.9329    2.2179    0.2434 C.3        1 <1>        0.000
      2 C8          0.0428    1.4568   -0.6277 C.3        1 <1>        0.000
      3 C9          1.5133    1.7378   -0.5060 C.3        1 <1>        0.000
      4 C10         2.5299    0.8253   -1.1193 C.3        1 <1>        0.000
      5 C11         3.9173    1.4023   -1.1098 C.2        1 <1>        0.000
      6 C12         4.9431    0.9218   -0.1349 C.3        1 <1>        0.000
      7 C13         5.8105    1.9150    0.5571 C.3        1 <1>        0.000
      8 C14         5.3681    3.3193    0.9213 C.3        1 <1>        0.000
      9 C15         4.4128    3.5073    2.0819 C.3        1 <1>        0.000
     10 O3          3.0421    3.4425    1.7956 O.3        1 <1>        0.000
     11 C16         2.2030    3.7933    2.7929 C.2        1 <1>        0.000
     12 C17         0.7609    3.5251    2.5390 C.3        1 <1>        0.000
     13 C18         0.0968    4.3535    1.4590 C.3        1 <1>        0.000
     14 C19        -0.7844    3.7179    0.3923 C.3        1 <1>        0.000
     15 O9          2.5355    4.2416    3.8812 O.2        1 <1>        0.000
     16 O12         4.2506    2.2208   -1.9805 O.2        1 <1>        0.000
     17 H          -0.7750    1.8228    1.2469 H.spc      1 <1>        0.000
     18 H          -1.9004    2.0818   -0.2398 H.spc      1 <1>        0.000
     19 H          -0.2116    1.7456   -1.6475 H.spc      1 <1>        0.000
     20 H          -0.0671    0.4158   -0.3237 H.spc      1 <1>        0.000
     21 H           1.7071    1.6659    0.5642 H.spc      1 <1>        0.000
     22 H           1.6466    2.6778   -1.0415 H.spc      1 <1>        0.000
     23 H           2.5481   -0.0936   -0.5333 H.spc      1 <1>        0.000
     24 H           2.2453    0.6614   -2.1586 H.spc      1 <1>        0.000
     25 H           5.6296    0.3174   -0.7278 H.spc      1 <1>        0.000
     26 H           4.3699    0.4488    0.6625 H.spc      1 <1>        0.000
     27 H           5.9734    1.4542    1.5314 H.spc      1 <1>        0.000
     28 H           6.6005    2.0936   -0.1724 H.spc      1 <1>        0.000
     29 H           4.8245    3.6791    0.0477 H.spc      1 <1>        0.000
     30 H           6.2811    3.8335    1.2216 H.spc      1 <1>        0.000
     31 H           4.6125    2.6840    2.7678 H.spc      1 <1>        0.000
     32 H           4.5915    4.5162    2.4537 H.spc      1 <1>        0.000
     33 H           0.7020    2.4898    2.2031 H.spc      1 <1>        0.000
     34 H           0.2419    3.7678    3.4663 H.spc      1 <1>        0.000
     35 H          -0.5882    4.9971    2.0109 H.spc      1 <1>        0.000
     36 H           0.9347    4.7611    0.8934 H.spc      1 <1>        0.000
     37 H          -1.7874    4.0435    0.6682 H.spc      1 <1>        0.000
     38 H          -0.3054    4.0167   -0.5401 H.spc      1 <1>        0.000
@<TRIPOS>BOND
     1    7    8 1  
     2    1    2 1  
     3    5    6 1  
     4    1   14 1  
     5    4    5 1  
     6    2    3 1  
     7    3    4 1  
     8    6    7 1  
     9    5   16 2  
    10   13   14 1  
    11   12   13 1  
    12   11   12 1  
    13   11   15 2  
    14   10   11 1  
    15    9   10 1  
    16    8    9 1  
    17    1   17 1  
    18    1   18 1  
    19    2   19 1  
    20    2   20 1  
    21    3   21 1  
    22    3   22 1  
    23    4   23 1  
    24    4   24 1  
    25    6   25 1  
    26    6   26 1  
    27    7   27 1  
    28    7   28 1  
    29    8   29 1  
    30    8   30 1  
    31    9   31 1  
    32    9   32 1  
    33   12   33 1  
    34   12   34 1  
    35   13   35 1  
    36   13   36 1  
    37   14   37 1  
    38   14   38 1  
# Name:          frag5-578-42/41815
# Creation time: Sat Jun  5 12:52:55 2010


@<TRIPOS>MOLECULE
frag5-578-42/41815
   38    38     1     1     1
SMALL
USER_CHARGES


@<TRIPOS>ATOM
      1 C7          0.5115    3.1668   -0.4050 C.3        1 <1>        0.000
      2 C8          0.4155    2.1196   -1.5012 C.3        1 <1>        0.000
      3 C9          0.9566    0.7377   -1.1699 C.3        1 <1>        0.000
      4 C10         2.4412    0.4282   -1.1420 C.3        1 <1>        0.000
      5 C11         3.5291    1.4865   -0.9668 C.2        1 <1>        0.000
      6 C12         4.8010    1.0962   -0.2352 C.3        1 <1>        0.000
      7 C13         5.6204    2.1507    0.4640 C.3        1 <1>        0.000
      8 C14         5.0313    2.8858    1.6541 C.3        1 <1>        0.000
      9 C15         4.1452    4.0925    1.4017 C.3        1 <1>        0.000
     10 O3          2.7594    3.9780    1.6466 O.3        1 <1>        0.000
     11 C16         2.3719    3.7913    2.9193 C.2        1 <1>        0.000
     12 C17         0.9006    3.5310    3.1768 C.3        1 <1>        0.000
     13 C18        -0.0949    3.8317    2.0718 C.3        1 <1>        0.000
     14 C19        -0.2566    2.8979    0.8845 C.3        1 <1>        0.000
     15 O9          3.1319    3.7978    3.8675 O.2        1 <1>        0.000
     16 O12         3.4453    2.6065   -1.4804 O.2        1 <1>        0.000
     17 H           0.0777    4.0747   -0.8241 H.spc      1 <1>        0.000
     18 H           1.5633    3.2026   -0.1211 H.spc      1 <1>        0.000
     19 H           1.0224    2.4910   -2.3270 H.spc      1 <1>        0.000
     20 H          -0.6481    1.9873   -1.6995 H.spc      1 <1>        0.000
     21 H           0.5856    0.1193   -1.9872 H.spc      1 <1>        0.000
     22 H           0.6485    0.5879   -0.1351 H.spc      1 <1>        0.000
     23 H           2.5447   -0.1754   -0.2403 H.spc      1 <1>        0.000
     24 H           2.6285    0.0544   -2.1486 H.spc      1 <1>        0.000
     25 H           5.4582    0.7128   -1.0157 H.spc      1 <1>        0.000
     26 H           4.4644    0.4369    0.5649 H.spc      1 <1>        0.000
     27 H           6.4782    1.6127    0.8675 H.spc      1 <1>        0.000
     28 H           5.7781    2.9233   -0.2886 H.spc      1 <1>        0.000
     29 H           5.8908    3.2753    2.1997 H.spc      1 <1>        0.000
     30 H           4.3849    2.1579    2.1444 H.spc      1 <1>        0.000
     31 H           4.4949    4.8524    2.1006 H.spc      1 <1>        0.000
     32 H           4.2291    4.2874    0.3326 H.spc      1 <1>        0.000
     33 H           0.8268    2.4559    3.3406 H.spc      1 <1>        0.000
     34 H           0.6317    4.2029    3.9918 H.spc      1 <1>        0.000
     35 H          -1.0628    3.7919    2.5716 H.spc      1 <1>        0.000
     36 H           0.2739    4.7575    1.6302 H.spc      1 <1>        0.000
     37 H           0.1269    1.9401    1.2361 H.spc      1 <1>        0.000
     38 H          -1.3052    2.9935    0.6027 H.spc      1 <1>        0.000
@<TRIPOS>BOND
     1    7    8 1  
     2    1    2 1  
     3    5    6 1  
     4    1   14 1  
     5    4    5 1  
     6    2    3 1  
     7    3    4 1  
     8    6    7 1  
     9    5   16 2  
    10   13   14 1  
    11   12   13 1  
    12   11   12 1  
    13   11   15 2  
    14   10   11 1  
    15    9   10 1  
    16    8    9 1  
    17    1   17 1  
    18    1   18 1  
    19    2   19 1  
    20    2   20 1  
    21    3   21 1  
    22    3   22 1  
    23    4   23 1  
    24    4   24 1  
    25    6   25 1  
    26    6   26 1  
    27    7   27 1  
    28    7   28 1  
    29    8   29 1  
    30    8   30 1  
    31    9   31 1  
    32    9   32 1  
    33   12   33 1  
    34   12   34 1  
    35   13   35 1  
    36   13   36 1  
    37   14   37 1  
    38   14   38 1  
# Name:          frag5-578-42/41815
# Creation time: Sat Jun  5 12:52:55 2010


@<TRIPOS>MOLECULE
frag5-578-42/41815
   38    38     1     1     1
SMALL
USER_CHARGES


@<TRIPOS>ATOM
      1 C7         -0.5070    2.4729   -0.4005 C.3        1 <1>        0.000
      2 C8          0.4266    2.4599   -1.6079 C.3        1 <1>        0.000
      3 C9          0.9180    1.1045   -2.1104 C.3        1 <1>        0.000
      4 C10         2.0297    0.4008   -1.3784 C.3        1 <1>        0.000
      5 C11         3.2814    1.2338   -1.2429 C.2        1 <1>        0.000
      6 C12         3.8780    1.5294    0.1405 C.3        1 <1>        0.000
      7 C13         4.6928    2.8042    0.2973 C.3        1 <1>        0.000
      8 C14         5.4048    3.0238    1.6435 C.3        1 <1>        0.000
      9 C15         4.6380    3.0566    2.9649 C.3        1 <1>        0.000
     10 O3          3.8815    4.2210    3.2442 O.3        1 <1>        0.000
     11 C16         2.5574    4.3381    3.1914 C.2        1 <1>        0.000
     12 C17         1.6046    3.2366    2.7957 C.3        1 <1>        0.000
     13 C18         0.9318    3.4280    1.4640 C.3        1 <1>        0.000
     14 C19         0.0877    2.2474    0.9860 C.3        1 <1>        0.000
     15 O9          2.0467    5.4250    3.4809 O.2        1 <1>        0.000
     16 O12         3.8373    1.6163   -2.2826 O.2        1 <1>        0.000
     17 H          -1.1860    1.6349   -0.5578 H.spc      1 <1>        0.000
     18 H          -0.9197    3.4814   -0.3717 H.spc      1 <1>        0.000
     19 H           1.3215    2.9952   -1.2905 H.spc      1 <1>        0.000
     20 H          -0.1523    2.8829   -2.4288 H.spc      1 <1>        0.000
     21 H           1.3244    1.3076   -3.1012 H.spc      1 <1>        0.000
     22 H           0.0576    0.4432   -2.0083 H.spc      1 <1>        0.000
     23 H           1.6721    0.1799   -0.3727 H.spc      1 <1>        0.000
     24 H           2.2884   -0.4892   -1.9520 H.spc      1 <1>        0.000
     25 H           4.5708    0.7123    0.3415 H.spc      1 <1>        0.000
     26 H           3.0248    1.6429    0.8093 H.spc      1 <1>        0.000
     27 H           5.4846    2.7426   -0.4492 H.spc      1 <1>        0.000
     28 H           3.9805    3.6238    0.2025 H.spc      1 <1>        0.000
     29 H           5.8132    4.0308    1.5576 H.spc      1 <1>        0.000
     30 H           6.0478    2.1490    1.7405 H.spc      1 <1>        0.000
     31 H           3.9170    2.2410    2.9095 H.spc      1 <1>        0.000
     32 H           5.3942    2.9995    3.7479 H.spc      1 <1>        0.000
     33 H           2.1929    2.3219    2.7230 H.spc      1 <1>        0.000
     34 H           0.8156    3.2171    3.5475 H.spc      1 <1>        0.000
     35 H           0.2529    4.2735    1.5750 H.spc      1 <1>        0.000
     36 H           1.7253    3.5633    0.7290 H.spc      1 <1>        0.000
     37 H           0.7351    1.3720    0.9344 H.spc      1 <1>        0.000
     38 H          -0.7368    2.1195    1.6873 H.spc      1 <1>        0.000
@<TRIPOS>BOND
     1    7    8 1  
     2    1    2 1  
     3    5    6 1  
     4    1   14 1  
     5    4    5 1  
     6    2    3 1  
     7    3    4 1  
     8    6    7 1  
     9    5   16 2  
    10   13   14 1  
    11   12   13 1  
    12   11   12 1  
    13   11   15 2  
    14   10   11 1  
    15    9   10 1  
    16    8    9 1  
    17    1   17 1  
    18    1   18 1  
    19    2   19 1  
    20    2   20 1  
    21    3   21 1  
    22    3   22 1  
    23    4   23 1  
    24    4   24 1  
    25    6   25 1  
    26    6   26 1  
    27    7   27 1  
    28    7   28 1  
    29    8   29 1  
    30    8   30 1  
    31    9   31 1  
    32    9   32 1  
    33   12   33 1  
    34   12   34 1  
    35   13   35 1  
    36   13   36 1  
    37   14   37 1  
    38   14   38 1  
# Name:          frag5-578-42/41815
# Creation time: Sat Jun  5 12:52:55 2010


@<TRIPOS>MOLECULE
frag5-578-42/41815
   38    38     1     1     1
SMALL
USER_CHARGES


@<TRIPOS>ATOM
      1 C7         -0.7309    2.0237    0.3006 C.3        1 <1>        0.000
      2 C8          0.2264    2.3220   -0.8353 C.3        1 <1>        0.000
      3 C9          1.6937    2.0139   -0.6819 C.3        1 <1>        0.000
      4 C10         2.5066    1.6446   -1.8986 C.3        1 <1>        0.000
      5 C11         4.0037    1.5228   -1.7087 C.2        1 <1>        0.000
      6 C12         4.7505    2.3608   -0.6992 C.3        1 <1>        0.000
      7 C13         5.0089    1.6419    0.6038 C.3        1 <1>        0.000
      8 C14         5.3056    2.4493    1.8435 C.3        1 <1>        0.000
      9 C15         4.3211    3.4924    2.3441 C.3        1 <1>        0.000
     10 O3          2.9341    3.2751    2.2053 O.3        1 <1>        0.000
     11 C16         2.1635    4.3389    2.5136 C.2        1 <1>        0.000
     12 C17         0.6947    4.3316    2.2142 C.3        1 <1>        0.000
     13 C18        -0.1397    3.1532    2.6202 C.3        1 <1>        0.000
     14 C19        -0.2862    1.9303    1.7494 C.3        1 <1>        0.000
     15 O9          2.6138    5.3748    3.0174 O.2        1 <1>        0.000
     16 O12         4.6434    0.7228   -2.4028 O.2        1 <1>        0.000
     17 H          -1.0734    1.0129    0.0792 H.spc      1 <1>        0.000
     18 H          -1.3964    2.8870    0.2991 H.spc      1 <1>        0.000
     19 H           0.1851    3.4051   -0.9501 H.spc      1 <1>        0.000
     20 H          -0.1049    1.6763   -1.6486 H.spc      1 <1>        0.000
     21 H           1.7255    1.1274   -0.0484 H.spc      1 <1>        0.000
     22 H           2.1360    2.9443   -0.3256 H.spc      1 <1>        0.000
     23 H           2.1618    0.6554   -2.1997 H.spc      1 <1>        0.000
     24 H           2.3607    2.4548   -2.6130 H.spc      1 <1>        0.000
     25 H           4.1355    3.2328   -0.4769 H.spc      1 <1>        0.000
     26 H           5.7183    2.6126   -1.1329 H.spc      1 <1>        0.000
     27 H           4.0768    1.1222    0.8255 H.spc      1 <1>        0.000
     28 H           5.9132    1.0596    0.4268 H.spc      1 <1>        0.000
     29 H           6.1933    3.0248    1.5808 H.spc      1 <1>        0.000
     30 H           5.3386    1.7087    2.6425 H.spc      1 <1>        0.000
     31 H           4.4854    3.5284    3.4210 H.spc      1 <1>        0.000
     32 H           4.5220    4.3727    1.7336 H.spc      1 <1>        0.000
     33 H           0.2923    5.1652    2.7897 H.spc      1 <1>        0.000
     34 H           0.6355    4.3490    1.1259 H.spc      1 <1>        0.000
     35 H           0.3705    2.7743    3.5058 H.spc      1 <1>        0.000
     36 H          -1.1504    3.5595    2.6590 H.spc      1 <1>        0.000
     37 H           0.7295    1.5408    1.6813 H.spc      1 <1>        0.000
     38 H          -1.0886    1.3691    2.2283 H.spc      1 <1>        0.000
@<TRIPOS>BOND
     1    7    8 1  
     2    1    2 1  
     3    5    6 1  
     4    1   14 1  
     5    4    5 1  
     6    2    3 1  
     7    3    4 1  
     8    6    7 1  
     9    5   16 2  
    10   13   14 1  
    11   12   13 1  
    12   11   12 1  
    13   11   15 2  
    14   10   11 1  
    15    9   10 1  
    16    8    9 1  
    17    1   17 1  
    18    1   18 1  
    19    2   19 1  
    20    2   20 1  
    21    3   21 1  
    22    3   22 1  
    23    4   23 1  
    24    4   24 1  
    25    6   25 1  
    26    6   26 1  
    27    7   27 1  
    28    7   28 1  
    29    8   29 1  
    30    8   30 1  
    31    9   31 1  
    32    9   32 1  
    33   12   33 1  
    34   12   34 1  
    35   13   35 1  
    36   13   36 1  
    37   14   37 1  
    38   14   38 1  
# Name:          frag5-578-42/41815
# Creation time: Sat Jun  5 12:52:55 2010


@<TRIPOS>MOLECULE
frag5-578-42/41815
   38    38     1     1     1
SMALL
USER_CHARGES


@<TRIPOS>ATOM
      1 C7          0.0339    1.7145    0.0711 C.3        1 <1>        0.000
      2 C8          0.8900    2.6504   -0.7428 C.3        1 <1>        0.000
      3 C9          1.3449    2.2680   -2.1291 C.3        1 <1>        0.000
      4 C10         2.4885    1.3128   -2.2870 C.3        1 <1>        0.000
      5 C11         3.5129    1.2134   -1.1520 C.2        1 <1>        0.000
      6 C12         4.8018    2.0261   -1.1158 C.3        1 <1>        0.000
      7 C13         5.0577    3.1035   -0.0814 C.3        1 <1>        0.000
      8 C14         5.3643    2.8035    1.3824 C.3        1 <1>        0.000
      9 C15         4.4894    3.4169    2.4584 C.3        1 <1>        0.000
     10 O3          3.1201    3.4679    2.1375 O.3        1 <1>        0.000
     11 C16         2.2673    4.1640    2.8882 C.2        1 <1>        0.000
     12 C17         0.8404    4.1352    2.4360 C.3        1 <1>        0.000
     13 C18         0.2645    2.7422    2.4106 C.3        1 <1>        0.000
     14 C19        -0.6323    2.3540    1.2592 C.3        1 <1>        0.000
     15 O9          2.5749    4.8074    3.8853 O.2        1 <1>        0.000
     16 O12         3.2913    0.4184   -0.2351 O.2        1 <1>        0.000
     17 H           0.6903    0.9336    0.4550 H.spc      1 <1>        0.000
     18 H          -0.7592    1.3553   -0.5847 H.spc      1 <1>        0.000
     19 H           1.8146    2.7314   -0.1713 H.spc      1 <1>        0.000
     20 H           0.2558    3.5227   -0.9011 H.spc      1 <1>        0.000
     21 H           1.6960    3.1991   -2.5739 H.spc      1 <1>        0.000
     22 H           0.4906    1.7554   -2.5713 H.spc      1 <1>        0.000
     23 H           2.0311    0.3253   -2.3480 H.spc      1 <1>        0.000
     24 H           3.0490    1.6762   -3.1483 H.spc      1 <1>        0.000
     25 H           4.7770    2.5793   -2.0546 H.spc      1 <1>        0.000
     26 H           5.5643    1.2791   -0.8951 H.spc      1 <1>        0.000
     27 H           5.9775    3.5697   -0.4346 H.spc      1 <1>        0.000
     28 H           4.1029    3.6267   -0.0302 H.spc      1 <1>        0.000
     29 H           6.3553    3.2240    1.5532 H.spc      1 <1>        0.000
     30 H           5.2213    1.7277    1.4841 H.spc      1 <1>        0.000
     31 H           4.5865    2.7899    3.3447 H.spc      1 <1>        0.000
     32 H           4.8240    4.4454    2.5941 H.spc      1 <1>        0.000
     33 H           0.2547    4.7261    3.1403 H.spc      1 <1>        0.000
     34 H           0.8036    4.5305    1.4209 H.spc      1 <1>        0.000
     35 H           1.1263    2.0789    2.3367 H.spc      1 <1>        0.000
     36 H          -0.3664    2.6785    3.2972 H.spc      1 <1>        0.000
     37 H          -1.3228    1.6087    1.6540 H.spc      1 <1>        0.000
     38 H          -1.0716    3.2823    0.8940 H.spc      1 <1>        0.000
@<TRIPOS>BOND
     1    7    8 1  
     2    1    2 1  
     3    5    6 1  
     4    1   14 1  
     5    4    5 1  
     6    2    3 1  
     7    3    4 1  
     8    6    7 1  
     9    5   16 2  
    10   13   14 1  
    11   12   13 1  
    12   11   12 1  
    13   11   15 2  
    14   10   11 1  
    15    9   10 1  
    16    8    9 1  
    17    1   17 1  
    18    1   18 1  
    19    2   19 1  
    20    2   20 1  
    21    3   21 1  
    22    3   22 1  
    23    4   23 1  
    24    4   24 1  
    25    6   25 1  
    26    6   26 1  
    27    7   27 1  
    28    7   28 1  
    29    8   29 1  
    30    8   30 1  
    31    9   31 1  
    32    9   32 1  
    33   12   33 1  
    34   12   34 1  
    35   13   35 1  
    36   13   36 1  
    37   14   37 1  
    38   14   38 1  
# Name:          frag5-578-42/41815
# Creation time: Sat Jun  5 12:52:55 2010


@<TRIPOS>MOLECULE
frag5-578-42/41815
   38    38     1     1     1
SMALL
USER_CHARGES


@<TRIPOS>ATOM
      1 C7         -0.6646    1.8694    0.2696 C.3        1 <1>        0.000
      2 C8          0.3812    1.8582   -0.8327 C.3        1 <1>        0.000
      3 C9          1.5490    0.9066   -0.6609 C.3        1 <1>        0.000
      4 C10         2.7074    0.9025   -1.6371 C.3        1 <1>        0.000
      5 C11         3.7761    1.9762   -1.5573 C.2        1 <1>        0.000
      6 C12         5.0148    1.7789   -0.7023 C.3        1 <1>        0.000
      7 C13         4.7914    1.4837    0.7579 C.3        1 <1>        0.000
      8 C14         5.3035    2.4536    1.8043 C.3        1 <1>        0.000
      9 C15         4.3011    2.9802    2.8096 C.3        1 <1>        0.000
     10 O3          3.0036    3.1576    2.2896 O.3        1 <1>        0.000
     11 C16         2.3750    4.3334    2.4166 C.2        1 <1>        0.000
     12 C17         1.1307    4.5405    1.6022 C.3        1 <1>        0.000
     13 C18        -0.1009    3.7873    2.0240 C.3        1 <1>        0.000
     14 C19        -0.3070    2.3229    1.6756 C.3        1 <1>        0.000
     15 O9          2.7805    5.2374    3.1470 O.2        1 <1>        0.000
     16 O12         3.6674    3.0095   -2.2205 O.2        1 <1>        0.000
     17 H          -0.9368    0.8207    0.3891 H.spc      1 <1>        0.000
     18 H          -1.3990    2.6009   -0.0675 H.spc      1 <1>        0.000
     19 H           0.8117    2.8595   -0.8458 H.spc      1 <1>        0.000
     20 H          -0.1386    1.5330   -1.7339 H.spc      1 <1>        0.000
     21 H           1.1028   -0.0810   -0.7782 H.spc      1 <1>        0.000
     22 H           2.0012    1.2130    0.2824 H.spc      1 <1>        0.000
     23 H           3.2386   -0.0249   -1.4232 H.spc      1 <1>        0.000
     24 H           2.2418    1.0555   -2.6107 H.spc      1 <1>        0.000
     25 H           5.5566    2.7241   -0.7373 H.spc      1 <1>        0.000
     26 H           5.5241    0.9057   -1.1099 H.spc      1 <1>        0.000
     27 H           3.7082    1.4938    0.8789 H.spc      1 <1>        0.000
     28 H           5.3447    0.5626    0.9410 H.spc      1 <1>        0.000
     29 H           5.6552    3.3255    1.2527 H.spc      1 <1>        0.000
     30 H           6.0417    1.9001    2.3847 H.spc      1 <1>        0.000
     31 H           4.2298    2.2437    3.6100 H.spc      1 <1>        0.000
     32 H           4.6545    3.9586    3.1352 H.spc      1 <1>        0.000
     33 H           0.8816    5.5965    1.7062 H.spc      1 <1>        0.000
     34 H           1.3691    4.1807    0.6013 H.spc      1 <1>        0.000
     35 H          -0.0405    3.7859    3.1123 H.spc      1 <1>        0.000
     36 H          -0.9060    4.2934    1.4913 H.spc      1 <1>        0.000
     37 H           0.6743    1.8796    1.8450 H.spc      1 <1>        0.000
     38 H          -1.1797    2.0408    2.2645 H.spc      1 <1>        0.000
@<TRIPOS>BOND
     1    7    8 1  
     2    1    2 1  
     3    5    6 1  
     4    1   14 1  
     5    4    5 1  
     6    2    3 1  
     7    3    4 1  
     8    6    7 1  
     9    5   16 2  
    10   13   14 1  
    11   12   13 1  
    12   11   12 1  
    13   11   15 2  
    14   10   11 1  
    15    9   10 1  
    16    8    9 1  
    17    1   17 1  
    18    1   18 1  
    19    2   19 1  
    20    2   20 1  
    21    3   21 1  
    22    3   22 1  
    23    4   23 1  
    24    4   24 1  
    25    6   25 1  
    26    6   26 1  
    27    7   27 1  
    28    7   28 1  
    29    8   29 1  
    30    8   30 1  
    31    9   31 1  
    32    9   32 1  
    33   12   33 1  
    34   12   34 1  
    35   13   35 1  
    36   13   36 1  
    37   14   37 1  
    38   14   38 1  
# Name:          frag5-578-42/41815
# Creation time: Sat Jun  5 12:52:55 2010


@<TRIPOS>MOLECULE
frag5-578-42/41815
   38    38     1     1     1
SMALL
USER_CHARGES


@<TRIPOS>ATOM
      1 C7         -0.1784    2.6014   -0.0366 C.3        1 <1>        0.000
      2 C8          0.4328    2.3447   -1.4002 C.3        1 <1>        0.000
      3 C9          1.0737    1.0119   -1.7387 C.3        1 <1>        0.000
      4 C10         2.4833    0.5952   -1.3714 C.3        1 <1>        0.000
      5 C11         3.6233    1.5617   -1.5961 C.2        1 <1>        0.000
      6 C12         4.5051    2.1361   -0.4963 C.3        1 <1>        0.000
      7 C13         4.6701    1.5220    0.8736 C.3        1 <1>        0.000
      8 C14         5.2042    2.4336    1.9669 C.3        1 <1>        0.000
      9 C15         4.3971    3.6642    2.3180 C.3        1 <1>        0.000
     10 O3          3.0647    3.4009    2.7100 O.3        1 <1>        0.000
     11 C16         2.2455    4.4351    2.9189 C.2        1 <1>        0.000
     12 C17         0.7759    4.1590    3.0978 C.3        1 <1>        0.000
     13 C18         0.2467    2.8575    2.5412 C.3        1 <1>        0.000
     14 C19         0.6724    2.3531    1.1777 C.3        1 <1>        0.000
     15 O9          2.6327    5.5997    2.9734 O.2        1 <1>        0.000
     16 O12         3.8604    1.9221   -2.7525 O.2        1 <1>        0.000
     17 H          -1.0087    1.8998    0.0443 H.spc      1 <1>        0.000
     18 H          -0.4044    3.6675   -0.0176 H.spc      1 <1>        0.000
     19 H           1.2589    3.0537   -1.4544 H.spc      1 <1>        0.000
     20 H          -0.4144    2.4087   -2.0830 H.spc      1 <1>        0.000
     21 H           1.1234    1.0519   -2.8268 H.spc      1 <1>        0.000
     22 H           0.4704    0.3141   -1.1580 H.spc      1 <1>        0.000
     23 H           2.4561    0.4434   -0.2924 H.spc      1 <1>        0.000
     24 H           2.7024   -0.2498   -2.0241 H.spc      1 <1>        0.000
     25 H           4.0178    3.0853   -0.2734 H.spc      1 <1>        0.000
     26 H           5.5047    2.0414   -0.9204 H.spc      1 <1>        0.000
     27 H           3.6716    1.2224    1.1919 H.spc      1 <1>        0.000
     28 H           5.4048    0.7248    0.7601 H.spc      1 <1>        0.000
     29 H           6.1570    2.8082    1.5929 H.spc      1 <1>        0.000
     30 H           5.2157    1.8260    2.8718 H.spc      1 <1>        0.000
     31 H           4.8911    4.1376    3.1665 H.spc      1 <1>        0.000
     32 H           4.3491    4.2804    1.4202 H.spc      1 <1>        0.000
     33 H           0.6124    4.1094    4.1743 H.spc      1 <1>        0.000
     34 H           0.2575    4.9475    2.5522 H.spc      1 <1>        0.000
     35 H           0.6285    2.1039    3.2299 H.spc      1 <1>        0.000
     36 H          -0.8231    3.0353    2.4321 H.spc      1 <1>        0.000
     37 H           1.5952    2.8949    0.9705 H.spc      1 <1>        0.000
     38 H           0.6728    1.2683    1.2842 H.spc      1 <1>        0.000
@<TRIPOS>BOND
     1    7    8 1  
     2    1    2 1  
     3    5    6 1  
     4    1   14 1  
     5    4    5 1  
     6    2    3 1  
     7    3    4 1  
     8    6    7 1  
     9    5   16 2  
    10   13   14 1  
    11   12   13 1  
    12   11   12 1  
    13   11   15 2  
    14   10   11 1  
    15    9   10 1  
    16    8    9 1  
    17    1   17 1  
    18    1   18 1  
    19    2   19 1  
    20    2   20 1  
    21    3   21 1  
    22    3   22 1  
    23    4   23 1  
    24    4   24 1  
    25    6   25 1  
    26    6   26 1  
    27    7   27 1  
    28    7   28 1  
    29    8   29 1  
    30    8   30 1  
    31    9   31 1  
    32    9   32 1  
    33   12   33 1  
    34   12   34 1  
    35   13   35 1  
    36   13   36 1  
    37   14   37 1  
    38   14   38 1  
# Name:          frag5-578-42/41815
# Creation time: Sat Jun  5 12:52:55 2010


@<TRIPOS>MOLECULE
frag5-578-42/41815
   38    38     1     1     1
SMALL
USER_CHARGES


@<TRIPOS>ATOM
      1 C7         -0.0541    2.9357   -0.7053 C.3        1 <1>        0.000
      2 C8          0.0380    1.4518   -0.9991 C.3        1 <1>        0.000
      3 C9          1.2117    0.5965   -0.5707 C.3        1 <1>        0.000
      4 C10         2.4320    0.4925   -1.4522 C.3        1 <1>        0.000
      5 C11         3.4764    1.5756   -1.3125 C.2        1 <1>        0.000
      6 C12         4.6126    1.4495   -0.3188 C.3        1 <1>        0.000
      7 C13         4.6485    2.6654    0.5596 C.3        1 <1>        0.000
      8 C14         5.3105    2.7436    1.9121 C.3        1 <1>        0.000
      9 C15         4.9556    3.9858    2.7241 C.3        1 <1>        0.000
     10 O3          3.6733    4.5636    2.5612 O.3        1 <1>        0.000
     11 C16         2.5764    3.7853    2.7433 C.2        1 <1>        0.000
     12 C17         1.2499    4.3250    2.2482 C.3        1 <1>        0.000
     13 C18         0.1665    3.3224    1.9161 C.3        1 <1>        0.000
     14 C19        -0.6079    3.4341    0.6175 C.3        1 <1>        0.000
     15 O9          2.6387    2.6865    3.2645 O.2        1 <1>        0.000
     16 O12         3.3813    2.5850   -2.0021 O.2        1 <1>        0.000
     17 H          -0.7599    3.3100   -1.4468 H.spc      1 <1>        0.000
     18 H           0.9831    3.2708   -0.7022 H.spc      1 <1>        0.000
     19 H           0.0905    1.4174   -2.0873 H.spc      1 <1>        0.000
     20 H          -0.7932    1.0346   -0.4306 H.spc      1 <1>        0.000
     21 H           0.8123   -0.4172   -0.5380 H.spc      1 <1>        0.000
     22 H           1.5746    1.0696    0.3418 H.spc      1 <1>        0.000
     23 H           2.9268   -0.4355   -1.1657 H.spc      1 <1>        0.000
     24 H           2.0653    0.5641   -2.4762 H.spc      1 <1>        0.000
     25 H           5.5567    1.3626   -0.8565 H.spc      1 <1>        0.000
     26 H           4.4600    0.5624    0.2959 H.spc      1 <1>        0.000
     27 H           5.2483    3.3582   -0.0307 H.spc      1 <1>        0.000
     28 H           3.5962    2.7994    0.8103 H.spc      1 <1>        0.000
     29 H           6.3860    2.7748    1.7378 H.spc      1 <1>        0.000
     30 H           4.9670    1.8816    2.4840 H.spc      1 <1>        0.000
     31 H           4.9897    3.6625    3.7645 H.spc      1 <1>        0.000
     32 H           5.6552    4.7516    2.3892 H.spc      1 <1>        0.000
     33 H           0.8532    4.9242    3.0678 H.spc      1 <1>        0.000
     34 H           1.4729    4.8363    1.3117 H.spc      1 <1>        0.000
     35 H           0.6941    2.3721    1.8347 H.spc      1 <1>        0.000
     36 H          -0.5848    3.4701    2.6918 H.spc      1 <1>        0.000
     37 H          -1.4758    2.7963    0.7848 H.spc      1 <1>        0.000
     38 H          -0.6944    4.5101    0.4663 H.spc      1 <1>        0.000
@<TRIPOS>BOND
     1    7    8 1  
     2    1    2 1  
     3    5    6 1  
     4    1   14 1  
     5    4    5 1  
     6    2    3 1  
     7    3    4 1  
     8    6    7 1  
     9    5   16 2  
    10   13   14 1  
    11   12   13 1  
    12   11   12 1  
    13   11   15 2  
    14   10   11 1  
    15    9   10 1  
    16    8    9 1  
    17    1   17 1  
    18    1   18 1  
    19    2   19 1  
    20    2   20 1  
    21    3   21 1  
    22    3   22 1  
    23    4   23 1  
    24    4   24 1  
    25    6   25 1  
    26    6   26 1  
    27    7   27 1  
    28    7   28 1  
    29    8   29 1  
    30    8   30 1  
    31    9   31 1  
    32    9   32 1  
    33   12   33 1  
    34   12   34 1  
    35   13   35 1  
    36   13   36 1  
    37   14   37 1  
    38   14   38 1  
# Name:          frag5-578-42/41815
# Creation time: Sat Jun  5 12:52:55 2010


@<TRIPOS>MOLECULE
frag5-578-42/41815
   38    38     1     1     1
SMALL
USER_CHARGES


@<TRIPOS>ATOM
      1 C7          0.0508    1.5870    0.8377 C.3        1 <1>        0.000
      2 C8         -0.0113    0.9667   -0.5305 C.3        1 <1>        0.000
      3 C9          0.8661    1.4977   -1.6498 C.3        1 <1>        0.000
      4 C10         2.2958    1.0017   -1.7838 C.3        1 <1>        0.000
      5 C11         3.4689    1.8767   -1.2990 C.2        1 <1>        0.000
      6 C12         4.2170    1.4107   -0.0722 C.3        1 <1>        0.000
      7 C13         5.3819    2.1533    0.5551 C.3        1 <1>        0.000
      8 C14         5.3870    2.4107    2.0640 C.3        1 <1>        0.000
      9 C15         4.0671    2.5511    2.7831 C.3        1 <1>        0.000
     10 O3          3.1665    3.3829    2.1103 O.3        1 <1>        0.000
     11 C16         2.3840    4.2782    2.7248 C.2        1 <1>        0.000
     12 C17         1.3747    4.9292    1.8239 C.3        1 <1>        0.000
     13 C18         0.9635    4.0224    0.6859 C.3        1 <1>        0.000
     14 C19        -0.1865    3.0740    0.9183 C.3        1 <1>        0.000
     15 O9          2.4591    4.5557    3.9115 O.2        1 <1>        0.000
     16 O12         3.8249    2.9000   -1.8938 O.2        1 <1>        0.000
     17 H           1.0679    1.4254    1.1948 H.spc      1 <1>        0.000
     18 H          -0.7497    1.1234    1.4142 H.spc      1 <1>        0.000
     19 H          -1.0292    1.1594   -0.8695 H.spc      1 <1>        0.000
     20 H           0.3316   -0.0569   -0.3798 H.spc      1 <1>        0.000
     21 H           0.9627    2.5633   -1.4420 H.spc      1 <1>        0.000
     22 H           0.3737    1.1692   -2.5651 H.spc      1 <1>        0.000
     23 H           2.3365    0.1175   -1.1477 H.spc      1 <1>        0.000
     24 H           2.4515    0.9114   -2.8588 H.spc      1 <1>        0.000
     25 H           4.6821    0.4864   -0.4150 H.spc      1 <1>        0.000
     26 H           3.4549    1.4652    0.7052 H.spc      1 <1>        0.000
     27 H           6.2453    1.5111    0.3811 H.spc      1 <1>        0.000
     28 H           5.3518    3.1457    0.1053 H.spc      1 <1>        0.000
     29 H           5.8777    3.3766    2.1838 H.spc      1 <1>        0.000
     30 H           5.8529    1.5267    2.4995 H.spc      1 <1>        0.000
     31 H           3.6180    1.5602    2.8511 H.spc      1 <1>        0.000
     32 H           4.2651    2.9950    3.7587 H.spc      1 <1>        0.000
     33 H           0.4879    5.1584    2.4148 H.spc      1 <1>        0.000
     34 H           1.8252    5.8264    1.3993 H.spc      1 <1>        0.000
     35 H           0.6330    4.6889   -0.1107 H.spc      1 <1>        0.000
     36 H           1.8285    3.3875    0.4943 H.spc      1 <1>        0.000
     37 H          -0.4872    3.2510    1.9510 H.spc      1 <1>        0.000
     38 H          -0.8883    3.2866    0.1118 H.spc      1 <1>        0.000
@<TRIPOS>BOND
     1    7    8 1  
     2    1    2 1  
     3    5    6 1  
     4    1   14 1  
     5    4    5 1  
     6    2    3 1  
     7    3    4 1  
     8    6    7 1  
     9    5   16 2  
    10   13   14 1  
    11   12   13 1  
    12   11   12 1  
    13   11   15 2  
    14   10   11 1  
    15    9   10 1  
    16    8    9 1  
    17    1   17 1  
    18    1   18 1  
    19    2   19 1  
    20    2   20 1  
    21    3   21 1  
    22    3   22 1  
    23    4   23 1  
    24    4   24 1  
    25    6   25 1  
    26    6   26 1  
    27    7   27 1  
    28    7   28 1  
    29    8   29 1  
    30    8   30 1  
    31    9   31 1  
    32    9   32 1  
    33   12   33 1  
    34   12   34 1  
    35   13   35 1  
    36   13   36 1  
    37   14   37 1  
    38   14   38 1  
# Name:          frag5-578-42/41815
# Creation time: Sat Jun  5 12:52:55 2010


@<TRIPOS>MOLECULE
frag5-578-42/41815
   38    38     1     1     1
SMALL
USER_CHARGES


@<TRIPOS>ATOM
      1 C7         -0.8413    2.1366   -0.2432 C.3        1 <1>        0.000
      2 C8          0.0188    0.9417   -0.6285 C.3        1 <1>        0.000
      3 C9          1.5326    0.9828   -0.6448 C.3        1 <1>        0.000
      4 C10         2.2924    1.4208   -1.8792 C.3        1 <1>        0.000
      5 C11         3.7445    1.7586   -1.6972 C.2        1 <1>        0.000
      6 C12         4.2146    2.6215   -0.5661 C.3        1 <1>        0.000
      7 C13         4.6401    1.8596    0.6687 C.3        1 <1>        0.000
      8 C14         5.4283    2.5892    1.7349 C.3        1 <1>        0.000
      9 C15         4.6548    3.4457    2.7136 C.3        1 <1>        0.000
     10 O3          3.2636    3.2050    2.7440 O.3        1 <1>        0.000
     11 C16         2.4329    4.2291    3.0076 C.2        1 <1>        0.000
     12 C17         0.9697    3.9835    2.7739 C.3        1 <1>        0.000
     13 C18         0.6159    3.7681    1.3196 C.3        1 <1>        0.000
     14 C19        -0.6415    2.9707    1.0189 C.3        1 <1>        0.000
     15 O9          2.8051    5.3367    3.3744 O.2        1 <1>        0.000
     16 O12         4.5790    1.3485   -2.5109 O.2        1 <1>        0.000
     17 H          -1.8176    1.6819   -0.0751 H.spc      1 <1>        0.000
     18 H          -0.6238    2.8513   -1.0369 H.spc      1 <1>        0.000
     19 H          -0.2355    0.7816   -1.6763 H.spc      1 <1>        0.000
     20 H          -0.2004    0.2164    0.1550 H.spc      1 <1>        0.000
     21 H           1.8250   -0.0589   -0.5123 H.spc      1 <1>        0.000
     22 H           1.7828    1.7387    0.0995 H.spc      1 <1>        0.000
     23 H           2.2662    0.5725   -2.5631 H.spc      1 <1>        0.000
     24 H           1.8117    2.3393   -2.2160 H.spc      1 <1>        0.000
     25 H           3.3753    3.2541   -0.2772 H.spc      1 <1>        0.000
     26 H           5.0892    3.1659   -0.9223 H.spc      1 <1>        0.000
     27 H           3.7102    1.5647    1.1549 H.spc      1 <1>        0.000
     28 H           5.3091    1.0798    0.3047 H.spc      1 <1>        0.000
     29 H           6.0821    3.2761    1.1975 H.spc      1 <1>        0.000
     30 H           5.8993    1.8109    2.3353 H.spc      1 <1>        0.000
     31 H           5.0371    3.2128    3.7074 H.spc      1 <1>        0.000
     32 H           4.7891    4.4813    2.4013 H.spc      1 <1>        0.000
     33 H           0.7008    3.0753    3.3133 H.spc      1 <1>        0.000
     34 H           0.4318    4.8687    3.1132 H.spc      1 <1>        0.000
     35 H           0.4401    4.7622    0.9085 H.spc      1 <1>        0.000
     36 H           1.4390    3.1910    0.8982 H.spc      1 <1>        0.000
     37 H          -0.6429    2.2179    1.8072 H.spc      1 <1>        0.000
     38 H          -1.3996    3.7471    0.9164 H.spc      1 <1>        0.000
@<TRIPOS>BOND
     1    7    8 1  
     2    1    2 1  
     3    5    6 1  
     4    1   14 1  
     5    4    5 1  
     6    2    3 1  
     7    3    4 1  
     8    6    7 1  
     9    5   16 2  
    10   13   14 1  
    11   12   13 1  
    12   11   12 1  
    13   11   15 2  
    14   10   11 1  
    15    9   10 1  
    16    8    9 1  
    17    1   17 1  
    18    1   18 1  
    19    2   19 1  
    20    2   20 1  
    21    3   21 1  
    22    3   22 1  
    23    4   23 1  
    24    4   24 1  
    25    6   25 1  
    26    6   26 1  
    27    7   27 1  
    28    7   28 1  
    29    8   29 1  
    30    8   30 1  
    31    9   31 1  
    32    9   32 1  
    33   12   33 1  
    34   12   34 1  
    35   13   35 1  
    36   13   36 1  
    37   14   37 1  
    38   14   38 1  
# Name:          frag5-578-42/41815
# Creation time: Sat Jun  5 12:52:55 2010


@<TRIPOS>MOLECULE
frag5-578-42/41815
   38    38     1     1     1
SMALL
USER_CHARGES


@<TRIPOS>ATOM
      1 C7         -0.7131    2.1882   -0.0066 C.3        1 <1>        0.000
      2 C8          0.1556    2.3245   -1.2472 C.3        1 <1>        0.000
      3 C9          1.6557    2.4377   -1.1266 C.3        1 <1>        0.000
      4 C10         2.4786    1.2176   -1.4466 C.3        1 <1>        0.000
      5 C11         3.7586    1.1463   -0.6327 C.2        1 <1>        0.000
      6 C12         5.0255    1.8727   -1.0805 C.3        1 <1>        0.000
      7 C13         5.8158    2.7545   -0.1066 C.3        1 <1>        0.000
      8 C14         5.1855    3.9752    0.5789 C.3        1 <1>        0.000
      9 C15         4.3542    3.8378    1.8582 C.3        1 <1>        0.000
     10 O3          3.1404    3.1368    1.7943 O.3        1 <1>        0.000
     11 C16         2.3317    3.2785    2.8706 C.2        1 <1>        0.000
     12 C17         0.8660    2.9390    2.7273 C.3        1 <1>        0.000
     13 C18         0.1675    3.8714    1.7611 C.3        1 <1>        0.000
     14 C19        -0.9839    3.3802    0.8993 C.3        1 <1>        0.000
     15 O9          2.7085    3.7447    3.9288 O.2        1 <1>        0.000
     16 O12         3.7627    0.4931    0.4140 O.2        1 <1>        0.000
     17 H          -0.1592    1.4961    0.6277 H.spc      1 <1>        0.000
     18 H          -1.6957    1.9286   -0.4006 H.spc      1 <1>        0.000
     19 H          -0.1500    3.2750   -1.6845 H.spc      1 <1>        0.000
     20 H           0.0004    1.3899   -1.7863 H.spc      1 <1>        0.000
     21 H           1.8482    2.6515   -0.0752 H.spc      1 <1>        0.000
     22 H           1.9511    3.1887   -1.8593 H.spc      1 <1>        0.000
     23 H           1.8805    0.3379   -1.2087 H.spc      1 <1>        0.000
     24 H           2.7535    1.2654   -2.5003 H.spc      1 <1>        0.000
     25 H           4.6758    2.5686   -1.8431 H.spc      1 <1>        0.000
     26 H           5.7174    1.0682   -1.3299 H.spc      1 <1>        0.000
     27 H           6.0416    2.0832    0.7219 H.spc      1 <1>        0.000
     28 H           6.5993    3.1861   -0.7294 H.spc      1 <1>        0.000
     29 H           4.4707    4.3450   -0.1562 H.spc      1 <1>        0.000
     30 H           6.0443    4.5698    0.8904 H.spc      1 <1>        0.000
     31 H           4.9786    3.2655    2.5443 H.spc      1 <1>        0.000
     32 H           4.0812    4.8569    2.1321 H.spc      1 <1>        0.000
     33 H           0.7849    1.9223    2.3429 H.spc      1 <1>        0.000
     34 H           0.3930    3.0394    3.7042 H.spc      1 <1>        0.000
     35 H          -0.2845    4.6283    2.4021 H.spc      1 <1>        0.000
     36 H           0.9423    4.1383    1.0424 H.spc      1 <1>        0.000
     37 H          -1.7570    3.0542    1.5951 H.spc      1 <1>        0.000
     38 H          -1.2306    4.2079    0.2344 H.spc      1 <1>        0.000
@<TRIPOS>BOND
     1    7    8 1  
     2    1    2 1  
     3    5    6 1  
     4    1   14 1  
     5    4    5 1  
     6    2    3 1  
     7    3    4 1  
     8    6    7 1  
     9    5   16 2  
    10   13   14 1  
    11   12   13 1  
    12   11   12 1  
    13   11   15 2  
    14   10   11 1  
    15    9   10 1  
    16    8    9 1  
    17    1   17 1  
    18    1   18 1  
    19    2   19 1  
    20    2   20 1  
    21    3   21 1  
    22    3   22 1  
    23    4   23 1  
    24    4   24 1  
    25    6   25 1  
    26    6   26 1  
    27    7   27 1  
    28    7   28 1  
    29    8   29 1  
    30    8   30 1  
    31    9   31 1  
    32    9   32 1  
    33   12   33 1  
    34   12   34 1  
    35   13   35 1  
    36   13   36 1  
    37   14   37 1  
    38   14   38 1  
# Name:          frag5-578-42/41815
# Creation time: Sat Jun  5 12:52:55 2010


@<TRIPOS>MOLECULE
frag5-578-42/41815
   38    38     1     1     1
SMALL
USER_CHARGES


@<TRIPOS>ATOM
      1 C7          0.2012    2.8106   -0.2179 C.3        1 <1>        0.000
      2 C8         -0.0121    2.0011   -1.4817 C.3        1 <1>        0.000
      3 C9          1.0131    1.0044   -1.9863 C.3        1 <1>        0.000
      4 C10         2.4280    1.4303   -2.3111 C.3        1 <1>        0.000
      5 C11         3.4644    1.4721   -1.1906 C.2        1 <1>        0.000
      6 C12         4.4768    2.6094   -1.1183 C.3        1 <1>        0.000
      7 C13         4.6703    3.3646    0.1756 C.3        1 <1>        0.000
      8 C14         5.2784    2.7776    1.4385 C.3        1 <1>        0.000
      9 C15         4.6179    3.1901    2.7446 C.3        1 <1>        0.000
     10 O3          3.2147    3.0587    2.7468 O.3        1 <1>        0.000
     11 C16         2.4636    4.1286    3.0365 C.2        1 <1>        0.000
     12 C17         1.0520    4.1534    2.5263 C.3        1 <1>        0.000
     13 C18         0.3417    2.8225    2.4385 C.3        1 <1>        0.000
     14 C19         0.0921    2.1097    1.1190 C.3        1 <1>        0.000
     15 O9          2.8844    5.1121    3.6501 O.2        1 <1>        0.000
     16 O12         3.5231    0.5528   -0.3842 O.2        1 <1>        0.000
     17 H          -0.5988    3.5509   -0.2165 H.spc      1 <1>        0.000
     18 H           1.2332    3.1571   -0.2734 H.spc      1 <1>        0.000
     19 H          -0.0395    2.7571   -2.2664 H.spc      1 <1>        0.000
     20 H          -0.8751    1.3795   -1.2430 H.spc      1 <1>        0.000
     21 H           0.6110    0.6772   -2.9452 H.spc      1 <1>        0.000
     22 H           1.1328    0.3082   -1.1562 H.spc      1 <1>        0.000
     23 H           2.7960    0.6752   -3.0058 H.spc      1 <1>        0.000
     24 H           2.3396    2.4624   -2.6503 H.spc      1 <1>        0.000
     25 H           4.0991    3.3562   -1.8167 H.spc      1 <1>        0.000
     26 H           5.4388    2.1309   -1.3019 H.spc      1 <1>        0.000
     27 H           5.3992    4.1253   -0.1038 H.spc      1 <1>        0.000
     28 H           3.6448    3.5698    0.4828 H.spc      1 <1>        0.000
     29 H           6.3047    3.1419    1.4841 H.spc      1 <1>        0.000
     30 H           5.1617    1.6965    1.3626 H.spc      1 <1>        0.000
     31 H           5.0045    2.5324    3.5231 H.spc      1 <1>        0.000
     32 H           4.8431    4.2451    2.9006 H.spc      1 <1>        0.000
     33 H           0.4844    4.7514    3.2393 H.spc      1 <1>        0.000
     34 H           1.1070    4.5334    1.5062 H.spc      1 <1>        0.000
     35 H           1.0132    2.1450    2.9660 H.spc      1 <1>        0.000
     36 H          -0.6632    3.0510    2.7937 H.spc      1 <1>        0.000
     37 H           0.8884    1.3665    1.0796 H.spc      1 <1>        0.000
     38 H          -0.9618    1.8371    1.1753 H.spc      1 <1>        0.000
@<TRIPOS>BOND
     1    7    8 1  
     2    1    2 1  
     3    5    6 1  
     4    1   14 1  
     5    4    5 1  
     6    2    3 1  
     7    3    4 1  
     8    6    7 1  
     9    5   16 2  
    10   13   14 1  
    11   12   13 1  
    12   11   12 1  
    13   11   15 2  
    14   10   11 1  
    15    9   10 1  
    16    8    9 1  
    17    1   17 1  
    18    1   18 1  
    19    2   19 1  
    20    2   20 1  
    21    3   21 1  
    22    3   22 1  
    23    4   23 1  
    24    4   24 1  
    25    6   25 1  
    26    6   26 1  
    27    7   27 1  
    28    7   28 1  
    29    8   29 1  
    30    8   30 1  
    31    9   31 1  
    32    9   32 1  
    33   12   33 1  
    34   12   34 1  
    35   13   35 1  
    36   13   36 1  
    37   14   37 1  
    38   14   38 1  
# Name:          frag5-578-42/41815
# Creation time: Sat Jun  5 12:52:55 2010


@<TRIPOS>MOLECULE
frag5-578-42/41815
   38    38     1     1     1
SMALL
USER_CHARGES


@<TRIPOS>ATOM
      1 C7         -0.6995    2.7122   -0.2651 C.3        1 <1>        0.000
      2 C8          0.5868    2.3903   -1.0205 C.3        1 <1>        0.000
      3 C9          1.2141    1.0372   -0.7101 C.3        1 <1>        0.000
      4 C10         2.5734    0.6985   -1.2805 C.3        1 <1>        0.000
      5 C11         3.8251    1.2385   -0.6330 C.2        1 <1>        0.000
      6 C12         4.4842    2.5039   -1.1363 C.3        1 <1>        0.000
      7 C13         4.1643    3.8175   -0.4653 C.3        1 <1>        0.000
      8 C14         4.9755    4.1770    0.7774 C.3        1 <1>        0.000
      9 C15         4.7004    3.3295    2.0027 C.3        1 <1>        0.000
     10 O3          3.4223    2.7365    1.9656 O.3        1 <1>        0.000
     11 C16         2.4890    3.0167    2.8770 C.2        1 <1>        0.000
     12 C17         1.0491    2.8670    2.4242 C.3        1 <1>        0.000
     13 C18         0.4825    4.0925    1.6944 C.3        1 <1>        0.000
     14 C19        -0.6324    3.9237    0.6571 C.3        1 <1>        0.000
     15 O9          2.7479    3.4516    3.9969 O.2        1 <1>        0.000
     16 O12         4.3268    0.6055    0.3011 O.2        1 <1>        0.000
     17 H          -0.9114    1.8509    0.3685 H.spc      1 <1>        0.000
     18 H          -1.4543    2.9369   -1.0187 H.spc      1 <1>        0.000
     19 H           1.3160    3.1440   -0.7236 H.spc      1 <1>        0.000
     20 H           0.3275    2.3748   -2.0791 H.spc      1 <1>        0.000
     21 H           0.5371    0.3092   -1.1571 H.spc      1 <1>        0.000
     22 H           1.3603    1.0411    0.3700 H.spc      1 <1>        0.000
     23 H           2.6537   -0.3824   -1.1650 H.spc      1 <1>        0.000
     24 H           2.5687    1.1453   -2.2747 H.spc      1 <1>        0.000
     25 H           4.1250    2.6180   -2.1591 H.spc      1 <1>        0.000
     26 H           5.5493    2.3528   -0.9607 H.spc      1 <1>        0.000
     27 H           4.3890    4.5898   -1.2009 H.spc      1 <1>        0.000
     28 H           3.1296    3.7372   -0.1322 H.spc      1 <1>        0.000
     29 H           4.7048    5.1997    1.0399 H.spc      1 <1>        0.000
     30 H           6.0232    4.0207    0.5204 H.spc      1 <1>        0.000
     31 H           5.4428    2.5321    2.0365 H.spc      1 <1>        0.000
     32 H           4.7485    3.9757    2.8791 H.spc      1 <1>        0.000
     33 H           1.0201    2.0346    1.7211 H.spc      1 <1>        0.000
     34 H           0.4458    2.7214    3.3203 H.spc      1 <1>        0.000
     35 H           0.0298    4.6927    2.4837 H.spc      1 <1>        0.000
     36 H           1.3259    4.4827    1.1248 H.spc      1 <1>        0.000
     37 H          -1.5347    3.8357    1.2623 H.spc      1 <1>        0.000
     38 H          -0.4753    4.7581   -0.0265 H.spc      1 <1>        0.000
@<TRIPOS>BOND
     1    7    8 1  
     2    1    2 1  
     3    5    6 1  
     4    1   14 1  
     5    4    5 1  
     6    2    3 1  
     7    3    4 1  
     8    6    7 1  
     9    5   16 2  
    10   13   14 1  
    11   12   13 1  
    12   11   12 1  
    13   11   15 2  
    14   10   11 1  
    15    9   10 1  
    16    8    9 1  
    17    1   17 1  
    18    1   18 1  
    19    2   19 1  
    20    2   20 1  
    21    3   21 1  
    22    3   22 1  
    23    4   23 1  
    24    4   24 1  
    25    6   25 1  
    26    6   26 1  
    27    7   27 1  
    28    7   28 1  
    29    8   29 1  
    30    8   30 1  
    31    9   31 1  
    32    9   32 1  
    33   12   33 1  
    34   12   34 1  
    35   13   35 1  
    36   13   36 1  
    37   14   37 1  
    38   14   38 1  
# Name:          frag5-578-42/41815
# Creation time: Sat Jun  5 12:52:55 2010


@<TRIPOS>MOLECULE
frag5-578-42/41815
   38    38     1     1     1
SMALL
USER_CHARGES


@<TRIPOS>ATOM
      1 C7         -0.6741    2.4185   -0.0532 C.3        1 <1>        0.000
      2 C8          0.2938    2.5753   -1.2036 C.3        1 <1>        0.000
      3 C9          1.7689    2.3149   -1.0526 C.3        1 <1>        0.000
      4 C10         2.3378    0.9236   -0.9488 C.3        1 <1>        0.000
      5 C11         3.8462    0.8901   -0.8088 C.2        1 <1>        0.000
      6 C12         4.5225    1.6862    0.2755 C.3        1 <1>        0.000
      7 C13         5.0945    3.0087   -0.1772 C.3        1 <1>        0.000
      8 C14         5.0475    4.2314    0.7127 C.3        1 <1>        0.000
      9 C15         4.4063    4.2161    2.0839 C.3        1 <1>        0.000
     10 O3          2.9982    4.1361    2.1367 O.3        1 <1>        0.000
     11 C16         2.3935    3.1293    2.7865 C.2        1 <1>        0.000
     12 C17         0.8935    3.0586    2.7893 C.3        1 <1>        0.000
     13 C18         0.1497    4.0261    1.9019 C.3        1 <1>        0.000
     14 C19        -0.9113    3.5289    0.9582 C.3        1 <1>        0.000
     15 O9          3.0206    2.2433    3.3683 O.2        1 <1>        0.000
     16 O12         4.5219    0.2112   -1.5832 O.2        1 <1>        0.000
     17 H          -0.2354    1.6185    0.5432 H.spc      1 <1>        0.000
     18 H          -1.6407    2.3095   -0.5450 H.spc      1 <1>        0.000
     19 H           0.2455    3.6397   -1.4335 H.spc      1 <1>        0.000
     20 H          -0.0280    1.8125   -1.9126 H.spc      1 <1>        0.000
     21 H           2.0057    2.7574   -0.0850 H.spc      1 <1>        0.000
     22 H           2.1885    2.6903   -1.9859 H.spc      1 <1>        0.000
     23 H           1.9175    0.4660   -0.0532 H.spc      1 <1>        0.000
     24 H           2.0846    0.3988   -1.8700 H.spc      1 <1>        0.000
     25 H           5.3576    1.0858    0.6364 H.spc      1 <1>        0.000
     26 H           3.7642    1.9085    1.0263 H.spc      1 <1>        0.000
     27 H           6.1599    2.8081   -0.2905 H.spc      1 <1>        0.000
     28 H           4.4758    3.2828   -1.0317 H.spc      1 <1>        0.000
     29 H           4.4248    4.9279    0.1512 H.spc      1 <1>        0.000
     30 H           6.0980    4.4268    0.9280 H.spc      1 <1>        0.000
     31 H           4.7725    3.3128    2.5717 H.spc      1 <1>        0.000
     32 H           4.6659    5.1702    2.5426 H.spc      1 <1>        0.000
     33 H           0.6456    2.0657    2.4140 H.spc      1 <1>        0.000
     34 H           0.5899    3.3012    3.8077 H.spc      1 <1>        0.000
     35 H          -0.3879    4.6712    2.5968 H.spc      1 <1>        0.000
     36 H           0.9187    4.4401    1.2497 H.spc      1 <1>        0.000
     37 H          -1.6539    3.0965    1.6287 H.spc      1 <1>        0.000
     38 H          -1.1074    4.3971    0.3290 H.spc      1 <1>        0.000
@<TRIPOS>BOND
     1    7    8 1  
     2    1    2 1  
     3    5    6 1  
     4    1   14 1  
     5    4    5 1  
     6    2    3 1  
     7    3    4 1  
     8    6    7 1  
     9    5   16 2  
    10   13   14 1  
    11   12   13 1  
    12   11   12 1  
    13   11   15 2  
    14   10   11 1  
    15    9   10 1  
    16    8    9 1  
    17    1   17 1  
    18    1   18 1  
    19    2   19 1  
    20    2   20 1  
    21    3   21 1  
    22    3   22 1  
    23    4   23 1  
    24    4   24 1  
    25    6   25 1  
    26    6   26 1  
    27    7   27 1  
    28    7   28 1  
    29    8   29 1  
    30    8   30 1  
    31    9   31 1  
    32    9   32 1  
    33   12   33 1  
    34   12   34 1  
    35   13   35 1  
    36   13   36 1  
    37   14   37 1  
    38   14   38 1  
# Name:          frag5-578-42/41815
# Creation time: Sat Jun  5 12:52:55 2010


@<TRIPOS>MOLECULE
frag5-578-42/41815
   38    38     1     1     1
SMALL
USER_CHARGES


@<TRIPOS>ATOM
      1 C7         -0.4419    1.8903    0.1678 C.3        1 <1>        0.000
      2 C8          0.3240    2.0962   -1.1317 C.3        1 <1>        0.000
      3 C9          1.0596    0.9437   -1.7667 C.3        1 <1>        0.000
      4 C10         2.4765    0.5720   -1.3909 C.3        1 <1>        0.000
      5 C11         3.6722    1.4781   -1.6288 C.2        1 <1>        0.000
      6 C12         4.7957    1.6288   -0.6030 C.3        1 <1>        0.000
      7 C13         4.3522    1.9481    0.8037 C.3        1 <1>        0.000
      8 C14         5.2561    2.6563    1.7943 C.3        1 <1>        0.000
      9 C15         4.5858    3.5523    2.8283 C.3        1 <1>        0.000
     10 O3          3.4587    4.2616    2.3686 O.3        1 <1>        0.000
     11 C16         2.3290    4.2945    3.0997 C.2        1 <1>        0.000
     12 C17         1.1028    4.7894    2.3989 C.3        1 <1>        0.000
     13 C18         0.6422    3.9339    1.2591 C.3        1 <1>        0.000
     14 C19         0.0723    2.5450    1.4316 C.3        1 <1>        0.000
     15 O9          2.2497    3.9395    4.2673 O.2        1 <1>        0.000
     16 O12         3.7746    2.0687   -2.7126 O.2        1 <1>        0.000
     17 H          -0.3842    0.8193    0.3620 H.spc      1 <1>        0.000
     18 H          -1.4184    2.3423   -0.0062 H.spc      1 <1>        0.000
     19 H           1.1069    2.8099   -0.8754 H.spc      1 <1>        0.000
     20 H          -0.4424    2.3632   -1.8593 H.spc      1 <1>        0.000
     21 H           1.1486    1.2475   -2.8097 H.spc      1 <1>        0.000
     22 H           0.4812    0.0744   -1.4537 H.spc      1 <1>        0.000
     23 H           2.4318    0.5072   -0.3038 H.spc      1 <1>        0.000
     24 H           2.6845   -0.2813   -2.0365 H.spc      1 <1>        0.000
     25 H           5.4075    2.4681   -0.9337 H.spc      1 <1>        0.000
     26 H           5.3052    0.6663   -0.5570 H.spc      1 <1>        0.000
     27 H           3.5323    2.6516    0.6589 H.spc      1 <1>        0.000
     28 H           4.2021    0.9662    1.2526 H.spc      1 <1>        0.000
     29 H           5.8909    3.3131    1.1996 H.spc      1 <1>        0.000
     30 H           5.7505    1.8675    2.3613 H.spc      1 <1>        0.000
     31 H           4.2389    2.8996    3.6294 H.spc      1 <1>        0.000
     32 H           5.3252    4.2972    3.1226 H.spc      1 <1>        0.000
     33 H           0.2987    4.7958    3.1348 H.spc      1 <1>        0.000
     34 H           1.3490    5.7660    1.9821 H.spc      1 <1>        0.000
     35 H          -0.2025    4.4953    0.8597 H.spc      1 <1>        0.000
     36 H           1.5627    3.7517    0.7045 H.spc      1 <1>        0.000
     37 H           0.8862    1.9186    1.7966 H.spc      1 <1>        0.000
     38 H          -0.7824    2.6411    2.1012 H.spc      1 <1>        0.000
@<TRIPOS>BOND
     1    7    8 1  
     2    1    2 1  
     3    5    6 1  
     4    1   14 1  
     5    4    5 1  
     6    2    3 1  
     7    3    4 1  
     8    6    7 1  
     9    5   16 2  
    10   13   14 1  
    11   12   13 1  
    12   11   12 1  
    13   11   15 2  
    14   10   11 1  
    15    9   10 1  
    16    8    9 1  
    17    1   17 1  
    18    1   18 1  
    19    2   19 1  
    20    2   20 1  
    21    3   21 1  
    22    3   22 1  
    23    4   23 1  
    24    4   24 1  
    25    6   25 1  
    26    6   26 1  
    27    7   27 1  
    28    7   28 1  
    29    8   29 1  
    30    8   30 1  
    31    9   31 1  
    32    9   32 1  
    33   12   33 1  
    34   12   34 1  
    35   13   35 1  
    36   13   36 1  
    37   14   37 1  
    38   14   38 1  
# Name:          frag5-578-42/41815
# Creation time: Sat Jun  5 12:52:55 2010


@<TRIPOS>MOLECULE
frag5-578-42/41815
   38    38     1     1     1
SMALL
USER_CHARGES


@<TRIPOS>ATOM
      1 C7         -0.1786    3.0579   -0.2640 C.3        1 <1>        0.000
      2 C8          1.1730    2.6293   -0.7958 C.3        1 <1>        0.000
      3 C9          1.2872    1.7372   -2.0172 C.3        1 <1>        0.000
      4 C10         2.5835    1.0219   -2.3263 C.3        1 <1>        0.000
      5 C11         3.6042    0.9103   -1.2080 C.2        1 <1>        0.000
      6 C12         4.4812    2.1124   -0.9462 C.3        1 <1>        0.000
      7 C13         5.1372    2.3809    0.3817 C.3        1 <1>        0.000
      8 C14         5.0857    3.8411    0.8084 C.3        1 <1>        0.000
      9 C15         4.1131    4.2742    1.8866 C.3        1 <1>        0.000
     10 O3          2.9261    3.5365    2.0566 O.3        1 <1>        0.000
     11 C16         2.2422    3.7433    3.2029 C.2        1 <1>        0.000
     12 C17         0.9632    2.9960    3.4516 C.3        1 <1>        0.000
     13 C18         0.2122    2.4858    2.2472 C.3        1 <1>        0.000
     14 C19        -0.2502    3.4700    1.1901 C.3        1 <1>        0.000
     15 O9          2.6220    4.5291    4.0711 O.2        1 <1>        0.000
     16 O12         3.7073   -0.1276   -0.5529 O.2        1 <1>        0.000
     17 H          -0.8236    2.1841   -0.3562 H.spc      1 <1>        0.000
     18 H          -0.4548    3.9433   -0.8366 H.spc      1 <1>        0.000
     19 H           1.5947    2.0283    0.0099 H.spc      1 <1>        0.000
     20 H           1.6421    3.5629   -1.1065 H.spc      1 <1>        0.000
     21 H           1.1473    2.4153   -2.8591 H.spc      1 <1>        0.000
     22 H           0.5750    0.9335   -1.8303 H.spc      1 <1>        0.000
     23 H           2.3029   -0.0024   -2.5716 H.spc      1 <1>        0.000
     24 H           3.0655    1.6108   -3.1067 H.spc      1 <1>        0.000
     25 H           3.7910    2.9492   -1.0538 H.spc      1 <1>        0.000
     26 H           5.3291    1.9485   -1.6113 H.spc      1 <1>        0.000
     27 H           4.5984    1.8036    1.1330 H.spc      1 <1>        0.000
     28 H           6.1879    2.1070    0.2864 H.spc      1 <1>        0.000
     29 H           4.7634    4.3773   -0.0842 H.spc      1 <1>        0.000
     30 H           6.0708    4.0390    1.2310 H.spc      1 <1>        0.000
     31 H           4.6571    4.1586    2.8241 H.spc      1 <1>        0.000
     32 H           3.7885    5.2725    1.5931 H.spc      1 <1>        0.000
     33 H           1.2460    2.1095    4.0193 H.spc      1 <1>        0.000
     34 H           0.2950    3.7089    3.9348 H.spc      1 <1>        0.000
     35 H           0.9199    1.8361    1.7323 H.spc      1 <1>        0.000
     36 H          -0.7059    2.0594    2.6515 H.spc      1 <1>        0.000
     37 H          -1.3106    3.6241    1.3898 H.spc      1 <1>        0.000
     38 H           0.4263    4.3201    1.2781 H.spc      1 <1>        0.000
@<TRIPOS>BOND
     1    7    8 1  
     2    1    2 1  
     3    5    6 1  
     4    1   14 1  
     5    4    5 1  
     6    2    3 1  
     7    3    4 1  
     8    6    7 1  
     9    5   16 2  
    10   13   14 1  
    11   12   13 1  
    12   11   12 1  
    13   11   15 2  
    14   10   11 1  
    15    9   10 1  
    16    8    9 1  
    17    1   17 1  
    18    1   18 1  
    19    2   19 1  
    20    2   20 1  
    21    3   21 1  
    22    3   22 1  
    23    4   23 1  
    24    4   24 1  
    25    6   25 1  
    26    6   26 1  
    27    7   27 1  
    28    7   28 1  
    29    8   29 1  
    30    8   30 1  
    31    9   31 1  
    32    9   32 1  
    33   12   33 1  
    34   12   34 1  
    35   13   35 1  
    36   13   36 1  
    37   14   37 1  
    38   14   38 1  
# Name:          frag5-578-42/41815
# Creation time: Sat Jun  5 12:52:55 2010


@<TRIPOS>MOLECULE
frag5-578-42/41815
   38    38     1     1     1
SMALL
USER_CHARGES


@<TRIPOS>ATOM
      1 C7         -0.2806    2.4937    0.1122 C.3        1 <1>        0.000
      2 C8          0.5278    2.5930   -1.1637 C.3        1 <1>        0.000
      3 C9          1.1442    1.3479   -1.7622 C.3        1 <1>        0.000
      4 C10         2.4433    1.4785   -2.5122 C.3        1 <1>        0.000
      5 C11         3.6972    1.3074   -1.6939 C.2        1 <1>        0.000
      6 C12         4.3284    2.4558   -0.9540 C.3        1 <1>        0.000
      7 C13         4.0512    2.4719    0.5226 C.3        1 <1>        0.000
      8 C14         5.0558    3.0839    1.4790 C.3        1 <1>        0.000
      9 C15         4.5620    3.4983    2.8623 C.3        1 <1>        0.000
     10 O3          3.2007    3.2605    3.1235 O.3        1 <1>        0.000
     11 C16         2.3675    4.3129    2.9955 C.2        1 <1>        0.000
     12 C17         0.9255    4.0796    2.6624 C.3        1 <1>        0.000
     13 C18         0.3857    2.6660    2.6467 C.3        1 <1>        0.000
     14 C19         0.3595    1.8847    1.3471 C.3        1 <1>        0.000
     15 O9          2.7546    5.4771    3.0920 O.2        1 <1>        0.000
     16 O12         4.1864    0.1869   -1.5716 O.2        1 <1>        0.000
     17 H          -1.1077    1.8270   -0.1318 H.spc      1 <1>        0.000
     18 H          -0.4951    3.5260    0.3885 H.spc      1 <1>        0.000
     19 H           1.3790    3.2210   -0.9007 H.spc      1 <1>        0.000
     20 H          -0.1854    2.9337   -1.9143 H.spc      1 <1>        0.000
     21 H           0.4225    0.9996   -2.5010 H.spc      1 <1>        0.000
     22 H           1.3697    0.7045   -0.9117 H.spc      1 <1>        0.000
     23 H           2.4503    0.6803   -3.2544 H.spc      1 <1>        0.000
     24 H           2.4698    2.4950   -2.9048 H.spc      1 <1>        0.000
     25 H           3.9077    3.3722   -1.3679 H.spc      1 <1>        0.000
     26 H           5.4073    2.3595   -1.0754 H.spc      1 <1>        0.000
     27 H           3.1636    3.0961    0.6253 H.spc      1 <1>        0.000
     28 H           4.0154    1.4193    0.8035 H.spc      1 <1>        0.000
     29 H           5.3878    4.0055    1.0010 H.spc      1 <1>        0.000
     30 H           5.7987    2.3063    1.6567 H.spc      1 <1>        0.000
     31 H           5.1222    2.9000    3.5809 H.spc      1 <1>        0.000
     32 H           4.7042    4.5769    2.9293 H.spc      1 <1>        0.000
     33 H           0.3727    4.5787    3.4583 H.spc      1 <1>        0.000
     34 H           0.8180    4.4290    1.6355 H.spc      1 <1>        0.000
     35 H           1.0642    2.1059    3.2901 H.spc      1 <1>        0.000
     36 H          -0.6628    2.7694    2.9260 H.spc      1 <1>        0.000
     37 H           1.4091    1.7629    1.0796 H.spc      1 <1>        0.000
     38 H          -0.2495    1.0078    1.5670 H.spc      1 <1>        0.000
@<TRIPOS>BOND
     1    7    8 1  
     2    1    2 1  
     3    5    6 1  
     4    1   14 1  
     5    4    5 1  
     6    2    3 1  
     7    3    4 1  
     8    6    7 1  
     9    5   16 2  
    10   13   14 1  
    11   12   13 1  
    12   11   12 1  
    13   11   15 2  
    14   10   11 1  
    15    9   10 1  
    16    8    9 1  
    17    1   17 1  
    18    1   18 1  
    19    2   19 1  
    20    2   20 1  
    21    3   21 1  
    22    3   22 1  
    23    4   23 1  
    24    4   24 1  
    25    6   25 1  
    26    6   26 1  
    27    7   27 1  
    28    7   28 1  
    29    8   29 1  
    30    8   30 1  
    31    9   31 1  
    32    9   32 1  
    33   12   33 1  
    34   12   34 1  
    35   13   35 1  
    36   13   36 1  
    37   14   37 1  
    38   14   38 1  
# Name:          frag5-578-42/41815
# Creation time: Sat Jun  5 12:52:55 2010


@<TRIPOS>MOLECULE
frag5-578-42/41815
   38    38     1     1     1
SMALL
USER_CHARGES


@<TRIPOS>ATOM
      1 C7          0.5697    1.6157    0.3788 C.3        1 <1>        0.000
      2 C8          0.4273    2.2239   -1.0146 C.3        1 <1>        0.000
      3 C9          1.0260    1.5564   -2.2184 C.3        1 <1>        0.000
      4 C10         2.5123    1.4380   -2.4246 C.3        1 <1>        0.000
      5 C11         3.4739    1.4911   -1.2419 C.2        1 <1>        0.000
      6 C12         4.2226    2.7697   -0.9559 C.3        1 <1>        0.000
      7 C13         5.3555    2.8477    0.0576 C.3        1 <1>        0.000
      8 C14         5.2381    2.4377    1.5104 C.3        1 <1>        0.000
      9 C15         4.3570    3.2036    2.4571 C.3        1 <1>        0.000
     10 O3          2.9838    3.3566    2.1369 O.3        1 <1>        0.000
     11 C16         2.2741    4.0495    3.0359 C.2        1 <1>        0.000
     12 C17         0.8774    4.5087    2.7246 C.3        1 <1>        0.000
     13 C18         0.1099    3.8500    1.6200 C.3        1 <1>        0.000
     14 C19        -0.0815    2.3487    1.5396 C.3        1 <1>        0.000
     15 O9          2.7312    4.4098    4.1192 O.2        1 <1>        0.000
     16 O12         3.6323    0.4910   -0.5391 O.2        1 <1>        0.000
     17 H           1.6386    1.6229    0.5922 H.spc      1 <1>        0.000
     18 H           0.0696    0.6486    0.3273 H.spc      1 <1>        0.000
     19 H           0.9638    3.1702   -0.9446 H.spc      1 <1>        0.000
     20 H          -0.6456    2.1965   -1.2051 H.spc      1 <1>        0.000
     21 H           0.7077    2.1936   -3.0435 H.spc      1 <1>        0.000
     22 H           0.7028    0.5203   -2.1181 H.spc      1 <1>        0.000
     23 H           2.6447    0.4345   -2.8291 H.spc      1 <1>        0.000
     24 H           2.7690    2.3178   -3.0147 H.spc      1 <1>        0.000
     25 H           3.4580    3.4184   -0.5285 H.spc      1 <1>        0.000
     26 H           4.7167    2.9887   -1.9025 H.spc      1 <1>        0.000
     27 H           6.0723    2.1259   -0.3339 H.spc      1 <1>        0.000
     28 H           5.5345    3.9205    0.1291 H.spc      1 <1>        0.000
     29 H           6.2428    2.5790    1.9088 H.spc      1 <1>        0.000
     30 H           4.7878    1.4458    1.4714 H.spc      1 <1>        0.000
     31 H           4.3695    2.6290    3.3833 H.spc      1 <1>        0.000
     32 H           4.7608    4.2160    2.4635 H.spc      1 <1>        0.000
     33 H           0.3071    4.2868    3.6266 H.spc      1 <1>        0.000
     34 H           0.9933    5.5430    2.4007 H.spc      1 <1>        0.000
     35 H          -0.9039    4.2251    1.7604 H.spc      1 <1>        0.000
     36 H           0.7027    4.0753    0.7335 H.spc      1 <1>        0.000
     37 H           0.3860    1.9462    2.4382 H.spc      1 <1>        0.000
     38 H          -1.1538    2.1973    1.4159 H.spc      1 <1>        0.000
@<TRIPOS>BOND
     1    7    8 1  
     2    1    2 1  
     3    5    6 1  
     4    1   14 1  
     5    4    5 1  
     6    2    3 1  
     7    3    4 1  
     8    6    7 1  
     9    5   16 2  
    10   13   14 1  
    11   12   13 1  
    12   11   12 1  
    13   11   15 2  
    14   10   11 1  
    15    9   10 1  
    16    8    9 1  
    17    1   17 1  
    18    1   18 1  
    19    2   19 1  
    20    2   20 1  
    21    3   21 1  
    22    3   22 1  
    23    4   23 1  
    24    4   24 1  
    25    6   25 1  
    26    6   26 1  
    27    7   27 1  
    28    7   28 1  
    29    8   29 1  
    30    8   30 1  
    31    9   31 1  
    32    9   32 1  
    33   12   33 1  
    34   12   34 1  
    35   13   35 1  
    36   13   36 1  
    37   14   37 1  
    38   14   38 1  
# Name:          frag5-578-42/41815 -- energy: -7.598321
# Creation time: Sat Jun  5 12:52:55 2010


@<TRIPOS>MOLECULE
frag5-578-42/41815 -- energy: -7.598321
   38    38     1     1     1
SMALL
USER_CHARGES


@<TRIPOS>ATOM
      1 C7         -0.6306    1.6969   -0.1049 C.3        1 <1>        0.000
      2 C8         -0.1962    2.4858   -1.3230 C.3        1 <1>        0.000
      3 C9          1.2758    2.5707   -1.6612 C.3        1 <1>        0.000
      4 C10         2.0932    1.2912   -1.6707 C.3        1 <1>        0.000
      5 C11         3.5494    1.4023   -1.2862 C.2        1 <1>        0.000
      6 C12         3.9860    2.2882   -0.1403 C.3        1 <1>        0.000
      7 C13         4.9352    1.7524    0.9078 C.3        1 <1>        0.000
      8 C14         5.6291    2.8046    1.7460 C.3        1 <1>        0.000
      9 C15         4.7291    3.8855    2.3092 C.3        1 <1>        0.000
     10 O3          3.5110    3.3891    2.8191 O.3        1 <1>        0.000
     11 C16         2.4243    4.1919    2.8495 C.2        1 <1>        0.000
     12 C17         1.0844    3.5143    3.0045 C.3        1 <1>        0.000
     13 C18         0.3415    3.2796    1.7131 C.3        1 <1>        0.000
     14 C19         0.1048    1.8754    1.2127 C.3        1 <1>        0.000
     15 O9          2.4734    5.4133    2.7189 O.2        1 <1>        0.000
     16 O12         4.3991    0.7570   -1.9086 O.2        1 <1>        0.000
     17 H          -0.4571    0.6557   -0.3766 H.spc      1 <1>        0.000
     18 H          -1.6443    2.0424    0.0981 H.spc      1 <1>        0.000
     19 H          -0.4934    3.5128   -1.1109 H.spc      1 <1>        0.000
     20 H          -0.6470    1.9653   -2.1679 H.spc      1 <1>        0.000
     21 H           1.7141    3.1825   -0.8727 H.spc      1 <1>        0.000
     22 H           1.3114    2.9387   -2.6866 H.spc      1 <1>        0.000
     23 H           1.6375    0.6424   -0.9228 H.spc      1 <1>        0.000
     24 H           2.0847    0.9413   -2.7030 H.spc      1 <1>        0.000
     25 H           3.0672    2.5006    0.4062 H.spc      1 <1>        0.000
     26 H           4.5352    3.1003   -0.6167 H.spc      1 <1>        0.000
     27 H           4.3381    1.1501    1.5925 H.spc      1 <1>        0.000
     28 H           5.7168    1.2108    0.3750 H.spc      1 <1>        0.000
     29 H           6.3421    3.3042    1.0902 H.spc      1 <1>        0.000
     30 H           6.0632    2.2851    2.6003 H.spc      1 <1>        0.000
     31 H           5.2615    4.3607    3.1332 H.spc      1 <1>        0.000
     32 H           4.4904    4.5715    1.4965 H.spc      1 <1>        0.000
     33 H           1.2740    2.5347    3.4432 H.spc      1 <1>        0.000
     34 H           0.4642    4.1743    3.6110 H.spc      1 <1>        0.000
     35 H          -0.6583    3.6700    1.9028 H.spc      1 <1>        0.000
     36 H           0.9754    3.7336    0.9514 H.spc      1 <1>        0.000
     37 H           1.0980    1.4584    1.0463 H.spc      1 <1>        0.000
     38 H          -0.5318    1.4064    1.9630 H.spc      1 <1>        0.000
@<TRIPOS>BOND
     1    7    8 1  
     2    1    2 1  
     3    5    6 1  
     4    1   14 1  
     5    4    5 1  
     6    2    3 1  
     7    3    4 1  
     8    6    7 1  
     9    5   16 2  
    10   13   14 1  
    11   12   13 1  
    12   11   12 1  
    13   11   15 2  
    14   10   11 1  
    15    9   10 1  
    16    8    9 1  
    17    1   17 1  
    18    1   18 1  
    19    2   19 1  
    20    2   20 1  
    21    3   21 1  
    22    3   22 1  
    23    4   23 1  
    24    4   24 1  
    25    6   25 1  
    26    6   26 1  
    27    7   27 1  
    28    7   28 1  
    29    8   29 1  
    30    8   30 1  
    31    9   31 1  
    32    9   32 1  
    33   12   33 1  
    34   12   34 1  
    35   13   35 1  
    36   13   36 1  
    37   14   37 1  
    38   14   38 1  
# Name:          frag5-578-42/41815 -- energy: -7.808929
# Creation time: Sat Jun  5 12:52:55 2010


@<TRIPOS>MOLECULE
frag5-578-42/41815 -- energy: -7.808929
   38    38     1     1     1
SMALL
USER_CHARGES


@<TRIPOS>ATOM
      1 C7          0.2702    2.9292    0.1836 C.3        1 <1>        0.000
      2 C8          0.8147    1.5642   -0.1936 C.3        1 <1>        0.000
      3 C9          1.4916    1.3484   -1.5361 C.3        1 <1>        0.000
      4 C10         2.6885    2.1715   -1.9665 C.3        1 <1>        0.000
      5 C11         4.0492    1.5268   -1.8291 C.2        1 <1>        0.000
      6 C12         5.1884    2.2251   -1.1321 C.3        1 <1>        0.000
      7 C13         5.2482    2.0673    0.3657 C.3        1 <1>        0.000
      8 C14         4.0597    2.4873    1.1862 C.3        1 <1>        0.000
      9 C15         4.1977    3.2517    2.4815 C.3        1 <1>        0.000
     10 O3          3.0289    3.3267    3.2667 O.3        1 <1>        0.000
     11 C16         2.0985    4.2415    2.8942 C.2        1 <1>        0.000
     12 C17         0.7037    4.0330    3.4126 C.3        1 <1>        0.000
     13 C18        -0.0187    2.8568    2.7950 C.3        1 <1>        0.000
     14 C19        -0.6291    2.9937    1.4095 C.3        1 <1>        0.000
     15 O9          2.2956    5.1836    2.1417 O.2        1 <1>        0.000
     16 O12         4.2222    0.3914   -2.2935 O.2        1 <1>        0.000
     17 H          -0.3459    3.2486   -0.6569 H.spc      1 <1>        0.000
     18 H           1.1393    3.5443    0.4170 H.spc      1 <1>        0.000
     19 H          -0.0671    0.9246   -0.2317 H.spc      1 <1>        0.000
     20 H           1.6019    1.3780    0.5369 H.spc      1 <1>        0.000
     21 H           0.7212    1.6148   -2.2597 H.spc      1 <1>        0.000
     22 H           1.8867    0.3349   -1.4663 H.spc      1 <1>        0.000
     23 H           2.5538    2.3586   -3.0318 H.spc      1 <1>        0.000
     24 H           2.7034    3.0414   -1.3099 H.spc      1 <1>        0.000
     25 H           5.0541    3.2902   -1.3211 H.spc      1 <1>        0.000
     26 H           6.1034    1.7792   -1.5222 H.spc      1 <1>        0.000
     27 H           5.3423    0.9944    0.5333 H.spc      1 <1>        0.000
     28 H           6.0586    2.7217    0.6867 H.spc      1 <1>        0.000
     29 H           3.6207    1.5396    1.4980 H.spc      1 <1>        0.000
     30 H           3.5378    3.1877    0.5342 H.spc      1 <1>        0.000
     31 H           4.9401    2.7217    3.0782 H.spc      1 <1>        0.000
     32 H           4.4584    4.2754    2.2127 H.spc      1 <1>        0.000
     33 H           0.7844    3.8353    4.4815 H.spc      1 <1>        0.000
     34 H           0.1319    4.9273    3.1650 H.spc      1 <1>        0.000
     35 H           0.7477    2.0897    2.6841 H.spc      1 <1>        0.000
     36 H          -0.8682    2.6779    3.4541 H.spc      1 <1>        0.000
     37 H          -1.2904    2.1326    1.3126 H.spc      1 <1>        0.000
     38 H          -1.0497    3.9991    1.3910 H.spc      1 <1>        0.000
@<TRIPOS>BOND
     1    7    8 1  
     2    1    2 1  
     3    5    6 1  
     4    1   14 1  
     5    4    5 1  
     6    2    3 1  
     7    3    4 1  
     8    6    7 1  
     9    5   16 2  
    10   13   14 1  
    11   12   13 1  
    12   11   12 1  
    13   11   15 2  
    14   10   11 1  
    15    9   10 1  
    16    8    9 1  
    17    1   17 1  
    18    1   18 1  
    19    2   19 1  
    20    2   20 1  
    21    3   21 1  
    22    3   22 1  
    23    4   23 1  
    24    4   24 1  
    25    6   25 1  
    26    6   26 1  
    27    7   27 1  
    28    7   28 1  
    29    8   29 1  
    30    8   30 1  
    31    9   31 1  
    32    9   32 1  
    33   12   33 1  
    34   12   34 1  
    35   13   35 1  
    36   13   36 1  
    37   14   37 1  
    38   14   38 1  
# Name:          frag5-578-42/41815 -- energy: -6.994520
# Creation time: Sat Jun  5 12:52:55 2010


@<TRIPOS>MOLECULE
frag5-578-42/41815 -- energy: -6.994520
   38    38     1     1     1
SMALL
USER_CHARGES


@<TRIPOS>ATOM
      1 C7         -0.0490    3.0141    0.1349 C.3        1 <1>        0.000
      2 C8          0.1529    1.9287   -0.9196 C.3        1 <1>        0.000
      3 C9          1.5149    1.3245   -1.1830 C.3        1 <1>        0.000
      4 C10         2.5873    2.1619   -1.8420 C.3        1 <1>        0.000
      5 C11         3.9862    1.6093   -1.7604 C.2        1 <1>        0.000
      6 C12         4.9010    2.0321   -0.6414 C.3        1 <1>        0.000
      7 C13         4.4614    1.6923    0.7509 C.3        1 <1>        0.000
      8 C14         5.0763    2.4263    1.9012 C.3        1 <1>        0.000
      9 C15         4.4469    3.7436    2.2423 C.3        1 <1>        0.000
     10 O3          3.3019    3.6352    3.0449 O.3        1 <1>        0.000
     11 C16         2.1694    4.2417    2.6834 C.2        1 <1>        0.000
     12 C17         0.9232    3.7763    3.3430 C.3        1 <1>        0.000
     13 C18         0.3298    2.5171    2.7423 C.3        1 <1>        0.000
     14 C19        -0.5816    2.6062    1.5174 C.3        1 <1>        0.000
     15 O9          2.0972    5.0757    1.7841 O.2        1 <1>        0.000
     16 O12         4.3916    0.8130   -2.6123 O.2        1 <1>        0.000
     17 H          -0.8105    3.6748   -0.2795 H.spc      1 <1>        0.000
     18 H           0.9462    3.4177    0.3215 H.spc      1 <1>        0.000
     19 H          -0.0959    2.4271   -1.8565 H.spc      1 <1>        0.000
     20 H          -0.4353    1.0906   -0.5458 H.spc      1 <1>        0.000
     21 H           1.3260    0.5139   -1.8868 H.spc      1 <1>        0.000
     22 H           1.9117    1.0961   -0.1938 H.spc      1 <1>        0.000
     23 H           2.3349    2.2104   -2.9013 H.spc      1 <1>        0.000
     24 H           2.6006    3.1170   -1.3169 H.spc      1 <1>        0.000
     25 H           4.9465    3.1203   -0.6852 H.spc      1 <1>        0.000
     26 H           5.8373    1.4970   -0.8001 H.spc      1 <1>        0.000
     27 H           3.4032    1.9516    0.7839 H.spc      1 <1>        0.000
     28 H           4.7521    0.6514    0.8925 H.spc      1 <1>        0.000
     29 H           6.1062    2.6408    1.6157 H.spc      1 <1>        0.000
     30 H           4.9519    1.7887    2.7764 H.spc      1 <1>        0.000
     31 H           5.1830    4.3190    2.8036 H.spc      1 <1>        0.000
     32 H           4.1431    4.2101    1.3052 H.spc      1 <1>        0.000
     33 H           1.1751    3.5488    4.3788 H.spc      1 <1>        0.000
     34 H           0.1831    4.5675    3.2233 H.spc      1 <1>        0.000
     35 H           1.1932    1.9482    2.3973 H.spc      1 <1>        0.000
     36 H          -0.3106    2.1172    3.5285 H.spc      1 <1>        0.000
     37 H          -0.9153    1.5789    1.3708 H.spc      1 <1>        0.000
     38 H          -1.2753    3.4076    1.7717 H.spc      1 <1>        0.000
@<TRIPOS>BOND
     1    7    8 1  
     2    1    2 1  
     3    5    6 1  
     4    1   14 1  
     5    4    5 1  
     6    2    3 1  
     7    3    4 1  
     8    6    7 1  
     9    5   16 2  
    10   13   14 1  
    11   12   13 1  
    12   11   12 1  
    13   11   15 2  
    14   10   11 1  
    15    9   10 1  
    16    8    9 1  
    17    1   17 1  
    18    1   18 1  
    19    2   19 1  
    20    2   20 1  
    21    3   21 1  
    22    3   22 1  
    23    4   23 1  
    24    4   24 1  
    25    6   25 1  
    26    6   26 1  
    27    7   27 1  
    28    7   28 1  
    29    8   29 1  
    30    8   30 1  
    31    9   31 1  
    32    9   32 1  
    33   12   33 1  
    34   12   34 1  
    35   13   35 1  
    36   13   36 1  
    37   14   37 1  
    38   14   38 1  
# Name:          frag5-578-42/41815 -- energy: -7.812368
# Creation time: Sat Jun  5 12:52:55 2010


@<TRIPOS>MOLECULE
frag5-578-42/41815 -- energy: -7.812368
   38    38     1     1     1
SMALL
USER_CHARGES


@<TRIPOS>ATOM
      1 C7         -0.7022    2.7144   -0.4190 C.3        1 <1>        0.000
      2 C8          0.5557    2.3414   -1.1654 C.3        1 <1>        0.000
      3 C9          1.4541    1.3077   -0.5283 C.3        1 <1>        0.000
      4 C10         2.5551    0.6830   -1.3398 C.3        1 <1>        0.000
      5 C11         3.9706    1.1541   -1.0487 C.2        1 <1>        0.000
      6 C12         4.4514    2.5295   -1.4097 C.3        1 <1>        0.000
      7 C13         4.1266    3.6790   -0.4794 C.3        1 <1>        0.000
      8 C14         4.8583    3.8246    0.8458 C.3        1 <1>        0.000
      9 C15         4.4761    2.9812    2.0490 C.3        1 <1>        0.000
     10 O3          3.0812    2.7951    2.2480 O.3        1 <1>        0.000
     11 C16         2.4397    3.5755    3.1404 C.2        1 <1>        0.000
     12 C17         0.9286    3.6025    3.0622 C.3        1 <1>        0.000
     13 C18         0.3727    3.8893    1.6770 C.3        1 <1>        0.000
     14 C19        -0.6172    2.8911    1.0842 C.3        1 <1>        0.000
     15 O9          3.0012    4.2587    3.9714 O.2        1 <1>        0.000
     16 O12         4.7574    0.3711   -0.5020 O.2        1 <1>        0.000
     17 H          -1.3858    1.8793   -0.5722 H.spc      1 <1>        0.000
     18 H          -0.9881    3.6918   -0.8077 H.spc      1 <1>        0.000
     19 H           1.1483    3.2544   -1.2223 H.spc      1 <1>        0.000
     20 H           0.2231    1.9050   -2.1072 H.spc      1 <1>        0.000
     21 H           0.7902    0.4799   -0.2790 H.spc      1 <1>        0.000
     22 H           1.9682    1.8424    0.2704 H.spc      1 <1>        0.000
     23 H           2.5377   -0.3803   -1.1005 H.spc      1 <1>        0.000
     24 H           2.3555    0.9556   -2.3761 H.spc      1 <1>        0.000
     25 H           3.9466    2.7702   -2.3453 H.spc      1 <1>        0.000
     26 H           5.5392    2.4600   -1.4060 H.spc      1 <1>        0.000
     27 H           4.4077    4.5692   -1.0421 H.spc      1 <1>        0.000
     28 H           3.0872    3.5120   -0.1968 H.spc      1 <1>        0.000
     29 H           4.6372    4.8452    1.1583 H.spc      1 <1>        0.000
     30 H           5.8782    3.5139    0.6193 H.spc      1 <1>        0.000
     31 H           4.9003    1.9913    1.8813 H.spc      1 <1>        0.000
     32 H           4.8472    3.5084    2.9279 H.spc      1 <1>        0.000
     33 H           0.5772    2.6109    3.3473 H.spc      1 <1>        0.000
     34 H           0.5903    4.4079    3.7141 H.spc      1 <1>        0.000
     35 H          -0.1806    4.8234    1.7743 H.spc      1 <1>        0.000
     36 H           1.2345    3.8740    1.0098 H.spc      1 <1>        0.000
     37 H          -0.2838    1.9219    1.4552 H.spc      1 <1>        0.000
     38 H          -1.5967    3.2742    1.3705 H.spc      1 <1>        0.000
@<TRIPOS>BOND
     1    7    8 1  
     2    1    2 1  
     3    5    6 1  
     4    1   14 1  
     5    4    5 1  
     6    2    3 1  
     7    3    4 1  
     8    6    7 1  
     9    5   16 2  
    10   13   14 1  
    11   12   13 1  
    12   11   12 1  
    13   11   15 2  
    14   10   11 1  
    15    9   10 1  
    16    8    9 1  
    17    1   17 1  
    18    1   18 1  
    19    2   19 1  
    20    2   20 1  
    21    3   21 1  
    22    3   22 1  
    23    4   23 1  
    24    4   24 1  
    25    6   25 1  
    26    6   26 1  
    27    7   27 1  
    28    7   28 1  
    29    8   29 1  
    30    8   30 1  
    31    9   31 1  
    32    9   32 1  
    33   12   33 1  
    34   12   34 1  
    35   13   35 1  
    36   13   36 1  
    37   14   37 1  
    38   14   38 1  
# Name:          frag5-578-42/41815 -- energy: -6.898179
# Creation time: Sat Jun  5 12:52:55 2010


@<TRIPOS>MOLECULE
frag5-578-42/41815 -- energy: -6.898179
   38    38     1     1     1
SMALL
USER_CHARGES


@<TRIPOS>ATOM
      1 C7         -0.1330    2.7437    0.1341 C.3        1 <1>        0.000
      2 C8          0.9037    1.7407   -0.3479 C.3        1 <1>        0.000
      3 C9          1.5880    2.1327   -1.6495 C.3        1 <1>        0.000
      4 C10         2.7366    1.3352   -2.2152 C.3        1 <1>        0.000
      5 C11         4.0025    1.1823   -1.3943 C.2        1 <1>        0.000
      6 C12         4.9496    2.3470   -1.1835 C.3        1 <1>        0.000
      7 C13         4.5459    3.4459   -0.2306 C.3        1 <1>        0.000
      8 C14         4.9613    3.3769    1.2222 C.3        1 <1>        0.000
      9 C15         4.0911    2.6247    2.2090 C.3        1 <1>        0.000
     10 O3          2.7044    2.8931    2.1817 O.3        1 <1>        0.000
     11 C16         2.2552    3.9686    2.8529 C.2        1 <1>        0.000
     12 C17         0.7891    4.2950    2.7596 C.3        1 <1>        0.000
     13 C18        -0.1341    3.1009    2.7613 C.3        1 <1>        0.000
     14 C19        -0.8100    2.6391    1.4830 C.3        1 <1>        0.000
     15 O9          2.9739    4.7059    3.5125 O.2        1 <1>        0.000
     16 O12         4.2853    0.0664   -0.9098 O.2        1 <1>        0.000
     17 H          -0.9552    2.6101   -0.5689 H.spc      1 <1>        0.000
     18 H           0.4340    3.6715    0.2107 H.spc      1 <1>        0.000
     19 H           0.3835    0.7998   -0.5273 H.spc      1 <1>        0.000
     20 H           1.6767    1.6820    0.4183 H.spc      1 <1>        0.000
     21 H           2.0330    3.1021   -1.4250 H.spc      1 <1>        0.000
     22 H           0.8031    2.0204   -2.3974 H.spc      1 <1>        0.000
     23 H           2.3484    0.3224   -2.3227 H.spc      1 <1>        0.000
     24 H           3.0450    1.8816   -3.1065 H.spc      1 <1>        0.000
     25 H           5.0256    2.8303   -2.1575 H.spc      1 <1>        0.000
     26 H           5.8461    1.9077   -0.7460 H.spc      1 <1>        0.000
     27 H           5.0437    4.3363   -0.6146 H.spc      1 <1>        0.000
     28 H           3.4572    3.3987   -0.2055 H.spc      1 <1>        0.000
     29 H           4.9413    4.4110    1.5662 H.spc      1 <1>        0.000
     30 H           5.9065    2.8341    1.2154 H.spc      1 <1>        0.000
     31 H           4.1938    1.5707    1.9509 H.spc      1 <1>        0.000
     32 H           4.4325    2.9306    3.1979 H.spc      1 <1>        0.000
     33 H           0.5419    4.8840    3.6428 H.spc      1 <1>        0.000
     34 H           0.6411    4.8047    1.8076 H.spc      1 <1>        0.000
     35 H           0.5107    2.2666    3.0375 H.spc      1 <1>        0.000
     36 H          -0.9603    3.4044    3.4042 H.spc      1 <1>        0.000
     37 H          -0.9259    1.5651    1.6285 H.spc      1 <1>        0.000
     38 H          -1.6672    3.3061    1.3915 H.spc      1 <1>        0.000
@<TRIPOS>BOND
     1    7    8 1  
     2    1    2 1  
     3    5    6 1  
     4    1   14 1  
     5    4    5 1  
     6    2    3 1  
     7    3    4 1  
     8    6    7 1  
     9    5   16 2  
    10   13   14 1  
    11   12   13 1  
    12   11   12 1  
    13   11   15 2  
    14   10   11 1  
    15    9   10 1  
    16    8    9 1  
    17    1   17 1  
    18    1   18 1  
    19    2   19 1  
    20    2   20 1  
    21    3   21 1  
    22    3   22 1  
    23    4   23 1  
    24    4   24 1  
    25    6   25 1  
    26    6   26 1  
    27    7   27 1  
    28    7   28 1  
    29    8   29 1  
    30    8   30 1  
    31    9   31 1  
    32    9   32 1  
    33   12   33 1  
    34   12   34 1  
    35   13   35 1  
    36   13   36 1  
    37   14   37 1  
    38   14   38 1  
# Name:          frag5-578-42/41815 -- energy: -6.587808
# Creation time: Sat Jun  5 12:52:55 2010


@<TRIPOS>MOLECULE
frag5-578-42/41815 -- energy: -6.587808
   38    38     1     1     1
SMALL
USER_CHARGES


@<TRIPOS>ATOM
      1 C7         -0.8316    2.5771   -0.0211 C.3        1 <1>        0.000
      2 C8          0.1379    1.7543   -0.8788 C.3        1 <1>        0.000
      3 C9          1.6107    2.0640   -0.7663 C.3        1 <1>        0.000
      4 C10         2.6316    1.0619   -1.2326 C.3        1 <1>        0.000
      5 C11         4.0194    1.6321   -1.4088 C.2        1 <1>        0.000
      6 C12         5.1609    1.3735   -0.4411 C.3        1 <1>        0.000
      7 C13         4.8881    1.2726    1.0449 C.3        1 <1>        0.000
      8 C14         5.2030    2.4714    1.9174 C.3        1 <1>        0.000
      9 C15         4.4460    3.7608    1.6855 C.3        1 <1>        0.000
     10 O3          3.0466    3.6503    1.6369 O.3        1 <1>        0.000
     11 C16         2.2643    4.3382    2.4955 C.2        1 <1>        0.000
     12 C17         0.7773    4.1554    2.3630 C.3        1 <1>        0.000
     13 C18         0.2806    2.7220    2.3789 C.3        1 <1>        0.000
     14 C19        -0.8746    2.3275    1.4852 C.3        1 <1>        0.000
     15 O9          2.7045    5.1048    3.3344 O.2        1 <1>        0.000
     16 O12         4.2447    2.3324   -2.4073 O.2        1 <1>        0.000
     17 H          -1.8249    2.3081   -0.3805 H.spc      1 <1>        0.000
     18 H          -0.4966    3.6089   -0.1271 H.spc      1 <1>        0.000
     19 H          -0.1283    1.9748   -1.9125 H.spc      1 <1>        0.000
     20 H           0.0293    0.7254   -0.5358 H.spc      1 <1>        0.000
     21 H           1.7880    2.1531    0.3055 H.spc      1 <1>        0.000
     22 H           1.7575    2.9245   -1.4190 H.spc      1 <1>        0.000
     23 H           2.6957    0.2873   -0.4684 H.spc      1 <1>        0.000
     24 H           2.3057    0.6991   -2.2074 H.spc      1 <1>        0.000
     25 H           5.8048    2.2474   -0.5405 H.spc      1 <1>        0.000
     26 H           5.5327    0.3867   -0.7168 H.spc      1 <1>        0.000
     27 H           3.8105    1.1324    1.1292 H.spc      1 <1>        0.000
     28 H           5.5429    0.4781    1.4029 H.spc      1 <1>        0.000
     29 H           6.2439    2.7123    1.7014 H.spc      1 <1>        0.000
     30 H           4.9339    2.1637    2.9279 H.spc      1 <1>        0.000
     31 H           4.6737    4.4071    2.5332 H.spc      1 <1>        0.000
     32 H           4.7590    4.1291    0.7085 H.spc      1 <1>        0.000
     33 H           0.3301    4.6444    3.2284 H.spc      1 <1>        0.000
     34 H           0.5038    4.5638    1.3901 H.spc      1 <1>        0.000
     35 H           1.1237    2.1318    2.0199 H.spc      1 <1>        0.000
     36 H          -0.0871    2.5666    3.3932 H.spc      1 <1>        0.000
     37 H          -0.9133    1.2415    1.5703 H.spc      1 <1>        0.000
     38 H          -1.6989    2.9511    1.8311 H.spc      1 <1>        0.000
@<TRIPOS>BOND
     1    7    8 1  
     2    1    2 1  
     3    5    6 1  
     4    1   14 1  
     5    4    5 1  
     6    2    3 1  
     7    3    4 1  
     8    6    7 1  
     9    5   16 2  
    10   13   14 1  
    11   12   13 1  
    12   11   12 1  
    13   11   15 2  
    14   10   11 1  
    15    9   10 1  
    16    8    9 1  
    17    1   17 1  
    18    1   18 1  
    19    2   19 1  
    20    2   20 1  
    21    3   21 1  
    22    3   22 1  
    23    4   23 1  
    24    4   24 1  
    25    6   25 1  
    26    6   26 1  
    27    7   27 1  
    28    7   28 1  
    29    8   29 1  
    30    8   30 1  
    31    9   31 1  
    32    9   32 1  
    33   12   33 1  
    34   12   34 1  
    35   13   35 1  
    36   13   36 1  
    37   14   37 1  
    38   14   38 1  
# Name:          frag5-578-42/41815 -- energy: -7.957947
# Creation time: Sat Jun  5 12:52:55 2010


@<TRIPOS>MOLECULE
frag5-578-42/41815 -- energy: -7.957947
   38    38     1     1     1
SMALL
USER_CHARGES


@<TRIPOS>ATOM
      1 C7         -0.4212    2.7872   -0.1044 C.3        1 <1>        0.000
      2 C8          0.4505    1.8844   -0.9545 C.3        1 <1>        0.000
      3 C9          1.7387    2.4462   -1.5138 C.3        1 <1>        0.000
      4 C10         2.6734    1.4868   -2.2162 C.3        1 <1>        0.000
      5 C11         3.8545    0.9707   -1.4153 C.2        1 <1>        0.000
      6 C12         5.1229    1.7960   -1.2443 C.3        1 <1>        0.000
      7 C13         5.0944    2.8904   -0.2108 C.3        1 <1>        0.000
      8 C14         4.4083    2.6445    1.1022 C.3        1 <1>        0.000
      9 C15         3.9732    3.8501    1.8974 C.3        1 <1>        0.000
     10 O3          3.3128    3.4628    3.0757 O.3        1 <1>        0.000
     11 C16         2.1453    4.0894    3.3022 C.2        1 <1>        0.000
     12 C17         0.9954    3.1877    3.6146 C.3        1 <1>        0.000
     13 C18         0.4646    2.5265    2.3652 C.3        1 <1>        0.000
     14 C19         0.1386    3.4065    1.1691 C.3        1 <1>        0.000
     15 O9          1.9989    5.2990    3.1723 O.2        1 <1>        0.000
     16 O12         3.7590   -0.1299   -0.8538 O.2        1 <1>        0.000
     17 H          -1.2293    2.1413    0.2390 H.spc      1 <1>        0.000
     18 H          -0.6407    3.6390   -0.7481 H.spc      1 <1>        0.000
     19 H          -0.1565    1.6395   -1.8261 H.spc      1 <1>        0.000
     20 H           0.7560    1.0752   -0.2912 H.spc      1 <1>        0.000
     21 H           2.2939    2.8188   -0.6530 H.spc      1 <1>        0.000
     22 H           1.4381    3.1699   -2.2714 H.spc      1 <1>        0.000
     23 H           2.0732    0.6107   -2.4618 H.spc      1 <1>        0.000
     24 H           3.0989    2.0421   -3.0521 H.spc      1 <1>        0.000
     25 H           5.2839    2.2945   -2.2002 H.spc      1 <1>        0.000
     26 H           5.8904    1.0959   -0.9143 H.spc      1 <1>        0.000
     27 H           6.1402    3.0552    0.0485 H.spc      1 <1>        0.000
     28 H           4.5260    3.6964   -0.6749 H.spc      1 <1>        0.000
     29 H           5.1415    2.1316    1.7247 H.spc      1 <1>        0.000
     30 H           3.4916    2.1077    0.8581 H.spc      1 <1>        0.000
     31 H           4.8562    4.4303    2.1653 H.spc      1 <1>        0.000
     32 H           3.2880    4.4416    1.2901 H.spc      1 <1>        0.000
     33 H           1.3376    2.4123    4.2999 H.spc      1 <1>        0.000
     34 H           0.1976    3.7827    4.0590 H.spc      1 <1>        0.000
     35 H           1.2641    1.8671    2.0273 H.spc      1 <1>        0.000
     36 H          -0.4843    2.0776    2.6587 H.spc      1 <1>        0.000
     37 H          -0.6556    4.0636    1.5236 H.spc      1 <1>        0.000
     38 H           1.0998    3.8237    0.8687 H.spc      1 <1>        0.000
@<TRIPOS>BOND
     1    7    8 1  
     2    1    2 1  
     3    5    6 1  
     4    1   14 1  
     5    4    5 1  
     6    2    3 1  
     7    3    4 1  
     8    6    7 1  
     9    5   16 2  
    10   13   14 1  
    11   12   13 1  
    12   11   12 1  
    13   11   15 2  
    14   10   11 1  
    15    9   10 1  
    16    8    9 1  
    17    1   17 1  
    18    1   18 1  
    19    2   19 1  
    20    2   20 1  
    21    3   21 1  
    22    3   22 1  
    23    4   23 1  
    24    4   24 1  
    25    6   25 1  
    26    6   26 1  
    27    7   27 1  
    28    7   28 1  
    29    8   29 1  
    30    8   30 1  
    31    9   31 1  
    32    9   32 1  
    33   12   33 1  
    34   12   34 1  
    35   13   35 1  
    36   13   36 1  
    37   14   37 1  
    38   14   38 1  
# Name:          frag5-578-42/41815 -- energy: -6.656579
# Creation time: Sat Jun  5 12:52:55 2010


@<TRIPOS>MOLECULE
frag5-578-42/41815 -- energy: -6.656579
   38    38     1     1     1
SMALL
USER_CHARGES


@<TRIPOS>ATOM
      1 C7         -0.8026    1.8677    0.1782 C.3        1 <1>        0.000
      2 C8          0.1567    1.6470   -0.9849 C.3        1 <1>        0.000
      3 C9          1.6545    1.6955   -0.8021 C.3        1 <1>        0.000
      4 C10         2.5631    1.7336   -2.0096 C.3        1 <1>        0.000
      5 C11         3.9867    1.2638   -1.7817 C.2        1 <1>        0.000
      6 C12         4.9481    2.0506   -0.9202 C.3        1 <1>        0.000
      7 C13         4.7662    1.9739    0.5702 C.3        1 <1>        0.000
      8 C14         5.3254    3.0825    1.4352 C.3        1 <1>        0.000
      9 C15         4.4432    3.5870    2.5529 C.3        1 <1>        0.000
     10 O3          3.1553    3.9575    2.1436 O.3        1 <1>        0.000
     11 C16         2.2582    4.3003    3.0765 C.2        1 <1>        0.000
     12 C17         0.8615    4.4625    2.5832 C.3        1 <1>        0.000
     13 C18         0.2148    3.1583    2.1903 C.3        1 <1>        0.000
     14 C19        -0.7209    3.1439    1.0048 C.3        1 <1>        0.000
     15 O9          2.5216    4.4542    4.2668 O.2        1 <1>        0.000
     16 O12         4.3776    0.2199   -2.3175 O.2        1 <1>        0.000
     17 H          -0.5621    1.0719    0.8831 H.spc      1 <1>        0.000
     18 H          -1.7878    1.9079   -0.2864 H.spc      1 <1>        0.000
     19 H          -0.0487    2.4852   -1.6507 H.spc      1 <1>        0.000
     20 H          -0.0331    0.6159   -1.2831 H.spc      1 <1>        0.000
     21 H           1.8989    0.7557   -0.3070 H.spc      1 <1>        0.000
     22 H           1.8363    2.6428   -0.2946 H.spc      1 <1>        0.000
     23 H           2.1288    1.0535   -2.7423 H.spc      1 <1>        0.000
     24 H           2.6292    2.7789   -2.3114 H.spc      1 <1>        0.000
     25 H           4.7882    3.0966   -1.1820 H.spc      1 <1>        0.000
     26 H           5.9330    1.6275   -1.1179 H.spc      1 <1>        0.000
     27 H           3.6879    2.0144    0.7240 H.spc      1 <1>        0.000
     28 H           5.3099    1.0793    0.8739 H.spc      1 <1>        0.000
     29 H           5.4796    3.9319    0.7697 H.spc      1 <1>        0.000
     30 H           6.2106    2.6676    1.9173 H.spc      1 <1>        0.000
     31 H           4.3319    2.7721    3.2683 H.spc      1 <1>        0.000
     32 H           4.9198    4.4777    2.9624 H.spc      1 <1>        0.000
     33 H           0.2728    4.8920    3.3938 H.spc      1 <1>        0.000
     34 H           0.8960    5.0945    1.6958 H.spc      1 <1>        0.000
     35 H           1.0406    2.5051    1.9085 H.spc      1 <1>        0.000
     36 H          -0.4033    2.8791    3.0436 H.spc      1 <1>        0.000
     37 H          -1.7186    3.2848    1.4207 H.spc      1 <1>        0.000
     38 H          -0.3400    3.9062    0.3251 H.spc      1 <1>        0.000
@<TRIPOS>BOND
     1    7    8 1  
     2    1    2 1  
     3    5    6 1  
     4    1   14 1  
     5    4    5 1  
     6    2    3 1  
     7    3    4 1  
     8    6    7 1  
     9    5   16 2  
    10   13   14 1  
    11   12   13 1  
    12   11   12 1  
    13   11   15 2  
    14   10   11 1  
    15    9   10 1  
    16    8    9 1  
    17    1   17 1  
    18    1   18 1  
    19    2   19 1  
    20    2   20 1  
    21    3   21 1  
    22    3   22 1  
    23    4   23 1  
    24    4   24 1  
    25    6   25 1  
    26    6   26 1  
    27    7   27 1  
    28    7   28 1  
    29    8   29 1  
    30    8   30 1  
    31    9   31 1  
    32    9   32 1  
    33   12   33 1  
    34   12   34 1  
    35   13   35 1  
    36   13   36 1  
    37   14   37 1  
    38   14   38 1  
# Name:          frag5-578-42/41815 -- energy: -3.775273
# Creation time: Sat Jun  5 12:52:55 2010


@<TRIPOS>MOLECULE
frag5-578-42/41815 -- energy: -3.775273
   38    38     1     1     1
SMALL
USER_CHARGES


@<TRIPOS>ATOM
      1 C7         -0.1297    2.6551   -0.4740 C.3        1 <1>        0.000
      2 C8          0.1704    1.1751   -0.2530 C.3        1 <1>        0.000
      3 C9          1.5663    0.6420   -0.4961 C.3        1 <1>        0.000
      4 C10         2.2282    1.1236   -1.7788 C.3        1 <1>        0.000
      5 C11         3.7235    1.3309   -1.7521 C.2        1 <1>        0.000
      6 C12         4.5054    1.3297   -0.4525 C.3        1 <1>        0.000
      7 C13         4.1683    2.4980    0.4485 C.3        1 <1>        0.000
      8 C14         4.8609    2.6354    1.7865 C.3        1 <1>        0.000
      9 C15         4.6191    3.9124    2.5667 C.3        1 <1>        0.000
     10 O3          3.3805    4.5686    2.4334 O.3        1 <1>        0.000
     11 C16         2.3266    4.0129    3.0723 C.2        1 <1>        0.000
     12 C17         0.9718    4.5977    2.8073 C.3        1 <1>        0.000
     13 C18         0.1235    3.7575    1.8785 C.3        1 <1>        0.000
     14 C19         0.4483    3.7499    0.4007 C.3        1 <1>        0.000
     15 O9          2.4226    3.0549    3.8117 O.2        1 <1>        0.000
     16 O12         4.3239    1.5544   -2.8134 O.2        1 <1>        0.000
     17 H          -1.2009    2.7237   -0.2847 H.spc      1 <1>        0.000
     18 H           0.3116    2.8563   -1.4502 H.spc      1 <1>        0.000
     19 H          -0.4502    0.6586   -0.9853 H.spc      1 <1>        0.000
     20 H           0.0002    1.0184    0.8122 H.spc      1 <1>        0.000
     21 H           1.4784   -0.4415   -0.5765 H.spc      1 <1>        0.000
     22 H           2.1851    0.9966    0.3281 H.spc      1 <1>        0.000
     23 H           2.0527    0.3381   -2.5138 H.spc      1 <1>        0.000
     24 H           1.7983    2.1044   -1.9819 H.spc      1 <1>        0.000
     25 H           5.5635    1.4017   -0.7041 H.spc      1 <1>        0.000
     26 H           4.2520    0.4154    0.0841 H.spc      1 <1>        0.000
     27 H           4.4790    3.3783   -0.1141 H.spc      1 <1>        0.000
     28 H           3.1158    2.3601    0.6961 H.spc      1 <1>        0.000
     29 H           5.9288    2.6204    1.5688 H.spc      1 <1>        0.000
     30 H           4.4658    1.8312    2.4072 H.spc      1 <1>        0.000
     31 H           4.6686    3.6154    3.6143 H.spc      1 <1>        0.000
     32 H           5.3546    4.6196    2.1833 H.spc      1 <1>        0.000
     33 H           0.4493    4.6600    3.7619 H.spc      1 <1>        0.000
     34 H           1.1206    5.5660    2.3293 H.spc      1 <1>        0.000
     35 H           0.2786    2.7298    2.2069 H.spc      1 <1>        0.000
     36 H          -0.8768    4.1853    1.9454 H.spc      1 <1>        0.000
     37 H           0.0184    4.6740    0.0143 H.spc      1 <1>        0.000
     38 H           1.5279    3.6076    0.3515 H.spc      1 <1>        0.000
@<TRIPOS>BOND
     1    7    8 1  
     2    1    2 1  
     3    5    6 1  
     4    1   14 1  
     5    4    5 1  
     6    2    3 1  
     7    3    4 1  
     8    6    7 1  
     9    5   16 2  
    10   13   14 1  
    11   12   13 1  
    12   11   12 1  
    13   11   15 2  
    14   10   11 1  
    15    9   10 1  
    16    8    9 1  
    17    1   17 1  
    18    1   18 1  
    19    2   19 1  
    20    2   20 1  
    21    3   21 1  
    22    3   22 1  
    23    4   23 1  
    24    4   24 1  
    25    6   25 1  
    26    6   26 1  
    27    7   27 1  
    28    7   28 1  
    29    8   29 1  
    30    8   30 1  
    31    9   31 1  
    32    9   32 1  
    33   12   33 1  
    34   12   34 1  
    35   13   35 1  
    36   13   36 1  
    37   14   37 1  
    38   14   38 1  
# Name:          frag5-578-42/41815 -- energy: -7.156013
# Creation time: Sat Jun  5 12:52:55 2010


@<TRIPOS>MOLECULE
frag5-578-42/41815 -- energy: -7.156013
   38    38     1     1     1
SMALL
USER_CHARGES


@<TRIPOS>ATOM
      1 C7         -0.2103    3.1019   -0.4209 C.3        1 <1>        0.000
      2 C8          0.8391    2.3827   -1.2545 C.3        1 <1>        0.000
      3 C9          1.2512    0.9727   -0.8721 C.3        1 <1>        0.000
      4 C10         2.3827    0.3185   -1.6285 C.3        1 <1>        0.000
      5 C11         3.7999    0.8044   -1.4330 C.2        1 <1>        0.000
      6 C12         4.2880    1.4205   -0.1486 C.3        1 <1>        0.000
      7 C13         4.3804    2.9216   -0.1835 C.3        1 <1>        0.000
      8 C14         5.0987    3.5854    0.9719 C.3        1 <1>        0.000
      9 C15         4.2791    3.9770    2.1933 C.3        1 <1>        0.000
     10 O3          2.9737    3.4593    2.3296 O.3        1 <1>        0.000
     11 C16         2.2251    3.9352    3.3539 C.2        1 <1>        0.000
     12 C17         0.7374    3.6769    3.3691 C.3        1 <1>        0.000
     13 C18         0.1920    2.9835    2.1453 C.3        1 <1>        0.000
     14 C19         0.1659    3.7887    0.8654 C.3        1 <1>        0.000
     15 O9          2.7047    4.5982    4.2702 O.2        1 <1>        0.000
     16 O12         4.6019    0.6718   -2.3721 O.2        1 <1>        0.000
     17 H          -0.8922    2.3102   -0.1105 H.spc      1 <1>        0.000
     18 H          -0.5527    3.9119   -1.0650 H.spc      1 <1>        0.000
     19 H           1.7442    2.9789   -1.1382 H.spc      1 <1>        0.000
     20 H           0.3902    2.2836   -2.2428 H.spc      1 <1>        0.000
     21 H           0.3771    0.3556   -1.0798 H.spc      1 <1>        0.000
     22 H           1.6045    1.0495    0.1562 H.spc      1 <1>        0.000
     23 H           2.3942   -0.7099   -1.2673 H.spc      1 <1>        0.000
     24 H           2.1655    0.5241   -2.6767 H.spc      1 <1>        0.000
     25 H           5.2936    1.0396    0.0300 H.spc      1 <1>        0.000
     26 H           3.5688    1.1597    0.6278 H.spc      1 <1>        0.000
     27 H           4.9566    3.1663   -1.0758 H.spc      1 <1>        0.000
     28 H           3.3539    3.2865   -0.1485 H.spc      1 <1>        0.000
     29 H           5.4862    4.5222    0.5714 H.spc      1 <1>        0.000
     30 H           5.8154    2.8462    1.3297 H.spc      1 <1>        0.000
     31 H           4.8316    3.5783    3.0441 H.spc      1 <1>        0.000
     32 H           4.1482    5.0560    2.1118 H.spc      1 <1>        0.000
     33 H           0.5434    3.0170    4.2147 H.spc      1 <1>        0.000
     34 H           0.2515    4.6514    3.4187 H.spc      1 <1>        0.000
     35 H           0.8560    2.1399    1.9565 H.spc      1 <1>        0.000
     36 H          -0.8472    2.7457    2.3723 H.spc      1 <1>        0.000
     37 H          -0.6098    4.5385    1.0209 H.spc      1 <1>        0.000
     38 H           1.1951    4.1163    0.7185 H.spc      1 <1>        0.000
@<TRIPOS>BOND
     1    7    8 1  
     2    1    2 1  
     3    5    6 1  
     4    1   14 1  
     5    4    5 1  
     6    2    3 1  
     7    3    4 1  
     8    6    7 1  
     9    5   16 2  
    10   13   14 1  
    11   12   13 1  
    12   11   12 1  
    13   11   15 2  
    14   10   11 1  
    15    9   10 1  
    16    8    9 1  
    17    1   17 1  
    18    1   18 1  
    19    2   19 1  
    20    2   20 1  
    21    3   21 1  
    22    3   22 1  
    23    4   23 1  
    24    4   24 1  
    25    6   25 1  
    26    6   26 1  
    27    7   27 1  
    28    7   28 1  
    29    8   29 1  
    30    8   30 1  
    31    9   31 1  
    32    9   32 1  
    33   12   33 1  
    34   12   34 1  
    35   13   35 1  
    36   13   36 1  
    37   14   37 1  
    38   14   38 1  
# Name:          frag5-578-42/41815 -- energy: -6.284316
# Creation time: Sat Jun  5 12:52:55 2010


@<TRIPOS>MOLECULE
frag5-578-42/41815 -- energy: -6.284316
   38    38     1     1     1
SMALL
USER_CHARGES


@<TRIPOS>ATOM
      1 C7         -0.7952    2.2332   -0.0717 C.3        1 <1>        0.000
      2 C8          0.1161    2.0796   -1.2672 C.3        1 <1>        0.000
      3 C9          1.5897    1.8501   -1.0116 C.3        1 <1>        0.000
      4 C10         2.5515    1.5108   -2.1179 C.3        1 <1>        0.000
      5 C11         3.9381    1.0379   -1.6962 C.2        1 <1>        0.000
      6 C12         4.9003    1.9300   -0.9504 C.3        1 <1>        0.000
      7 C13         4.6140    2.2196    0.4964 C.3        1 <1>        0.000
      8 C14         5.0384    3.5302    1.1185 C.3        1 <1>        0.000
      9 C15         4.5238    3.8414    2.5188 C.3        1 <1>        0.000
     10 O3          3.2238    3.3716    2.7783 O.3        1 <1>        0.000
     11 C16         2.2768    4.1965    3.2544 C.2        1 <1>        0.000
     12 C17         0.8532    3.7105    3.2187 C.3        1 <1>        0.000
     13 C18         0.5137    2.7209    2.1273 C.3        1 <1>        0.000
     14 C19        -0.4730    3.1563    1.0694 C.3        1 <1>        0.000
     15 O9          2.5289    5.3078    3.7137 O.2        1 <1>        0.000
     16 O12         4.3093   -0.0983   -1.9949 O.2        1 <1>        0.000
     17 H          -0.7792    1.2452    0.3885 H.spc      1 <1>        0.000
     18 H          -1.7023    2.6624   -0.4972 H.spc      1 <1>        0.000
     19 H           0.0591    3.0297   -1.7984 H.spc      1 <1>        0.000
     20 H          -0.2311    1.1840   -1.7825 H.spc      1 <1>        0.000
     21 H           1.6035    0.9614   -0.3806 H.spc      1 <1>        0.000
     22 H           1.9408    2.8192   -0.6571 H.spc      1 <1>        0.000
     23 H           2.1029    0.6798   -2.6623 H.spc      1 <1>        0.000
     24 H           2.7055    2.4341   -2.6764 H.spc      1 <1>        0.000
     25 H           4.8509    2.8952   -1.4545 H.spc      1 <1>        0.000
     26 H           5.8522    1.3991   -0.9569 H.spc      1 <1>        0.000
     27 H           3.5257    2.2359    0.5554 H.spc      1 <1>        0.000
     28 H           5.1886    1.4683    1.0381 H.spc      1 <1>        0.000
     29 H           4.6277    4.3080    0.4747 H.spc      1 <1>        0.000
     30 H           6.1232    3.4749    1.2094 H.spc      1 <1>        0.000
     31 H           5.1903    3.3427    3.2225 H.spc      1 <1>        0.000
     32 H           4.4967    4.9268    2.6156 H.spc      1 <1>        0.000
     33 H           0.6843    3.1926    4.1628 H.spc      1 <1>        0.000
     34 H           0.2356    4.5898    3.0356 H.spc      1 <1>        0.000
     35 H           1.4485    2.5378    1.5975 H.spc      1 <1>        0.000
     36 H           0.0460    1.8764    2.6335 H.spc      1 <1>        0.000
     37 H          -1.4159    3.2732    1.6037 H.spc      1 <1>        0.000
     38 H          -0.0083    4.0232    0.5996 H.spc      1 <1>        0.000
@<TRIPOS>BOND
     1    7    8 1  
     2    1    2 1  
     3    5    6 1  
     4    1   14 1  
     5    4    5 1  
     6    2    3 1  
     7    3    4 1  
     8    6    7 1  
     9    5   16 2  
    10   13   14 1  
    11   12   13 1  
    12   11   12 1  
    13   11   15 2  
    14   10   11 1  
    15    9   10 1  
    16    8    9 1  
    17    1   17 1  
    18    1   18 1  
    19    2   19 1  
    20    2   20 1  
    21    3   21 1  
    22    3   22 1  
    23    4   23 1  
    24    4   24 1  
    25    6   25 1  
    26    6   26 1  
    27    7   27 1  
    28    7   28 1  
    29    8   29 1  
    30    8   30 1  
    31    9   31 1  
    32    9   32 1  
    33   12   33 1  
    34   12   34 1  
    35   13   35 1  
    36   13   36 1  
    37   14   37 1  
    38   14   38 1  
# Name:          frag5-578-42/41815 -- energy: -6.902451
# Creation time: Sat Jun  5 12:52:55 2010


@<TRIPOS>MOLECULE
frag5-578-42/41815 -- energy: -6.902451
   38    38     1     1     1
SMALL
USER_CHARGES


@<TRIPOS>ATOM
      1 C7         -0.5651    1.8500    0.0715 C.3        1 <1>        0.000
      2 C8          0.0690    2.4782   -1.1496 C.3        1 <1>        0.000
      3 C9          1.5802    2.5807   -1.2077 C.3        1 <1>        0.000
      4 C10         2.3724    1.4248   -1.7539 C.3        1 <1>        0.000
      5 C11         3.7709    1.1593   -1.2266 C.2        1 <1>        0.000
      6 C12         4.8537    2.2130   -1.1038 C.3        1 <1>        0.000
      7 C13         4.7712    3.2285    0.0159 C.3        1 <1>        0.000
      8 C14         5.0532    2.8053    1.4476 C.3        1 <1>        0.000
      9 C15         4.6610    3.7810    2.5475 C.3        1 <1>        0.000
     10 O3          3.4030    4.4229    2.4476 O.3        1 <1>        0.000
     11 C16         2.3321    3.7055    2.8402 C.2        1 <1>        0.000
     12 C17         0.9706    4.3339    2.7425 C.3        1 <1>        0.000
     13 C18         0.0059    3.7647    1.7301 C.3        1 <1>        0.000
     14 C19        -0.0586    2.2821    1.4287 C.3        1 <1>        0.000
     15 O9          2.4330    2.5708    3.2788 O.2        1 <1>        0.000
     16 O12         4.0570   -0.0026   -0.9231 O.2        1 <1>        0.000
     17 H          -0.3397    0.7858    0.0018 H.spc      1 <1>        0.000
     18 H          -1.6126    2.1499    0.0426 H.spc      1 <1>        0.000
     19 H          -0.2871    3.5084   -1.1576 H.spc      1 <1>        0.000
     20 H          -0.2047    1.8270   -1.9798 H.spc      1 <1>        0.000
     21 H           1.8946    2.6685   -0.1677 H.spc      1 <1>        0.000
     22 H           1.7784    3.4043   -1.8936 H.spc      1 <1>        0.000
     23 H           1.7995    0.5408   -1.4741 H.spc      1 <1>        0.000
     24 H           2.5153    1.6618   -2.8082 H.spc      1 <1>        0.000
     25 H           4.7778    2.7997   -2.0193 H.spc      1 <1>        0.000
     26 H           5.7676    1.6528   -0.9062 H.spc      1 <1>        0.000
     27 H           5.5539    3.9515   -0.2137 H.spc      1 <1>        0.000
     28 H           3.7268    3.5403    0.0246 H.spc      1 <1>        0.000
     29 H           6.1356    2.6976    1.5180 H.spc      1 <1>        0.000
     30 H           4.4541    1.9105    1.6165 H.spc      1 <1>        0.000
     31 H           4.6104    3.1850    3.4587 H.spc      1 <1>        0.000
     32 H           5.3991    4.5817    2.5010 H.spc      1 <1>        0.000
     33 H           0.5038    4.1709    3.7139 H.spc      1 <1>        0.000
     34 H           1.1463    5.3636    2.4311 H.spc      1 <1>        0.000
     35 H          -0.9727    3.9820    2.1582 H.spc      1 <1>        0.000
     36 H           0.3344    4.2037    0.7880 H.spc      1 <1>        0.000
     37 H           0.9735    1.9345    1.4742 H.spc      1 <1>        0.000
     38 H          -0.7719    1.8741    2.1448 H.spc      1 <1>        0.000
@<TRIPOS>BOND
     1    7    8 1  
     2    1    2 1  
     3    5    6 1  
     4    1   14 1  
     5    4    5 1  
     6    2    3 1  
     7    3    4 1  
     8    6    7 1  
     9    5   16 2  
    10   13   14 1  
    11   12   13 1  
    12   11   12 1  
    13   11   15 2  
    14   10   11 1  
    15    9   10 1  
    16    8    9 1  
    17    1   17 1  
    18    1   18 1  
    19    2   19 1  
    20    2   20 1  
    21    3   21 1  
    22    3   22 1  
    23    4   23 1  
    24    4   24 1  
    25    6   25 1  
    26    6   26 1  
    27    7   27 1  
    28    7   28 1  
    29    8   29 1  
    30    8   30 1  
    31    9   31 1  
    32    9   32 1  
    33   12   33 1  
    34   12   34 1  
    35   13   35 1  
    36   13   36 1  
    37   14   37 1  
    38   14   38 1  
# Name:          frag5-578-42/41815 -- energy: -6.371890
# Creation time: Sat Jun  5 12:52:55 2010


@<TRIPOS>MOLECULE
frag5-578-42/41815 -- energy: -6.371890
   38    38     1     1     1
SMALL
USER_CHARGES


@<TRIPOS>ATOM
      1 C7         -0.7193    2.1154    0.1148 C.3        1 <1>        0.000
      2 C8          0.2568    2.5371   -0.9648 C.3        1 <1>        0.000
      3 C9          1.4152    1.5996   -1.1686 C.3        1 <1>        0.000
      4 C10         2.6718    2.0759   -1.8499 C.3        1 <1>        0.000
      5 C11         3.8649    1.2138   -1.4928 C.2        1 <1>        0.000
      6 C12         4.4456    1.2480   -0.0990 C.3        1 <1>        0.000
      7 C13         5.1696    2.5365    0.2280 C.3        1 <1>        0.000
      8 C14         5.4734    2.8123    1.6937 C.3        1 <1>        0.000
      9 C15         4.4778    3.7362    2.3895 C.3        1 <1>        0.000
     10 O3          3.1212    3.4077    2.2051 O.3        1 <1>        0.000
     11 C16         2.2200    4.2459    2.7358 C.2        1 <1>        0.000
     12 C17         0.8738    4.3153    2.0824 C.3        1 <1>        0.000
     13 C18        -0.1373    3.2646    2.4052 C.3        1 <1>        0.000
     14 C19        -0.2764    2.0177    1.5654 C.3        1 <1>        0.000
     15 O9          2.4700    4.9905    3.6815 O.2        1 <1>        0.000
     16 O12         4.3823    0.4817   -2.3406 O.2        1 <1>        0.000
     17 H          -0.9871    1.0930   -0.1520 H.spc      1 <1>        0.000
     18 H          -1.4713    2.9045    0.1178 H.spc      1 <1>        0.000
     19 H           0.6754    3.4951   -0.6564 H.spc      1 <1>        0.000
     20 H          -0.2991    2.5618   -1.9021 H.spc      1 <1>        0.000
     21 H           1.0242    0.8295   -1.8335 H.spc      1 <1>        0.000
     22 H           1.7366    1.3457   -0.1585 H.spc      1 <1>        0.000
     23 H           2.5194    2.0214   -2.9278 H.spc      1 <1>        0.000
     24 H           2.8747    3.0954   -1.5218 H.spc      1 <1>        0.000
     25 H           5.1729    0.4391   -0.0293 H.spc      1 <1>        0.000
     26 H           3.6161    1.1537    0.6018 H.spc      1 <1>        0.000
     27 H           6.1385    2.4647   -0.2662 H.spc      1 <1>        0.000
     28 H           4.5045    3.3386   -0.0920 H.spc      1 <1>        0.000
     29 H           6.4435    3.3081    1.7284 H.spc      1 <1>        0.000
     30 H           5.4320    1.8541    2.2117 H.spc      1 <1>        0.000
     31 H           4.6750    3.6587    3.4587 H.spc      1 <1>        0.000
     32 H           4.6198    4.7279    1.9600 H.spc      1 <1>        0.000
     33 H           0.4352    5.2480    2.4372 H.spc      1 <1>        0.000
     34 H           1.0707    4.2000    1.0166 H.spc      1 <1>        0.000
     35 H           0.1800    2.8887    3.3779 H.spc      1 <1>        0.000
     36 H          -1.0921    3.7739    2.2744 H.spc      1 <1>        0.000
     37 H           0.7346    1.6138    1.5124 H.spc      1 <1>        0.000
     38 H          -1.0702    1.4513    2.0525 H.spc      1 <1>        0.000
@<TRIPOS>BOND
     1    7    8 1  
     2    1    2 1  
     3    5    6 1  
     4    1   14 1  
     5    4    5 1  
     6    2    3 1  
     7    3    4 1  
     8    6    7 1  
     9    5   16 2  
    10   13   14 1  
    11   12   13 1  
    12   11   12 1  
    13   11   15 2  
    14   10   11 1  
    15    9   10 1  
    16    8    9 1  
    17    1   17 1  
    18    1   18 1  
    19    2   19 1  
    20    2   20 1  
    21    3   21 1  
    22    3   22 1  
    23    4   23 1  
    24    4   24 1  
    25    6   25 1  
    26    6   26 1  
    27    7   27 1  
    28    7   28 1  
    29    8   29 1  
    30    8   30 1  
    31    9   31 1  
    32    9   32 1  
    33   12   33 1  
    34   12   34 1  
    35   13   35 1  
    36   13   36 1  
    37   14   37 1  
    38   14   38 1  
# Name:          frag5-578-42/41815 -- energy: -8.889236
# Creation time: Sat Jun  5 12:52:55 2010


@<TRIPOS>MOLECULE
frag5-578-42/41815 -- energy: -8.889236
   38    38     1     1     1
SMALL
USER_CHARGES


@<TRIPOS>ATOM
      1 C7         -0.9540    2.2381    0.2282 C.3        1 <1>        0.000
      2 C8          0.0328    1.4386   -0.6093 C.3        1 <1>        0.000
      3 C9          1.4934    1.8305   -0.5713 C.3        1 <1>        0.000
      4 C10         2.5409    1.1406   -1.4013 C.3        1 <1>        0.000
      5 C11         3.9702    1.4554   -1.0137 C.2        1 <1>        0.000
      6 C12         4.5777    2.8221   -1.2105 C.3        1 <1>        0.000
      7 C13         4.4934    3.7955   -0.0658 C.3        1 <1>        0.000
      8 C14         5.1890    3.5379    1.2487 C.3        1 <1>        0.000
      9 C15         4.6028    2.5200    2.1992 C.3        1 <1>        0.000
     10 O3          3.2039    2.3827    2.2762 O.3        1 <1>        0.000
     11 C16         2.4276    3.3756    2.7321 C.2        1 <1>        0.000
     12 C17         0.9372    3.2463    2.5660 C.3        1 <1>        0.000
     13 C18         0.3908    4.1434    1.4804 C.3        1 <1>        0.000
     14 C19        -0.7405    3.6983    0.5752 C.3        1 <1>        0.000
     15 O9          2.8823    4.3976    3.2390 O.2        1 <1>        0.000
     16 O12         4.6619    0.5756   -0.4877 O.2        1 <1>        0.000
     17 H          -0.9179    1.7425    1.1983 H.spc      1 <1>        0.000
     18 H          -1.8506    2.2566   -0.3914 H.spc      1 <1>        0.000
     19 H          -0.2777    1.5945   -1.6424 H.spc      1 <1>        0.000
     20 H          -0.0021    0.4275   -0.2036 H.spc      1 <1>        0.000
     21 H           1.7894    1.5965    0.4513 H.spc      1 <1>        0.000
     22 H           1.4907    2.8469   -0.9650 H.spc      1 <1>        0.000
     23 H           2.4032    0.0691   -1.2564 H.spc      1 <1>        0.000
     24 H           2.4087    1.4855   -2.4268 H.spc      1 <1>        0.000
     25 H           4.0133    3.2782   -2.0238 H.spc      1 <1>        0.000
     26 H           5.6421    2.6485   -1.3684 H.spc      1 <1>        0.000
     27 H           4.9878    4.6882   -0.4490 H.spc      1 <1>        0.000
     28 H           3.4356    3.7939    0.1972 H.spc      1 <1>        0.000
     29 H           5.1373    4.4856    1.7847 H.spc      1 <1>        0.000
     30 H           6.1659    3.1384    0.9764 H.spc      1 <1>        0.000
     31 H           4.9593    1.5571    1.8335 H.spc      1 <1>        0.000
     32 H           4.9066    2.8550    3.1910 H.spc      1 <1>        0.000
     33 H           0.7199    2.2149    2.2883 H.spc      1 <1>        0.000
     34 H           0.4695    3.5367    3.5067 H.spc      1 <1>        0.000
     35 H          -0.0321    4.9853    2.0286 H.spc      1 <1>        0.000
     36 H           1.2329    4.2689    0.7999 H.spc      1 <1>        0.000
     37 H          -1.6385    3.9662    1.1319 H.spc      1 <1>        0.000
     38 H          -0.5026    4.1602   -0.3830 H.spc      1 <1>        0.000
@<TRIPOS>BOND
     1    7    8 1  
     2    1    2 1  
     3    5    6 1  
     4    1   14 1  
     5    4    5 1  
     6    2    3 1  
     7    3    4 1  
     8    6    7 1  
     9    5   16 2  
    10   13   14 1  
    11   12   13 1  
    12   11   12 1  
    13   11   15 2  
    14   10   11 1  
    15    9   10 1  
    16    8    9 1  
    17    1   17 1  
    18    1   18 1  
    19    2   19 1  
    20    2   20 1  
    21    3   21 1  
    22    3   22 1  
    23    4   23 1  
    24    4   24 1  
    25    6   25 1  
    26    6   26 1  
    27    7   27 1  
    28    7   28 1  
    29    8   29 1  
    30    8   30 1  
    31    9   31 1  
    32    9   32 1  
    33   12   33 1  
    34   12   34 1  
    35   13   35 1  
    36   13   36 1  
    37   14   37 1  
    38   14   38 1  
# Name:          frag5-578-42/41815 -- energy: -7.535893
# Creation time: Sat Jun  5 12:52:55 2010


@<TRIPOS>MOLECULE
frag5-578-42/41815 -- energy: -7.535893
   38    38     1     1     1
SMALL
USER_CHARGES


@<TRIPOS>ATOM
      1 C7          0.1569    3.4494   -0.0599 C.3        1 <1>        0.000
      2 C8          1.2213    2.7387   -0.8329 C.3        1 <1>        0.000
      3 C9          1.3396    1.2769   -1.1489 C.3        1 <1>        0.000
      4 C10         2.4195    0.8392   -2.1280 C.3        1 <1>        0.000
      5 C11         3.8475    0.8726   -1.6354 C.2        1 <1>        0.000
      6 C12         4.5114    2.1539   -1.2049 C.3        1 <1>        0.000
      7 C13         4.6680    2.2869    0.2885 C.3        1 <1>        0.000
      8 C14         4.9433    3.6554    0.8671 C.3        1 <1>        0.000
      9 C15         4.1892    4.0569    2.1161 C.3        1 <1>        0.000
     10 O3          2.8072    3.7865    2.1249 O.3        1 <1>        0.000
     11 C16         2.1250    4.0225    3.2507 C.2        1 <1>        0.000
     12 C17         0.6864    3.6316    3.3410 C.3        1 <1>        0.000
     13 C18         0.1982    2.5415    2.4190 C.3        1 <1>        0.000
     14 C19        -0.5325    2.8980    1.1456 C.3        1 <1>        0.000
     15 O9          2.6359    4.5692    4.2287 O.2        1 <1>        0.000
     16 O12         4.4924   -0.1811   -1.5860 O.2        1 <1>        0.000
     17 H          -0.6547    3.5148   -0.7845 H.spc      1 <1>        0.000
     18 H           0.6955    4.3044    0.3488 H.spc      1 <1>        0.000
     19 H           2.0765    2.8727   -0.1705 H.spc      1 <1>        0.000
     20 H           1.0561    3.1487   -1.8293 H.spc      1 <1>        0.000
     21 H           0.3954    1.0073   -1.6221 H.spc      1 <1>        0.000
     22 H           1.5963    0.7979   -0.2040 H.spc      1 <1>        0.000
     23 H           2.2081   -0.2055   -2.3563 H.spc      1 <1>        0.000
     24 H           2.3741    1.5463   -2.9563 H.spc      1 <1>        0.000
     25 H           3.8787    2.9759   -1.5396 H.spc      1 <1>        0.000
     26 H           5.5114    2.1631   -1.6384 H.spc      1 <1>        0.000
     27 H           3.7041    1.9915    0.7030 H.spc      1 <1>        0.000
     28 H           5.5465    1.6913    0.5365 H.spc      1 <1>        0.000
     29 H           4.6332    4.3641    0.0992 H.spc      1 <1>        0.000
     30 H           5.9952    3.6447    1.1527 H.spc      1 <1>        0.000
     31 H           4.6179    3.4727    2.9303 H.spc      1 <1>        0.000
     32 H           4.2870    5.1397    2.1947 H.spc      1 <1>        0.000
     33 H           0.5521    3.2426    4.3503 H.spc      1 <1>        0.000
     34 H           0.1235    4.5228    3.0636 H.spc      1 <1>        0.000
     35 H           1.1072    2.0441    2.0808 H.spc      1 <1>        0.000
     36 H          -0.5363    1.9943    3.0099 H.spc      1 <1>        0.000
     37 H          -0.9098    1.9363    0.7980 H.spc      1 <1>        0.000
     38 H          -1.1853    3.7147    1.4539 H.spc      1 <1>        0.000
@<TRIPOS>BOND
     1    7    8 1  
     2    1    2 1  
     3    5    6 1  
     4    1   14 1  
     5    4    5 1  
     6    2    3 1  
     7    3    4 1  
     8    6    7 1  
     9    5   16 2  
    10   13   14 1  
    11   12   13 1  
    12   11   12 1  
    13   11   15 2  
    14   10   11 1  
    15    9   10 1  
    16    8    9 1  
    17    1   17 1  
    18    1   18 1  
    19    2   19 1  
    20    2   20 1  
    21    3   21 1  
    22    3   22 1  
    23    4   23 1  
    24    4   24 1  
    25    6   25 1  
    26    6   26 1  
    27    7   27 1  
    28    7   28 1  
    29    8   29 1  
    30    8   30 1  
    31    9   31 1  
    32    9   32 1  
    33   12   33 1  
    34   12   34 1  
    35   13   35 1  
    36   13   36 1  
    37   14   37 1  
    38   14   38 1  
# Name:          frag5-578-42/41815 -- energy: -7.386409
# Creation time: Sat Jun  5 12:52:55 2010


@<TRIPOS>MOLECULE
frag5-578-42/41815 -- energy: -7.386409
   38    38     1     1     1
SMALL
USER_CHARGES


@<TRIPOS>ATOM
      1 C7         -0.4678    2.4940   -0.5267 C.3        1 <1>        0.000
      2 C8         -0.1136    1.0225   -0.6498 C.3        1 <1>        0.000
      3 C9          1.3228    0.5274   -0.6344 C.3        1 <1>        0.000
      4 C10         2.2819    1.0365   -1.6916 C.3        1 <1>        0.000
      5 C11         3.4254    1.9358   -1.2610 C.2        1 <1>        0.000
      6 C12         4.2473    1.6640   -0.0162 C.3        1 <1>        0.000
      7 C13         4.9976    2.8543    0.5401 C.3        1 <1>        0.000
      8 C14         5.5016    2.8518    1.9698 C.3        1 <1>        0.000
      9 C15         4.5090    2.7831    3.1175 C.3        1 <1>        0.000
     10 O3          3.1469    2.8723    2.7921 O.3        1 <1>        0.000
     11 C16         2.7021    4.1019    2.4624 C.2        1 <1>        0.000
     12 C17         1.4771    4.1866    1.6039 C.3        1 <1>        0.000
     13 C18         0.3915    3.1779    1.8579 C.3        1 <1>        0.000
     14 C19        -0.7262    3.0759    0.8484 C.3        1 <1>        0.000
     15 O9          3.2895    5.1277    2.7655 O.2        1 <1>        0.000
     16 O12         3.7243    2.8866   -1.9921 O.2        1 <1>        0.000
     17 H          -1.4134    2.6003   -1.0584 H.spc      1 <1>        0.000
     18 H           0.4094    3.0254   -0.8958 H.spc      1 <1>        0.000
     19 H          -0.4607    0.7613   -1.6495 H.spc      1 <1>        0.000
     20 H          -0.5427    0.5826    0.2505 H.spc      1 <1>        0.000
     21 H           1.2534   -0.5462   -0.8095 H.spc      1 <1>        0.000
     22 H           1.7328    0.8797    0.3121 H.spc      1 <1>        0.000
     23 H           2.7589    0.1439   -2.0964 H.spc      1 <1>        0.000
     24 H           1.6731    1.6491   -2.3566 H.spc      1 <1>        0.000
     25 H           4.9989    0.9255   -0.2951 H.spc      1 <1>        0.000
     26 H           3.5460    1.3496    0.7568 H.spc      1 <1>        0.000
     27 H           5.9045    2.9035   -0.0625 H.spc      1 <1>        0.000
     28 H           4.2688    3.6644    0.5155 H.spc      1 <1>        0.000
     29 H           5.9940    3.8168    2.0895 H.spc      1 <1>        0.000
     30 H           6.0839    1.9343    2.0545 H.spc      1 <1>        0.000
     31 H           4.6426    1.7988    3.5664 H.spc      1 <1>        0.000
     32 H           4.7211    3.6488    3.7450 H.spc      1 <1>        0.000
     33 H           1.0334    5.1595    1.8152 H.spc      1 <1>        0.000
     34 H           1.8166    4.0066    0.5839 H.spc      1 <1>        0.000
     35 H           0.8872    2.2073    1.8415 H.spc      1 <1>        0.000
     36 H          -0.0842    3.4909    2.7873 H.spc      1 <1>        0.000
     37 H          -1.4371    2.3860    1.3031 H.spc      1 <1>        0.000
     38 H          -1.0082    4.1107    0.6539 H.spc      1 <1>        0.000
@<TRIPOS>BOND
     1    7    8 1  
     2    1    2 1  
     3    5    6 1  
     4    1   14 1  
     5    4    5 1  
     6    2    3 1  
     7    3    4 1  
     8    6    7 1  
     9    5   16 2  
    10   13   14 1  
    11   12   13 1  
    12   11   12 1  
    13   11   15 2  
    14   10   11 1  
    15    9   10 1  
    16    8    9 1  
    17    1   17 1  
    18    1   18 1  
    19    2   19 1  
    20    2   20 1  
    21    3   21 1  
    22    3   22 1  
    23    4   23 1  
    24    4   24 1  
    25    6   25 1  
    26    6   26 1  
    27    7   27 1  
    28    7   28 1  
    29    8   29 1  
    30    8   30 1  
    31    9   31 1  
    32    9   32 1  
    33   12   33 1  
    34   12   34 1  
    35   13   35 1  
    36   13   36 1  
    37   14   37 1  
    38   14   38 1  
# Name:          frag5-578-42/41815 -- energy: -6.846443
# Creation time: Sat Jun  5 12:52:56 2010


@<TRIPOS>MOLECULE
frag5-578-42/41815 -- energy: -6.846443
   38    38     1     1     1
SMALL
USER_CHARGES


@<TRIPOS>ATOM
      1 C7         -0.2535    1.8619    0.5607 C.3        1 <1>        0.000
      2 C8          0.4663    1.4775   -0.7281 C.3        1 <1>        0.000
      3 C9          1.6308    2.3686   -1.0936 C.3        1 <1>        0.000
      4 C10         2.7096    1.8463   -2.0207 C.3        1 <1>        0.000
      5 C11         3.7698    0.9850   -1.3817 C.2        1 <1>        0.000
      6 C12         4.5369    1.4528   -0.1521 C.3        1 <1>        0.000
      7 C13         4.8062    2.9504   -0.0847 C.3        1 <1>        0.000
      8 C14         5.3440    3.6095    1.1710 C.3        1 <1>        0.000
      9 C15         4.4719    3.7146    2.4023 C.3        1 <1>        0.000
     10 O3          3.1299    4.1048    2.2003 O.3        1 <1>        0.000
     11 C16         2.2039    3.6789    3.0670 C.2        1 <1>        0.000
     12 C17         0.7558    4.0469    2.8550 C.3        1 <1>        0.000
     13 C18         0.2950    4.3090    1.4285 C.3        1 <1>        0.000
     14 C19        -0.6579    3.3166    0.7691 C.3        1 <1>        0.000
     15 O9          2.4769    3.0008    4.0578 O.2        1 <1>        0.000
     16 O12         4.0238   -0.1256   -1.8651 O.2        1 <1>        0.000
     17 H           0.4600    1.6499    1.3570 H.spc      1 <1>        0.000
     18 H          -1.1921    1.3082    0.5363 H.spc      1 <1>        0.000
     19 H          -0.2621    1.5619   -1.5346 H.spc      1 <1>        0.000
     20 H           0.8691    0.4757   -0.5789 H.spc      1 <1>        0.000
     21 H           2.1437    2.5538   -0.1498 H.spc      1 <1>        0.000
     22 H           1.1818    3.2019   -1.6341 H.spc      1 <1>        0.000
     23 H           2.2050    1.2172   -2.7540 H.spc      1 <1>        0.000
     24 H           3.2239    2.7222   -2.4161 H.spc      1 <1>        0.000
     25 H           5.5094    0.9617   -0.1851 H.spc      1 <1>        0.000
     26 H           3.9207    1.2070    0.7127 H.spc      1 <1>        0.000
     27 H           5.5997    3.1030   -0.8163 H.spc      1 <1>        0.000
     28 H           3.8190    3.3958   -0.2073 H.spc      1 <1>        0.000
     29 H           5.5287    4.6432    0.8787 H.spc      1 <1>        0.000
     30 H           6.1743    2.9737    1.4784 H.spc      1 <1>        0.000
     31 H           4.4313    2.7115    2.8269 H.spc      1 <1>        0.000
     32 H           4.9199    4.4922    3.0209 H.spc      1 <1>        0.000
     33 H           0.1826    3.1836    3.1930 H.spc      1 <1>        0.000
     34 H           0.6131    4.9883    3.3856 H.spc      1 <1>        0.000
     35 H          -0.2625    5.2443    1.4794 H.spc      1 <1>        0.000
     36 H           1.2032    4.2705    0.8270 H.spc      1 <1>        0.000
     37 H          -1.5007    3.2610    1.4581 H.spc      1 <1>        0.000
     38 H          -0.7851    3.7035   -0.2420 H.spc      1 <1>        0.000
@<TRIPOS>BOND
     1    7    8 1  
     2    1    2 1  
     3    5    6 1  
     4    1   14 1  
     5    4    5 1  
     6    2    3 1  
     7    3    4 1  
     8    6    7 1  
     9    5   16 2  
    10   13   14 1  
    11   12   13 1  
    12   11   12 1  
    13   11   15 2  
    14   10   11 1  
    15    9   10 1  
    16    8    9 1  
    17    1   17 1  
    18    1   18 1  
    19    2   19 1  
    20    2   20 1  
    21    3   21 1  
    22    3   22 1  
    23    4   23 1  
    24    4   24 1  
    25    6   25 1  
    26    6   26 1  
    27    7   27 1  
    28    7   28 1  
    29    8   29 1  
    30    8   30 1  
    31    9   31 1  
    32    9   32 1  
    33   12   33 1  
    34   12   34 1  
    35   13   35 1  
    36   13   36 1  
    37   14   37 1  
    38   14   38 1  
# Name:          frag5-578-42/41815 -- energy: -4.989561
# Creation time: Sat Jun  5 12:52:56 2010


@<TRIPOS>MOLECULE
frag5-578-42/41815 -- energy: -4.989561
   38    38     1     1     1
SMALL
USER_CHARGES


@<TRIPOS>ATOM
      1 C7         -0.5351    2.1078    0.2770 C.3        1 <1>        0.000
      2 C8          0.1625    1.5756   -0.9515 C.3        1 <1>        0.000
      3 C9          1.6072    1.1414   -0.8095 C.3        1 <1>        0.000
      4 C10         2.6248    1.7376   -1.7440 C.3        1 <1>        0.000
      5 C11         4.0377    1.2374   -1.5846 C.2        1 <1>        0.000
      6 C12         4.9599    1.7232   -0.4874 C.3        1 <1>        0.000
      7 C13         4.9134    3.1664   -0.0623 C.3        1 <1>        0.000
      8 C14         4.9722    3.4725    1.4128 C.3        1 <1>        0.000
      9 C15         4.0521    2.7168    2.3489 C.3        1 <1>        0.000
     10 O3          2.6840    3.0300    2.2483 O.3        1 <1>        0.000
     11 C16         2.2544    4.0249    3.0477 C.2        1 <1>        0.000
     12 C17         0.8778    4.5946    2.8711 C.3        1 <1>        0.000
     13 C18        -0.1751    3.7063    2.2687 C.3        1 <1>        0.000
     14 C19        -0.1422    3.4739    0.7800 C.3        1 <1>        0.000
     15 O9          2.9668    4.5230    3.9205 O.2        1 <1>        0.000
     16 O12         4.4489    0.3668   -2.3502 O.2        1 <1>        0.000
     17 H          -0.2726    1.4183    1.0794 H.spc      1 <1>        0.000
     18 H          -1.5853    2.1940   -0.0020 H.spc      1 <1>        0.000
     19 H           0.1753    2.4031   -1.6608 H.spc      1 <1>        0.000
     20 H          -0.3859    0.6761   -1.2313 H.spc      1 <1>        0.000
     21 H           1.6087    0.0733   -1.0268 H.spc      1 <1>        0.000
     22 H           1.9078    1.4653    0.1869 H.spc      1 <1>        0.000
     23 H           2.3139    1.4631   -2.7520 H.spc      1 <1>        0.000
     24 H           2.6511    2.8057   -1.5282 H.spc      1 <1>        0.000
     25 H           5.9636    1.5863   -0.8898 H.spc      1 <1>        0.000
     26 H           4.6541    1.1649    0.3974 H.spc      1 <1>        0.000
     27 H           5.8076    3.6219   -0.4878 H.spc      1 <1>        0.000
     28 H           3.9431    3.5346   -0.3954 H.spc      1 <1>        0.000
     29 H           4.6688    4.5159    1.4982 H.spc      1 <1>        0.000
     30 H           5.9803    3.1942    1.7202 H.spc      1 <1>        0.000
     31 H           4.1464    1.6626    2.0884 H.spc      1 <1>        0.000
     32 H           4.3554    2.9845    3.3610 H.spc      1 <1>        0.000
     33 H           0.5257    4.8229    3.8771 H.spc      1 <1>        0.000
     34 H           0.9931    5.4242    2.1735 H.spc      1 <1>        0.000
     35 H          -0.0154    2.7256    2.7169 H.spc      1 <1>        0.000
     36 H          -1.1219    4.2111    2.4605 H.spc      1 <1>        0.000
     37 H          -0.8759    4.1621    0.3604 H.spc      1 <1>        0.000
     38 H           0.8993    3.6051    0.4866 H.spc      1 <1>        0.000
@<TRIPOS>BOND
     1    7    8 1  
     2    1    2 1  
     3    5    6 1  
     4    1   14 1  
     5    4    5 1  
     6    2    3 1  
     7    3    4 1  
     8    6    7 1  
     9    5   16 2  
    10   13   14 1  
    11   12   13 1  
    12   11   12 1  
    13   11   15 2  
    14   10   11 1  
    15    9   10 1  
    16    8    9 1  
    17    1   17 1  
    18    1   18 1  
    19    2   19 1  
    20    2   20 1  
    21    3   21 1  
    22    3   22 1  
    23    4   23 1  
    24    4   24 1  
    25    6   25 1  
    26    6   26 1  
    27    7   27 1  
    28    7   28 1  
    29    8   29 1  
    30    8   30 1  
    31    9   31 1  
    32    9   32 1  
    33   12   33 1  
    34   12   34 1  
    35   13   35 1  
    36   13   36 1  
    37   14   37 1  
    38   14   38 1  
# Name:          frag5-578-42/41815 -- energy: -6.221729
# Creation time: Sat Jun  5 12:52:56 2010


@<TRIPOS>MOLECULE
frag5-578-42/41815 -- energy: -6.221729
   38    38     1     1     1
SMALL
USER_CHARGES


@<TRIPOS>ATOM
      1 C7         -0.8110    2.0035    0.2250 C.3        1 <1>        0.000
      2 C8          0.1959    1.8069   -0.9052 C.3        1 <1>        0.000
      3 C9          1.6523    1.4265   -0.6705 C.3        1 <1>        0.000
      4 C10         2.5531    1.4935   -1.8906 C.3        1 <1>        0.000
      5 C11         4.0590    1.5363   -1.7141 C.2        1 <1>        0.000
      6 C12         4.7164    2.5314   -0.7888 C.3        1 <1>        0.000
      7 C13         5.4031    1.8855    0.3795 C.3        1 <1>        0.000
      8 C14         4.8032    2.1250    1.7451 C.3        1 <1>        0.000
      9 C15         4.2219    3.4736    2.1063 C.3        1 <1>        0.000
     10 O3          2.8175    3.4653    2.1239 O.3        1 <1>        0.000
     11 C16         2.1949    4.3779    2.8876 C.2        1 <1>        0.000
     12 C17         0.7385    4.1443    3.1764 C.3        1 <1>        0.000
     13 C18         0.1211    2.9736    2.4448 C.3        1 <1>        0.000
     14 C19        -0.4940    3.2274    1.0779 C.3        1 <1>        0.000
     15 O9          2.7598    5.3457    3.3581 O.2        1 <1>        0.000
     16 O12         4.7779    0.7817   -2.3699 O.2        1 <1>        0.000
     17 H          -0.7725    1.1244    0.8683 H.spc      1 <1>        0.000
     18 H          -1.7951    2.1482   -0.2208 H.spc      1 <1>        0.000
     19 H           0.2693    2.8015   -1.3450 H.spc      1 <1>        0.000
     20 H          -0.2005    0.9440   -1.4404 H.spc      1 <1>        0.000
     21 H           1.6516    0.3868   -0.3433 H.spc      1 <1>        0.000
     22 H           2.0483    2.1459    0.0462 H.spc      1 <1>        0.000
     23 H           2.3656    0.5601   -2.4215 H.spc      1 <1>        0.000
     24 H           2.3052    2.4442   -2.3626 H.spc      1 <1>        0.000
     25 H           3.9363    3.1831   -0.3953 H.spc      1 <1>        0.000
     26 H           5.4727    3.0673   -1.3624 H.spc      1 <1>        0.000
     27 H           5.3346    0.8112    0.2084 H.spc      1 <1>        0.000
     28 H           6.4030    2.3180    0.4135 H.spc      1 <1>        0.000
     29 H           5.6421    2.0035    2.4304 H.spc      1 <1>        0.000
     30 H           3.9504    1.4473    1.7848 H.spc      1 <1>        0.000
     31 H           4.5697    3.7334    3.1061 H.spc      1 <1>        0.000
     32 H           4.5450    4.1923    1.3532 H.spc      1 <1>        0.000
     33 H           0.6601    3.9263    4.2415 H.spc      1 <1>        0.000
     34 H           0.2057    5.0367    2.8481 H.spc      1 <1>        0.000
     35 H           0.9422    2.2792    2.2671 H.spc      1 <1>        0.000
     36 H          -0.7040    2.6423    3.0753 H.spc      1 <1>        0.000
     37 H          -1.4504    3.7147    1.2672 H.spc      1 <1>        0.000
     38 H           0.2480    3.7968    0.5181 H.spc      1 <1>        0.000
@<TRIPOS>BOND
     1    7    8 1  
     2    1    2 1  
     3    5    6 1  
     4    1   14 1  
     5    4    5 1  
     6    2    3 1  
     7    3    4 1  
     8    6    7 1  
     9    5   16 2  
    10   13   14 1  
    11   12   13 1  
    12   11   12 1  
    13   11   15 2  
    14   10   11 1  
    15    9   10 1  
    16    8    9 1  
    17    1   17 1  
    18    1   18 1  
    19    2   19 1  
    20    2   20 1  
    21    3   21 1  
    22    3   22 1  
    23    4   23 1  
    24    4   24 1  
    25    6   25 1  
    26    6   26 1  
    27    7   27 1  
    28    7   28 1  
    29    8   29 1  
    30    8   30 1  
    31    9   31 1  
    32    9   32 1  
    33   12   33 1  
    34   12   34 1  
    35   13   35 1  
    36   13   36 1  
    37   14   37 1  
    38   14   38 1  
# Name:          frag5-578-42/41815 -- energy: -6.987861
# Creation time: Sat Jun  5 12:52:56 2010


@<TRIPOS>MOLECULE
frag5-578-42/41815 -- energy: -6.987861
   38    38     1     1     1
SMALL
USER_CHARGES


@<TRIPOS>ATOM
      1 C7         -0.1238    1.7990    0.0965 C.3        1 <1>        0.000
      2 C8          0.5142    1.1563   -1.1186 C.3        1 <1>        0.000
      3 C9          1.2496    1.9514   -2.1827 C.3        1 <1>        0.000
      4 C10         2.6938    2.3488   -1.9621 C.3        1 <1>        0.000
      5 C11         3.6346    1.2110   -1.6110 C.2        1 <1>        0.000
      6 C12         4.7448    1.3587   -0.5821 C.3        1 <1>        0.000
      7 C13         4.3964    1.9666    0.7554 C.3        1 <1>        0.000
      8 C14         4.8950    3.3493    1.1241 C.3        1 <1>        0.000
      9 C15         4.4144    3.8753    2.4656 C.3        1 <1>        0.000
     10 O3          3.0928    3.4667    2.7681 O.3        1 <1>        0.000
     11 C16         2.2984    4.3461    3.4068 C.2        1 <1>        0.000
     12 C17         0.8466    4.3645    2.9675 C.3        1 <1>        0.000
     13 C18         0.3118    3.1409    2.2556 C.3        1 <1>        0.000
     14 C19         0.5047    3.0002    0.7618 C.3        1 <1>        0.000
     15 O9          2.7211    5.1292    4.2439 O.2        1 <1>        0.000
     16 O12         3.5150    0.1343   -2.2031 O.2        1 <1>        0.000
     17 H          -0.0808    1.0218    0.8596 H.spc      1 <1>        0.000
     18 H          -1.0793    2.1714   -0.2728 H.spc      1 <1>        0.000
     19 H          -0.3386    0.7462   -1.6596 H.spc      1 <1>        0.000
     20 H           1.2980    0.5333   -0.6877 H.spc      1 <1>        0.000
     21 H           0.7108    2.8972   -2.2392 H.spc      1 <1>        0.000
     22 H           1.2766    1.2903   -3.0489 H.spc      1 <1>        0.000
     23 H           3.0490    2.7676   -2.9036 H.spc      1 <1>        0.000
     24 H           2.7025    3.0333   -1.1139 H.spc      1 <1>        0.000
     25 H           5.4657    2.0420   -1.0310 H.spc      1 <1>        0.000
     26 H           5.0711    0.3424   -0.3613 H.spc      1 <1>        0.000
     27 H           3.3117    2.0703    0.7291 H.spc      1 <1>        0.000
     28 H           4.8710    1.3072    1.4821 H.spc      1 <1>        0.000
     29 H           4.5122    4.0320    0.3655 H.spc      1 <1>        0.000
     30 H           5.9813    3.2837    1.1852 H.spc      1 <1>        0.000
     31 H           5.0735    3.4782    3.2376 H.spc      1 <1>        0.000
     32 H           4.4277    4.9644    2.4234 H.spc      1 <1>        0.000
     33 H           0.2649    4.4453    3.8858 H.spc      1 <1>        0.000
     34 H           0.7703    5.1783    2.2463 H.spc      1 <1>        0.000
     35 H           0.8680    2.3075    2.6848 H.spc      1 <1>        0.000
     36 H          -0.7686    3.1943    2.3900 H.spc      1 <1>        0.000
     37 H           0.0231    3.8712    0.3173 H.spc      1 <1>        0.000
     38 H           1.5790    2.8949    0.6102 H.spc      1 <1>        0.000
@<TRIPOS>BOND
     1    7    8 1  
     2    1    2 1  
     3    5    6 1  
     4    1   14 1  
     5    4    5 1  
     6    2    3 1  
     7    3    4 1  
     8    6    7 1  
     9    5   16 2  
    10   13   14 1  
    11   12   13 1  
    12   11   12 1  
    13   11   15 2  
    14   10   11 1  
    15    9   10 1  
    16    8    9 1  
    17    1   17 1  
    18    1   18 1  
    19    2   19 1  
    20    2   20 1  
    21    3   21 1  
    22    3   22 1  
    23    4   23 1  
    24    4   24 1  
    25    6   25 1  
    26    6   26 1  
    27    7   27 1  
    28    7   28 1  
    29    8   29 1  
    30    8   30 1  
    31    9   31 1  
    32    9   32 1  
    33   12   33 1  
    34   12   34 1  
    35   13   35 1  
    36   13   36 1  
    37   14   37 1  
    38   14   38 1  
# Name:          frag5-578-42/41815 -- energy: -5.973208
# Creation time: Sat Jun  5 12:52:56 2010


@<TRIPOS>MOLECULE
frag5-578-42/41815 -- energy: -5.973208
   38    38     1     1     1
SMALL
USER_CHARGES


@<TRIPOS>ATOM
      1 C7         -0.5663    2.4122    0.0287 C.3        1 <1>        0.000
      2 C8          0.5305    1.4588   -0.3891 C.3        1 <1>        0.000
      3 C9          1.5842    1.9766   -1.3425 C.3        1 <1>        0.000
      4 C10         2.5382    0.9795   -1.9692 C.3        1 <1>        0.000
      5 C11         4.0698    1.0937   -1.9067 C.2        1 <1>        0.000
      6 C12         4.9021    1.4157   -0.6630 C.3        1 <1>        0.000
      7 C13         4.3561    2.4263    0.2933 C.3        1 <1>        0.000
      8 C14         5.1313    2.8245    1.5167 C.3        1 <1>        0.000
      9 C15         4.3592    3.6256    2.5561 C.3        1 <1>        0.000
     10 O3          3.0100    3.2846    2.8184 O.3        1 <1>        0.000
     11 C16         2.1584    4.2899    3.1097 C.2        1 <1>        0.000
     12 C17         0.7299    3.9603    3.4254 C.3        1 <1>        0.000
     13 C18        -0.0416    3.0977    2.4653 C.3        1 <1>        0.000
     14 C19        -0.2457    3.5060    1.0238 C.3        1 <1>        0.000
     15 O9          2.5059    5.4616    3.1562 O.2        1 <1>        0.000
     16 O12         4.6874    0.7853   -2.9374 O.2        1 <1>        0.000
     17 H          -1.3077    1.7873    0.5267 H.spc      1 <1>        0.000
     18 H          -0.8465    2.9364   -0.8850 H.spc      1 <1>        0.000
     19 H           0.0283    0.6500   -0.9198 H.spc      1 <1>        0.000
     20 H           1.0640    1.2072    0.5275 H.spc      1 <1>        0.000
     21 H           2.2120    2.6373   -0.7446 H.spc      1 <1>        0.000
     22 H           1.0297    2.4062   -2.1768 H.spc      1 <1>        0.000
     23 H           2.3428    0.0711   -1.3993 H.spc      1 <1>        0.000
     24 H           2.3336    1.0898   -3.0341 H.spc      1 <1>        0.000
     25 H           5.8339    1.8402   -1.0366 H.spc      1 <1>        0.000
     26 H           4.9611    0.4835   -0.1012 H.spc      1 <1>        0.000
     27 H           4.2961    3.3428   -0.2937 H.spc      1 <1>        0.000
     28 H           3.4553    1.9578    0.6899 H.spc      1 <1>        0.000
     29 H           5.9425    3.4661    1.1727 H.spc      1 <1>        0.000
     30 H           5.4354    1.8983    2.0044 H.spc      1 <1>        0.000
     31 H           4.8827    3.4472    3.4954 H.spc      1 <1>        0.000
     32 H           4.3214    4.6400    2.1591 H.spc      1 <1>        0.000
     33 H           0.7696    3.3873    4.3518 H.spc      1 <1>        0.000
     34 H           0.2112    4.9190    3.4244 H.spc      1 <1>        0.000
     35 H           0.5551    2.1882    2.3959 H.spc      1 <1>        0.000
     36 H          -1.0504    3.0876    2.8779 H.spc      1 <1>        0.000
     37 H          -1.1132    4.1659    1.0251 H.spc      1 <1>        0.000
     38 H           0.7056    3.9283    0.7002 H.spc      1 <1>        0.000
@<TRIPOS>BOND
     1    7    8 1  
     2    1    2 1  
     3    5    6 1  
     4    1   14 1  
     5    4    5 1  
     6    2    3 1  
     7    3    4 1  
     8    6    7 1  
     9    5   16 2  
    10   13   14 1  
    11   12   13 1  
    12   11   12 1  
    13   11   15 2  
    14   10   11 1  
    15    9   10 1  
    16    8    9 1  
    17    1   17 1  
    18    1   18 1  
    19    2   19 1  
    20    2   20 1  
    21    3   21 1  
    22    3   22 1  
    23    4   23 1  
    24    4   24 1  
    25    6   25 1  
    26    6   26 1  
    27    7   27 1  
    28    7   28 1  
    29    8   29 1  
    30    8   30 1  
    31    9   31 1  
    32    9   32 1  
    33   12   33 1  
    34   12   34 1  
    35   13   35 1  
    36   13   36 1  
    37   14   37 1  
    38   14   38 1  
# Name:          frag5-578-42/41815 -- energy: -7.562927
# Creation time: Sat Jun  5 12:52:56 2010


@<TRIPOS>MOLECULE
frag5-578-42/41815 -- energy: -7.562927
   38    38     1     1     1
SMALL
USER_CHARGES


@<TRIPOS>ATOM
      1 C7         -0.0026    2.1653    0.4154 C.3        1 <1>        0.000
      2 C8          1.1299    1.2013    0.1543 C.3        1 <1>        0.000
      3 C9          1.4336    0.8530   -1.2870 C.3        1 <1>        0.000
      4 C10         2.3763    1.7060   -2.0970 C.3        1 <1>        0.000
      5 C11         3.8755    1.6094   -1.8659 C.2        1 <1>        0.000
      6 C12         4.4964    1.4802   -0.4922 C.3        1 <1>        0.000
      7 C13         4.6032    2.7594    0.2978 C.3        1 <1>        0.000
      8 C14         4.9064    2.7087    1.7854 C.3        1 <1>        0.000
      9 C15         3.7822    2.4245    2.7665 C.3        1 <1>        0.000
     10 O3          2.5251    2.9684    2.4516 O.3        1 <1>        0.000
     11 C16         2.2977    4.2722    2.6924 C.2        1 <1>        0.000
     12 C17         1.1378    4.8933    1.9673 C.3        1 <1>        0.000
     13 C18        -0.1918    4.1847    2.0285 C.3        1 <1>        0.000
     14 C19        -0.2963    2.6908    1.8054 C.3        1 <1>        0.000
     15 O9          3.0110    4.9751    3.4010 O.2        1 <1>        0.000
     16 O12         4.6250    1.7059   -2.8377 O.2        1 <1>        0.000
     17 H          -0.8941    1.5916    0.1622 H.spc      1 <1>        0.000
     18 H           0.2827    3.0568   -0.1431 H.spc      1 <1>        0.000
     19 H           0.8323    0.2647    0.6258 H.spc      1 <1>        0.000
     20 H           2.0263    1.6928    0.5323 H.spc      1 <1>        0.000
     21 H           0.4750    0.9545   -1.7957 H.spc      1 <1>        0.000
     22 H           1.9293   -0.1161   -1.2305 H.spc      1 <1>        0.000
     23 H           2.2361    1.3683   -3.1238 H.spc      1 <1>        0.000
     24 H           2.1231    2.7298   -1.8216 H.spc      1 <1>        0.000
     25 H           5.5156    1.1254   -0.6455 H.spc      1 <1>        0.000
     26 H           3.8473    0.8169    0.0795 H.spc      1 <1>        0.000
     27 H           5.4572    3.2785   -0.1373 H.spc      1 <1>        0.000
     28 H           3.6089    3.2018    0.2368 H.spc      1 <1>        0.000
     29 H           5.2439    3.7149    2.0341 H.spc      1 <1>        0.000
     30 H           5.5932    1.8701    1.9001 H.spc      1 <1>        0.000
     31 H           3.6511    1.3424    2.7712 H.spc      1 <1>        0.000
     32 H           4.0815    2.8808    3.7101 H.spc      1 <1>        0.000
     33 H           0.9759    5.8571    2.4500 H.spc      1 <1>        0.000
     34 H           1.4193    4.8924    0.9143 H.spc      1 <1>        0.000
     35 H          -0.5133    4.3189    3.0613 H.spc      1 <1>        0.000
     36 H          -0.7561    4.6138    1.2005 H.spc      1 <1>        0.000
     37 H           0.4599    2.2454    2.4518 H.spc      1 <1>        0.000
     38 H          -1.3391    2.4389    1.9986 H.spc      1 <1>        0.000
@<TRIPOS>BOND
     1    7    8 1  
     2    1    2 1  
     3    5    6 1  
     4    1   14 1  
     5    4    5 1  
     6    2    3 1  
     7    3    4 1  
     8    6    7 1  
     9    5   16 2  
    10   13   14 1  
    11   12   13 1  
    12   11   12 1  
    13   11   15 2  
    14   10   11 1  
    15    9   10 1  
    16    8    9 1  
    17    1   17 1  
    18    1   18 1  
    19    2   19 1  
    20    2   20 1  
    21    3   21 1  
    22    3   22 1  
    23    4   23 1  
    24    4   24 1  
    25    6   25 1  
    26    6   26 1  
    27    7   27 1  
    28    7   28 1  
    29    8   29 1  
    30    8   30 1  
    31    9   31 1  
    32    9   32 1  
    33   12   33 1  
    34   12   34 1  
    35   13   35 1  
    36   13   36 1  
    37   14   37 1  
    38   14   38 1  
# Name:          frag5-578-42/41815 -- energy: -7.222931
# Creation time: Sat Jun  5 12:52:56 2010


@<TRIPOS>MOLECULE
frag5-578-42/41815 -- energy: -7.222931
   38    38     1     1     1
SMALL
USER_CHARGES


@<TRIPOS>ATOM
      1 C7         -0.8217    2.0563   -0.1007 C.3        1 <1>        0.000
      2 C8          0.3630    1.6511   -0.9592 C.3        1 <1>        0.000
      3 C9          1.5098    0.8628   -0.3475 C.3        1 <1>        0.000
      4 C10         2.7645    0.6396   -1.1765 C.3        1 <1>        0.000
      5 C11         3.6632    1.8632   -1.3726 C.2        1 <1>        0.000
      6 C12         5.0395    2.0009   -0.7130 C.3        1 <1>        0.000
      7 C13         5.3706    1.5998    0.7202 C.3        1 <1>        0.000
      8 C14         4.8254    2.2712    1.9805 C.3        1 <1>        0.000
      9 C15         4.6218    3.7736    2.1452 C.3        1 <1>        0.000
     10 O3          3.3348    4.2935    1.8566 O.3        1 <1>        0.000
     11 C16         2.3753    4.0335    2.7659 C.2        1 <1>        0.000
     12 C17         0.9639    4.4726    2.4420 C.3        1 <1>        0.000
     13 C18         0.4564    3.9695    1.1094 C.3        1 <1>        0.000
     14 C19        -0.6086    2.8970    1.1400 C.3        1 <1>        0.000
     15 O9          2.5850    3.4436    3.8272 O.2        1 <1>        0.000
     16 O12         3.2665    2.7698   -2.1320 O.2        1 <1>        0.000
     17 H          -1.2197    1.1137    0.2751 H.spc      1 <1>        0.000
     18 H          -1.4278    2.6845   -0.7535 H.spc      1 <1>        0.000
     19 H           0.8137    2.5952   -1.2652 H.spc      1 <1>        0.000
     20 H          -0.0594    0.9813   -1.7082 H.spc      1 <1>        0.000
     21 H           1.1060   -0.1339   -0.1698 H.spc      1 <1>        0.000
     22 H           1.8363    1.4543    0.5078 H.spc      1 <1>        0.000
     23 H           3.3614   -0.0963   -0.6377 H.spc      1 <1>        0.000
     24 H           2.4273    0.3442   -2.1700 H.spc      1 <1>        0.000
     25 H           5.1766    3.0820   -0.6879 H.spc      1 <1>        0.000
     26 H           5.6447    1.3045   -1.2935 H.spc      1 <1>        0.000
     27 H           4.9325    0.6038    0.7850 H.spc      1 <1>        0.000
     28 H           6.4342    1.8302    0.7813 H.spc      1 <1>        0.000
     29 H           5.6021    2.0577    2.7148 H.spc      1 <1>        0.000
     30 H           3.8054    1.8896    2.0272 H.spc      1 <1>        0.000
     31 H           4.7918    3.9793    3.2020 H.spc      1 <1>        0.000
     32 H           5.2958    4.2420    1.4280 H.spc      1 <1>        0.000
     33 H           0.3118    4.0624    3.2131 H.spc      1 <1>        0.000
     34 H           0.9652    5.5617    2.3982 H.spc      1 <1>        0.000
     35 H          -0.0021    4.8299    0.6219 H.spc      1 <1>        0.000
     36 H           1.3170    3.5198    0.6142 H.spc      1 <1>        0.000
     37 H          -0.2844    2.1949    1.9081 H.spc      1 <1>        0.000
     38 H          -1.5472    3.4312    1.2873 H.spc      1 <1>        0.000
@<TRIPOS>BOND
     1    7    8 1  
     2    1    2 1  
     3    5    6 1  
     4    1   14 1  
     5    4    5 1  
     6    2    3 1  
     7    3    4 1  
     8    6    7 1  
     9    5   16 2  
    10   13   14 1  
    11   12   13 1  
    12   11   12 1  
    13   11   15 2  
    14   10   11 1  
    15    9   10 1  
    16    8    9 1  
    17    1   17 1  
    18    1   18 1  
    19    2   19 1  
    20    2   20 1  
    21    3   21 1  
    22    3   22 1  
    23    4   23 1  
    24    4   24 1  
    25    6   25 1  
    26    6   26 1  
    27    7   27 1  
    28    7   28 1  
    29    8   29 1  
    30    8   30 1  
    31    9   31 1  
    32    9   32 1  
    33   12   33 1  
    34   12   34 1  
    35   13   35 1  
    36   13   36 1  
    37   14   37 1  
    38   14   38 1  
# Name:          frag5-578-42/41815 -- energy: -6.825904
# Creation time: Sat Jun  5 12:52:56 2010


@<TRIPOS>MOLECULE
frag5-578-42/41815 -- energy: -6.825904
   38    38     1     1     1
SMALL
USER_CHARGES


@<TRIPOS>ATOM
      1 C7          0.0075    1.7046    0.3814 C.3        1 <1>        0.000
      2 C8         -0.0095    1.3296   -1.0852 C.3        1 <1>        0.000
      3 C9          1.1120    1.7390   -2.0182 C.3        1 <1>        0.000
      4 C10         2.3479    0.8824   -2.1100 C.3        1 <1>        0.000
      5 C11         3.6205    1.4699   -1.5475 C.2        1 <1>        0.000
      6 C12         3.6696    1.9303   -0.1138 C.3        1 <1>        0.000
      7 C13         4.8828    1.5948    0.7069 C.3        1 <1>        0.000
      8 C14         5.4095    2.6185    1.6848 C.3        1 <1>        0.000
      9 C15         4.5000    3.4885    2.5449 C.3        1 <1>        0.000
     10 O3          3.1701    3.7562    2.1467 O.3        1 <1>        0.000
     11 C16         2.3765    4.3744    3.0463 C.2        1 <1>        0.000
     12 C17         0.9631    4.7137    2.6713 C.3        1 <1>        0.000
     13 C18         0.1143    3.5588    2.2123 C.3        1 <1>        0.000
     14 C19         0.1773    3.1605    0.7545 C.3        1 <1>        0.000
     15 O9          2.7610    4.6819    4.1737 O.2        1 <1>        0.000
     16 O12         4.6068    1.5951   -2.2624 O.2        1 <1>        0.000
     17 H           0.8826    1.2019    0.7931 H.spc      1 <1>        0.000
     18 H          -0.9778    1.4281    0.7568 H.spc      1 <1>        0.000
     19 H          -0.8805    1.8538   -1.4785 H.spc      1 <1>        0.000
     20 H           0.0425    0.2409   -1.0767 H.spc      1 <1>        0.000
     21 H           1.4643    2.6932   -1.6264 H.spc      1 <1>        0.000
     22 H           0.6722    1.6991   -3.0148 H.spc      1 <1>        0.000
     23 H           2.1408   -0.0095   -1.5186 H.spc      1 <1>        0.000
     24 H           2.5308    0.7305   -3.1738 H.spc      1 <1>        0.000
     25 H           2.8427    1.4180    0.3781 H.spc      1 <1>        0.000
     26 H           3.6520    3.0190   -0.1638 H.spc      1 <1>        0.000
     27 H           4.5806    0.7473    1.3222 H.spc      1 <1>        0.000
     28 H           5.6849    1.4602   -0.0188 H.spc      1 <1>        0.000
     29 H           5.9100    3.3422    1.0415 H.spc      1 <1>        0.000
     30 H           5.9394    2.0114    2.4188 H.spc      1 <1>        0.000
     31 H           4.3928    2.9267    3.4728 H.spc      1 <1>        0.000
     32 H           4.9822    4.4660    2.5390 H.spc      1 <1>        0.000
     33 H           0.4904    5.1053    3.5720 H.spc      1 <1>        0.000
     34 H           1.0243    5.4049    1.8307 H.spc      1 <1>        0.000
     35 H           0.4839    2.6937    2.7629 H.spc      1 <1>        0.000
     36 H          -0.9155    3.8744    2.3798 H.spc      1 <1>        0.000
     37 H          -0.6668    3.6690    0.2887 H.spc      1 <1>        0.000
     38 H           1.1892    3.4142    0.4386 H.spc      1 <1>        0.000
@<TRIPOS>BOND
     1    7    8 1  
     2    1    2 1  
     3    5    6 1  
     4    1   14 1  
     5    4    5 1  
     6    2    3 1  
     7    3    4 1  
     8    6    7 1  
     9    5   16 2  
    10   13   14 1  
    11   12   13 1  
    12   11   12 1  
    13   11   15 2  
    14   10   11 1  
    15    9   10 1  
    16    8    9 1  
    17    1   17 1  
    18    1   18 1  
    19    2   19 1  
    20    2   20 1  
    21    3   21 1  
    22    3   22 1  
    23    4   23 1  
    24    4   24 1  
    25    6   25 1  
    26    6   26 1  
    27    7   27 1  
    28    7   28 1  
    29    8   29 1  
    30    8   30 1  
    31    9   31 1  
    32    9   32 1  
    33   12   33 1  
    34   12   34 1  
    35   13   35 1  
    36   13   36 1  
    37   14   37 1  
    38   14   38 1  
# Name:          frag5-578-42/41815 -- energy: -5.659865
# Creation time: Sat Jun  5 12:52:56 2010


@<TRIPOS>MOLECULE
frag5-578-42/41815 -- energy: -5.659865
   38    38     1     1     1
SMALL
USER_CHARGES


@<TRIPOS>ATOM
      1 C7          0.6676    2.8317   -0.2166 C.3        1 <1>        0.000
      2 C8          0.1748    1.6046   -0.9881 C.3        1 <1>        0.000
      3 C9          1.0582    0.9835   -2.0980 C.3        1 <1>        0.000
      4 C10         2.4496    0.4771   -1.7605 C.3        1 <1>        0.000
      5 C11         3.5007    1.4668   -1.2628 C.2        1 <1>        0.000
      6 C12         4.3527    1.0947   -0.0505 C.3        1 <1>        0.000
      7 C13         5.4413    2.0495    0.3732 C.3        1 <1>        0.000
      8 C14         5.3670    2.6592    1.7527 C.3        1 <1>        0.000
      9 C15         4.3361    3.7524    1.9886 C.3        1 <1>        0.000
     10 O3          2.9712    3.4592    2.1245 O.3        1 <1>        0.000
     11 C16         2.2893    4.1964    3.0385 C.2        1 <1>        0.000
     12 C17         0.7939    4.1493    3.1006 C.3        1 <1>        0.000
     13 C18         0.0676    3.0836    2.3255 C.3        1 <1>        0.000
     14 C19        -0.2912    3.3151    0.8635 C.3        1 <1>        0.000
     15 O9          2.8558    4.9465    3.8376 O.2        1 <1>        0.000
     16 O12         3.6747    2.5285   -1.8425 O.2        1 <1>        0.000
     17 H           0.7765    3.6425   -0.9369 H.spc      1 <1>        0.000
     18 H           1.5957    2.5486    0.2799 H.spc      1 <1>        0.000
     19 H          -0.7170    1.9506   -1.5106 H.spc      1 <1>        0.000
     20 H           0.0939    0.8221   -0.2336 H.spc      1 <1>        0.000
     21 H           1.2264    1.7981   -2.8024 H.spc      1 <1>        0.000
     22 H           0.5131    0.0951   -2.4171 H.spc      1 <1>        0.000
     23 H           2.3019   -0.2146   -0.9311 H.spc      1 <1>        0.000
     24 H           2.8457    0.0989   -2.7029 H.spc      1 <1>        0.000
     25 H           4.8681    0.1762   -0.3314 H.spc      1 <1>        0.000
     26 H           3.6587    1.0579    0.7892 H.spc      1 <1>        0.000
     27 H           6.3565    1.4574    0.3719 H.spc      1 <1>        0.000
     28 H           5.3662    2.8913   -0.3152 H.spc      1 <1>        0.000
     29 H           6.3356    3.1321    1.9149 H.spc      1 <1>        0.000
     30 H           5.0835    1.8430    2.4172 H.spc      1 <1>        0.000
     31 H           4.6111    4.1628    2.9602 H.spc      1 <1>        0.000
     32 H           4.3830    4.3533    1.0804 H.spc      1 <1>        0.000
     33 H           0.5616    3.9453    4.1458 H.spc      1 <1>        0.000
     34 H           0.4639    5.0910    2.6621 H.spc      1 <1>        0.000
     35 H           0.7598    2.2418    2.3059 H.spc      1 <1>        0.000
     36 H          -0.8939    2.9877    2.8299 H.spc      1 <1>        0.000
     37 H          -1.2053    2.7431    0.7044 H.spc      1 <1>        0.000
     38 H          -0.3200    4.3987    0.7493 H.spc      1 <1>        0.000
@<TRIPOS>BOND
     1    7    8 1  
     2    1    2 1  
     3    5    6 1  
     4    1   14 1  
     5    4    5 1  
     6    2    3 1  
     7    3    4 1  
     8    6    7 1  
     9    5   16 2  
    10   13   14 1  
    11   12   13 1  
    12   11   12 1  
    13   11   15 2  
    14   10   11 1  
    15    9   10 1  
    16    8    9 1  
    17    1   17 1  
    18    1   18 1  
    19    2   19 1  
    20    2   20 1  
    21    3   21 1  
    22    3   22 1  
    23    4   23 1  
    24    4   24 1  
    25    6   25 1  
    26    6   26 1  
    27    7   27 1  
    28    7   28 1  
    29    8   29 1  
    30    8   30 1  
    31    9   31 1  
    32    9   32 1  
    33   12   33 1  
    34   12   34 1  
    35   13   35 1  
    36   13   36 1  
    37   14   37 1  
    38   14   38 1  
# Name:          frag5-578-42/41815 -- energy: -6.753121
# Creation time: Sat Jun  5 12:52:56 2010


@<TRIPOS>MOLECULE
frag5-578-42/41815 -- energy: -6.753121
   38    38     1     1     1
SMALL
USER_CHARGES


@<TRIPOS>ATOM
      1 C7         -0.9329    2.2179    0.2434 C.3        1 <1>        0.000
      2 C8          0.0428    1.4568   -0.6277 C.3        1 <1>        0.000
      3 C9          1.5133    1.7378   -0.5060 C.3        1 <1>        0.000
      4 C10         2.5299    0.8253   -1.1193 C.3        1 <1>        0.000
      5 C11         3.9173    1.4023   -1.1098 C.2        1 <1>        0.000
      6 C12         4.9431    0.9218   -0.1349 C.3        1 <1>        0.000
      7 C13         5.8105    1.9150    0.5571 C.3        1 <1>        0.000
      8 C14         5.3681    3.3193    0.9213 C.3        1 <1>        0.000
      9 C15         4.4128    3.5073    2.0819 C.3        1 <1>        0.000
     10 O3          3.0421    3.4425    1.7956 O.3        1 <1>        0.000
     11 C16         2.2030    3.7933    2.7929 C.2        1 <1>        0.000
     12 C17         0.7609    3.5251    2.5390 C.3        1 <1>        0.000
     13 C18         0.0968    4.3535    1.4590 C.3        1 <1>        0.000
     14 C19        -0.7844    3.7179    0.3923 C.3        1 <1>        0.000
     15 O9          2.5355    4.2416    3.8812 O.2        1 <1>        0.000
     16 O12         4.2506    2.2208   -1.9805 O.2        1 <1>        0.000
     17 H          -0.7750    1.8228    1.2469 H.spc      1 <1>        0.000
     18 H          -1.9004    2.0818   -0.2398 H.spc      1 <1>        0.000
     19 H          -0.2116    1.7456   -1.6475 H.spc      1 <1>        0.000
     20 H          -0.0671    0.4158   -0.3237 H.spc      1 <1>        0.000
     21 H           1.7071    1.6659    0.5642 H.spc      1 <1>        0.000
     22 H           1.6466    2.6778   -1.0415 H.spc      1 <1>        0.000
     23 H           2.5481   -0.0936   -0.5333 H.spc      1 <1>        0.000
     24 H           2.2453    0.6614   -2.1586 H.spc      1 <1>        0.000
     25 H           5.6296    0.3174   -0.7278 H.spc      1 <1>        0.000
     26 H           4.3699    0.4488    0.6625 H.spc      1 <1>        0.000
     27 H           5.9734    1.4542    1.5314 H.spc      1 <1>        0.000
     28 H           6.6005    2.0936   -0.1724 H.spc      1 <1>        0.000
     29 H           4.8245    3.6791    0.0477 H.spc      1 <1>        0.000
     30 H           6.2811    3.8335    1.2216 H.spc      1 <1>        0.000
     31 H           4.6125    2.6840    2.7678 H.spc      1 <1>        0.000
     32 H           4.5915    4.5162    2.4537 H.spc      1 <1>        0.000
     33 H           0.7020    2.4898    2.2031 H.spc      1 <1>        0.000
     34 H           0.2419    3.7678    3.4663 H.spc      1 <1>        0.000
     35 H          -0.5882    4.9971    2.0109 H.spc      1 <1>        0.000
     36 H           0.9347    4.7611    0.8934 H.spc      1 <1>        0.000
     37 H          -1.7874    4.0435    0.6682 H.spc      1 <1>        0.000
     38 H          -0.3054    4.0167   -0.5401 H.spc      1 <1>        0.000
@<TRIPOS>BOND
     1    7    8 1  
     2    1    2 1  
     3    5    6 1  
     4    1   14 1  
     5    4    5 1  
     6    2    3 1  
     7    3    4 1  
     8    6    7 1  
     9    5   16 2  
    10   13   14 1  
    11   12   13 1  
    12   11   12 1  
    13   11   15 2  
    14   10   11 1  
    15    9   10 1  
    16    8    9 1  
    17    1   17 1  
    18    1   18 1  
    19    2   19 1  
    20    2   20 1  
    21    3   21 1  
    22    3   22 1  
    23    4   23 1  
    24    4   24 1  
    25    6   25 1  
    26    6   26 1  
    27    7   27 1  
    28    7   28 1  
    29    8   29 1  
    30    8   30 1  
    31    9   31 1  
    32    9   32 1  
    33   12   33 1  
    34   12   34 1  
    35   13   35 1  
    36   13   36 1  
    37   14   37 1  
    38   14   38 1  
# Name:          frag5-578-42/41815 -- energy: -7.164107
# Creation time: Sat Jun  5 12:52:56 2010


@<TRIPOS>MOLECULE
frag5-578-42/41815 -- energy: -7.164107
   38    38     1     1     1
SMALL
USER_CHARGES


@<TRIPOS>ATOM
      1 C7          0.5115    3.1668   -0.4050 C.3        1 <1>        0.000
      2 C8          0.4155    2.1196   -1.5012 C.3        1 <1>        0.000
      3 C9          0.9566    0.7377   -1.1699 C.3        1 <1>        0.000
      4 C10         2.4412    0.4282   -1.1420 C.3        1 <1>        0.000
      5 C11         3.5291    1.4865   -0.9668 C.2        1 <1>        0.000
      6 C12         4.8010    1.0962   -0.2352 C.3        1 <1>        0.000
      7 C13         5.6204    2.1507    0.4640 C.3        1 <1>        0.000
      8 C14         5.0313    2.8858    1.6541 C.3        1 <1>        0.000
      9 C15         4.1452    4.0925    1.4017 C.3        1 <1>        0.000
     10 O3          2.7594    3.9780    1.6466 O.3        1 <1>        0.000
     11 C16         2.3719    3.7913    2.9193 C.2        1 <1>        0.000
     12 C17         0.9006    3.5310    3.1768 C.3        1 <1>        0.000
     13 C18        -0.0949    3.8317    2.0718 C.3        1 <1>        0.000
     14 C19        -0.2566    2.8979    0.8845 C.3        1 <1>        0.000
     15 O9          3.1319    3.7978    3.8675 O.2        1 <1>        0.000
     16 O12         3.4453    2.6065   -1.4804 O.2        1 <1>        0.000
     17 H           0.0777    4.0747   -0.8241 H.spc      1 <1>        0.000
     18 H           1.5633    3.2026   -0.1211 H.spc      1 <1>        0.000
     19 H           1.0224    2.4910   -2.3270 H.spc      1 <1>        0.000
     20 H          -0.6481    1.9873   -1.6995 H.spc      1 <1>        0.000
     21 H           0.5856    0.1193   -1.9872 H.spc      1 <1>        0.000
     22 H           0.6485    0.5879   -0.1351 H.spc      1 <1>        0.000
     23 H           2.5447   -0.1754   -0.2403 H.spc      1 <1>        0.000
     24 H           2.6285    0.0544   -2.1486 H.spc      1 <1>        0.000
     25 H           5.4582    0.7128   -1.0157 H.spc      1 <1>        0.000
     26 H           4.4644    0.4369    0.5649 H.spc      1 <1>        0.000
     27 H           6.4782    1.6127    0.8675 H.spc      1 <1>        0.000
     28 H           5.7781    2.9233   -0.2886 H.spc      1 <1>        0.000
     29 H           5.8908    3.2753    2.1997 H.spc      1 <1>        0.000
     30 H           4.3849    2.1579    2.1444 H.spc      1 <1>        0.000
     31 H           4.4949    4.8524    2.1006 H.spc      1 <1>        0.000
     32 H           4.2291    4.2874    0.3326 H.spc      1 <1>        0.000
     33 H           0.8268    2.4559    3.3406 H.spc      1 <1>        0.000
     34 H           0.6317    4.2029    3.9918 H.spc      1 <1>        0.000
     35 H          -1.0628    3.7919    2.5716 H.spc      1 <1>        0.000
     36 H           0.2739    4.7575    1.6302 H.spc      1 <1>        0.000
     37 H           0.1269    1.9401    1.2361 H.spc      1 <1>        0.000
     38 H          -1.3052    2.9935    0.6027 H.spc      1 <1>        0.000
@<TRIPOS>BOND
     1    7    8 1  
     2    1    2 1  
     3    5    6 1  
     4    1   14 1  
     5    4    5 1  
     6    2    3 1  
     7    3    4 1  
     8    6    7 1  
     9    5   16 2  
    10   13   14 1  
    11   12   13 1  
    12   11   12 1  
    13   11   15 2  
    14   10   11 1  
    15    9   10 1  
    16    8    9 1  
    17    1   17 1  
    18    1   18 1  
    19    2   19 1  
    20    2   20 1  
    21    3   21 1  
    22    3   22 1  
    23    4   23 1  
    24    4   24 1  
    25    6   25 1  
    26    6   26 1  
    27    7   27 1  
    28    7   28 1  
    29    8   29 1  
    30    8   30 1  
    31    9   31 1  
    32    9   32 1  
    33   12   33 1  
    34   12   34 1  
    35   13   35 1  
    36   13   36 1  
    37   14   37 1  
    38   14   38 1  
# Name:          frag5-578-42/41815 -- energy: -6.906468
# Creation time: Sat Jun  5 12:52:56 2010


@<TRIPOS>MOLECULE
frag5-578-42/41815 -- energy: -6.906468
   38    38     1     1     1
SMALL
USER_CHARGES


@<TRIPOS>ATOM
      1 C7         -0.5070    2.4729   -0.4005 C.3        1 <1>        0.000
      2 C8          0.4266    2.4599   -1.6079 C.3        1 <1>        0.000
      3 C9          0.9180    1.1045   -2.1104 C.3        1 <1>        0.000
      4 C10         2.0297    0.4008   -1.3784 C.3        1 <1>        0.000
      5 C11         3.2814    1.2338   -1.2429 C.2        1 <1>        0.000
      6 C12         3.8780    1.5294    0.1405 C.3        1 <1>        0.000
      7 C13         4.6928    2.8042    0.2973 C.3        1 <1>        0.000
      8 C14         5.4048    3.0238    1.6435 C.3        1 <1>        0.000
      9 C15         4.6380    3.0566    2.9649 C.3        1 <1>        0.000
     10 O3          3.8815    4.2210    3.2442 O.3        1 <1>        0.000
     11 C16         2.5574    4.3381    3.1914 C.2        1 <1>        0.000
     12 C17         1.6046    3.2366    2.7957 C.3        1 <1>        0.000
     13 C18         0.9318    3.4280    1.4640 C.3        1 <1>        0.000
     14 C19         0.0877    2.2474    0.9860 C.3        1 <1>        0.000
     15 O9          2.0467    5.4250    3.4809 O.2        1 <1>        0.000
     16 O12         3.8373    1.6163   -2.2826 O.2        1 <1>        0.000
     17 H          -1.1860    1.6349   -0.5578 H.spc      1 <1>        0.000
     18 H          -0.9197    3.4814   -0.3717 H.spc      1 <1>        0.000
     19 H           1.3215    2.9952   -1.2905 H.spc      1 <1>        0.000
     20 H          -0.1523    2.8829   -2.4288 H.spc      1 <1>        0.000
     21 H           1.3244    1.3076   -3.1012 H.spc      1 <1>        0.000
     22 H           0.0576    0.4432   -2.0083 H.spc      1 <1>        0.000
     23 H           1.6721    0.1799   -0.3727 H.spc      1 <1>        0.000
     24 H           2.2884   -0.4892   -1.9520 H.spc      1 <1>        0.000
     25 H           4.5708    0.7123    0.3415 H.spc      1 <1>        0.000
     26 H           3.0248    1.6429    0.8093 H.spc      1 <1>        0.000
     27 H           5.4846    2.7426   -0.4492 H.spc      1 <1>        0.000
     28 H           3.9805    3.6238    0.2025 H.spc      1 <1>        0.000
     29 H           5.8132    4.0308    1.5576 H.spc      1 <1>        0.000
     30 H           6.0478    2.1490    1.7405 H.spc      1 <1>        0.000
     31 H           3.9170    2.2410    2.9095 H.spc      1 <1>        0.000
     32 H           5.3942    2.9995    3.7479 H.spc      1 <1>        0.000
     33 H           2.1929    2.3219    2.7230 H.spc      1 <1>        0.000
     34 H           0.8156    3.2171    3.5475 H.spc      1 <1>        0.000
     35 H           0.2529    4.2735    1.5750 H.spc      1 <1>        0.000
     36 H           1.7253    3.5633    0.7290 H.spc      1 <1>        0.000
     37 H           0.7351    1.3720    0.9344 H.spc      1 <1>        0.000
     38 H          -0.7368    2.1195    1.6873 H.spc      1 <1>        0.000
@<TRIPOS>BOND
     1    7    8 1  
     2    1    2 1  
     3    5    6 1  
     4    1   14 1  
     5    4    5 1  
     6    2    3 1  
     7    3    4 1  
     8    6    7 1  
     9    5   16 2  
    10   13   14 1  
    11   12   13 1  
    12   11   12 1  
    13   11   15 2  
    14   10   11 1  
    15    9   10 1  
    16    8    9 1  
    17    1   17 1  
    18    1   18 1  
    19    2   19 1  
    20    2   20 1  
    21    3   21 1  
    22    3   22 1  
    23    4   23 1  
    24    4   24 1  
    25    6   25 1  
    26    6   26 1  
    27    7   27 1  
    28    7   28 1  
    29    8   29 1  
    30    8   30 1  
    31    9   31 1  
    32    9   32 1  
    33   12   33 1  
    34   12   34 1  
    35   13   35 1  
    36   13   36 1  
    37   14   37 1  
    38   14   38 1  
# Name:          frag5-578-42/41815 -- energy: -7.323223
# Creation time: Sat Jun  5 12:52:56 2010


@<TRIPOS>MOLECULE
frag5-578-42/41815 -- energy: -7.323223
   38    38     1     1     1
SMALL
USER_CHARGES


@<TRIPOS>ATOM
      1 C7         -0.7309    2.0237    0.3006 C.3        1 <1>        0.000
      2 C8          0.2264    2.3220   -0.8353 C.3        1 <1>        0.000
      3 C9          1.6937    2.0139   -0.6819 C.3        1 <1>        0.000
      4 C10         2.5066    1.6446   -1.8986 C.3        1 <1>        0.000
      5 C11         4.0037    1.5228   -1.7087 C.2        1 <1>        0.000
      6 C12         4.7505    2.3608   -0.6992 C.3        1 <1>        0.000
      7 C13         5.0089    1.6419    0.6038 C.3        1 <1>        0.000
      8 C14         5.3056    2.4493    1.8435 C.3        1 <1>        0.000
      9 C15         4.3211    3.4924    2.3441 C.3        1 <1>        0.000
     10 O3          2.9341    3.2751    2.2053 O.3        1 <1>        0.000
     11 C16         2.1635    4.3389    2.5136 C.2        1 <1>        0.000
     12 C17         0.6947    4.3316    2.2142 C.3        1 <1>        0.000
     13 C18        -0.1397    3.1532    2.6202 C.3        1 <1>        0.000
     14 C19        -0.2862    1.9303    1.7494 C.3        1 <1>        0.000
     15 O9          2.6138    5.3748    3.0174 O.2        1 <1>        0.000
     16 O12         4.6434    0.7228   -2.4028 O.2        1 <1>        0.000
     17 H          -1.0734    1.0129    0.0792 H.spc      1 <1>        0.000
     18 H          -1.3964    2.8870    0.2991 H.spc      1 <1>        0.000
     19 H           0.1851    3.4051   -0.9501 H.spc      1 <1>        0.000
     20 H          -0.1049    1.6763   -1.6486 H.spc      1 <1>        0.000
     21 H           1.7255    1.1274   -0.0484 H.spc      1 <1>        0.000
     22 H           2.1360    2.9443   -0.3256 H.spc      1 <1>        0.000
     23 H           2.1618    0.6554   -2.1997 H.spc      1 <1>        0.000
     24 H           2.3607    2.4548   -2.6130 H.spc      1 <1>        0.000
     25 H           4.1355    3.2328   -0.4769 H.spc      1 <1>        0.000
     26 H           5.7183    2.6126   -1.1329 H.spc      1 <1>        0.000
     27 H           4.0768    1.1222    0.8255 H.spc      1 <1>        0.000
     28 H           5.9132    1.0596    0.4268 H.spc      1 <1>        0.000
     29 H           6.1933    3.0248    1.5808 H.spc      1 <1>        0.000
     30 H           5.3386    1.7087    2.6425 H.spc      1 <1>        0.000
     31 H           4.4854    3.5284    3.4210 H.spc      1 <1>        0.000
     32 H           4.5220    4.3727    1.7336 H.spc      1 <1>        0.000
     33 H           0.2923    5.1652    2.7897 H.spc      1 <1>        0.000
     34 H           0.6355    4.3490    1.1259 H.spc      1 <1>        0.000
     35 H           0.3705    2.7743    3.5058 H.spc      1 <1>        0.000
     36 H          -1.1504    3.5595    2.6590 H.spc      1 <1>        0.000
     37 H           0.7295    1.5408    1.6813 H.spc      1 <1>        0.000
     38 H          -1.0886    1.3691    2.2283 H.spc      1 <1>        0.000
@<TRIPOS>BOND
     1    7    8 1  
     2    1    2 1  
     3    5    6 1  
     4    1   14 1  
     5    4    5 1  
     6    2    3 1  
     7    3    4 1  
     8    6    7 1  
     9    5   16 2  
    10   13   14 1  
    11   12   13 1  
    12   11   12 1  
    13   11   15 2  
    14   10   11 1  
    15    9   10 1  
    16    8    9 1  
    17    1   17 1  
    18    1   18 1  
    19    2   19 1  
    20    2   20 1  
    21    3   21 1  
    22    3   22 1  
    23    4   23 1  
    24    4   24 1  
    25    6   25 1  
    26    6   26 1  
    27    7   27 1  
    28    7   28 1  
    29    8   29 1  
    30    8   30 1  
    31    9   31 1  
    32    9   32 1  
    33   12   33 1  
    34   12   34 1  
    35   13   35 1  
    36   13   36 1  
    37   14   37 1  
    38   14   38 1  
# Name:          frag5-578-42/41815 -- energy: -7.214433
# Creation time: Sat Jun  5 12:52:56 2010


@<TRIPOS>MOLECULE
frag5-578-42/41815 -- energy: -7.214433
   38    38     1     1     1
SMALL
USER_CHARGES


@<TRIPOS>ATOM
      1 C7          0.0339    1.7145    0.0711 C.3        1 <1>        0.000
      2 C8          0.8900    2.6504   -0.7428 C.3        1 <1>        0.000
      3 C9          1.3449    2.2680   -2.1291 C.3        1 <1>        0.000
      4 C10         2.4885    1.3128   -2.2870 C.3        1 <1>        0.000
      5 C11         3.5129    1.2134   -1.1520 C.2        1 <1>        0.000
      6 C12         4.8018    2.0261   -1.1158 C.3        1 <1>        0.000
      7 C13         5.0577    3.1035   -0.0814 C.3        1 <1>        0.000
      8 C14         5.3643    2.8035    1.3824 C.3        1 <1>        0.000
      9 C15         4.4894    3.4169    2.4584 C.3        1 <1>        0.000
     10 O3          3.1201    3.4679    2.1375 O.3        1 <1>        0.000
     11 C16         2.2673    4.1640    2.8882 C.2        1 <1>        0.000
     12 C17         0.8404    4.1352    2.4360 C.3        1 <1>        0.000
     13 C18         0.2645    2.7422    2.4106 C.3        1 <1>        0.000
     14 C19        -0.6323    2.3540    1.2592 C.3        1 <1>        0.000
     15 O9          2.5749    4.8074    3.8853 O.2        1 <1>        0.000
     16 O12         3.2913    0.4184   -0.2351 O.2        1 <1>        0.000
     17 H           0.6903    0.9336    0.4550 H.spc      1 <1>        0.000
     18 H          -0.7592    1.3553   -0.5847 H.spc      1 <1>        0.000
     19 H           1.8146    2.7314   -0.1713 H.spc      1 <1>        0.000
     20 H           0.2558    3.5227   -0.9011 H.spc      1 <1>        0.000
     21 H           1.6960    3.1991   -2.5739 H.spc      1 <1>        0.000
     22 H           0.4906    1.7554   -2.5713 H.spc      1 <1>        0.000
     23 H           2.0311    0.3253   -2.3480 H.spc      1 <1>        0.000
     24 H           3.0490    1.6762   -3.1483 H.spc      1 <1>        0.000
     25 H           4.7770    2.5793   -2.0546 H.spc      1 <1>        0.000
     26 H           5.5643    1.2791   -0.8951 H.spc      1 <1>        0.000
     27 H           5.9775    3.5697   -0.4346 H.spc      1 <1>        0.000
     28 H           4.1029    3.6267   -0.0302 H.spc      1 <1>        0.000
     29 H           6.3553    3.2240    1.5532 H.spc      1 <1>        0.000
     30 H           5.2213    1.7277    1.4841 H.spc      1 <1>        0.000
     31 H           4.5865    2.7899    3.3447 H.spc      1 <1>        0.000
     32 H           4.8240    4.4454    2.5941 H.spc      1 <1>        0.000
     33 H           0.2547    4.7261    3.1403 H.spc      1 <1>        0.000
     34 H           0.8036    4.5305    1.4209 H.spc      1 <1>        0.000
     35 H           1.1263    2.0789    2.3367 H.spc      1 <1>        0.000
     36 H          -0.3664    2.6785    3.2972 H.spc      1 <1>        0.000
     37 H          -1.3228    1.6087    1.6540 H.spc      1 <1>        0.000
     38 H          -1.0716    3.2823    0.8940 H.spc      1 <1>        0.000
@<TRIPOS>BOND
     1    7    8 1  
     2    1    2 1  
     3    5    6 1  
     4    1   14 1  
     5    4    5 1  
     6    2    3 1  
     7    3    4 1  
     8    6    7 1  
     9    5   16 2  
    10   13   14 1  
    11   12   13 1  
    12   11   12 1  
    13   11   15 2  
    14   10   11 1  
    15    9   10 1  
    16    8    9 1  
    17    1   17 1  
    18    1   18 1  
    19    2   19 1  
    20    2   20 1  
    21    3   21 1  
    22    3   22 1  
    23    4   23 1  
    24    4   24 1  
    25    6   25 1  
    26    6   26 1  
    27    7   27 1  
    28    7   28 1  
    29    8   29 1  
    30    8   30 1  
    31    9   31 1  
    32    9   32 1  
    33   12   33 1  
    34   12   34 1  
    35   13   35 1  
    36   13   36 1  
    37   14   37 1  
    38   14   38 1  
# Name:          frag5-578-42/41815 -- energy: -6.012831
# Creation time: Sat Jun  5 12:52:56 2010


@<TRIPOS>MOLECULE
frag5-578-42/41815 -- energy: -6.012831
   38    38     1     1     1
SMALL
USER_CHARGES


@<TRIPOS>ATOM
      1 C7         -0.6646    1.8694    0.2696 C.3        1 <1>        0.000
      2 C8          0.3812    1.8582   -0.8327 C.3        1 <1>        0.000
      3 C9          1.5490    0.9066   -0.6609 C.3        1 <1>        0.000
      4 C10         2.7074    0.9025   -1.6371 C.3        1 <1>        0.000
      5 C11         3.7761    1.9762   -1.5573 C.2        1 <1>        0.000
      6 C12         5.0148    1.7789   -0.7023 C.3        1 <1>        0.000
      7 C13         4.7914    1.4837    0.7579 C.3        1 <1>        0.000
      8 C14         5.3035    2.4536    1.8043 C.3        1 <1>        0.000
      9 C15         4.3011    2.9802    2.8096 C.3        1 <1>        0.000
     10 O3          3.0036    3.1576    2.2896 O.3        1 <1>        0.000
     11 C16         2.3750    4.3334    2.4166 C.2        1 <1>        0.000
     12 C17         1.1307    4.5405    1.6022 C.3        1 <1>        0.000
     13 C18        -0.1009    3.7873    2.0240 C.3        1 <1>        0.000
     14 C19        -0.3070    2.3229    1.6756 C.3        1 <1>        0.000
     15 O9          2.7805    5.2374    3.1470 O.2        1 <1>        0.000
     16 O12         3.6674    3.0095   -2.2205 O.2        1 <1>        0.000
     17 H          -0.9368    0.8207    0.3891 H.spc      1 <1>        0.000
     18 H          -1.3990    2.6009   -0.0675 H.spc      1 <1>        0.000
     19 H           0.8117    2.8595   -0.8458 H.spc      1 <1>        0.000
     20 H          -0.1386    1.5330   -1.7339 H.spc      1 <1>        0.000
     21 H           1.1028   -0.0810   -0.7782 H.spc      1 <1>        0.000
     22 H           2.0012    1.2130    0.2824 H.spc      1 <1>        0.000
     23 H           3.2386   -0.0249   -1.4232 H.spc      1 <1>        0.000
     24 H           2.2418    1.0555   -2.6107 H.spc      1 <1>        0.000
     25 H           5.5566    2.7241   -0.7373 H.spc      1 <1>        0.000
     26 H           5.5241    0.9057   -1.1099 H.spc      1 <1>        0.000
     27 H           3.7082    1.4938    0.8789 H.spc      1 <1>        0.000
     28 H           5.3447    0.5626    0.9410 H.spc      1 <1>        0.000
     29 H           5.6552    3.3255    1.2527 H.spc      1 <1>        0.000
     30 H           6.0417    1.9001    2.3847 H.spc      1 <1>        0.000
     31 H           4.2298    2.2437    3.6100 H.spc      1 <1>        0.000
     32 H           4.6545    3.9586    3.1352 H.spc      1 <1>        0.000
     33 H           0.8816    5.5965    1.7062 H.spc      1 <1>        0.000
     34 H           1.3691    4.1807    0.6013 H.spc      1 <1>        0.000
     35 H          -0.0405    3.7859    3.1123 H.spc      1 <1>        0.000
     36 H          -0.9060    4.2934    1.4913 H.spc      1 <1>        0.000
     37 H           0.6743    1.8796    1.8450 H.spc      1 <1>        0.000
     38 H          -1.1797    2.0408    2.2645 H.spc      1 <1>        0.000
@<TRIPOS>BOND
     1    7    8 1  
     2    1    2 1  
     3    5    6 1  
     4    1   14 1  
     5    4    5 1  
     6    2    3 1  
     7    3    4 1  
     8    6    7 1  
     9    5   16 2  
    10   13   14 1  
    11   12   13 1  
    12   11   12 1  
    13   11   15 2  
    14   10   11 1  
    15    9   10 1  
    16    8    9 1  
    17    1   17 1  
    18    1   18 1  
    19    2   19 1  
    20    2   20 1  
    21    3   21 1  
    22    3   22 1  
    23    4   23 1  
    24    4   24 1  
    25    6   25 1  
    26    6   26 1  
    27    7   27 1  
    28    7   28 1  
    29    8   29 1  
    30    8   30 1  
    31    9   31 1  
    32    9   32 1  
    33   12   33 1  
    34   12   34 1  
    35   13   35 1  
    36   13   36 1  
    37   14   37 1  
    38   14   38 1  
# Name:          frag5-578-42/41815 -- energy: -7.379920
# Creation time: Sat Jun  5 12:52:56 2010


@<TRIPOS>MOLECULE
frag5-578-42/41815 -- energy: -7.379920
   38    38     1     1     1
SMALL
USER_CHARGES


@<TRIPOS>ATOM
      1 C7         -0.1784    2.6014   -0.0366 C.3        1 <1>        0.000
      2 C8          0.4328    2.3447   -1.4002 C.3        1 <1>        0.000
      3 C9          1.0737    1.0119   -1.7387 C.3        1 <1>        0.000
      4 C10         2.4833    0.5952   -1.3714 C.3        1 <1>        0.000
      5 C11         3.6233    1.5617   -1.5961 C.2        1 <1>        0.000
      6 C12         4.5051    2.1361   -0.4963 C.3        1 <1>        0.000
      7 C13         4.6701    1.5220    0.8736 C.3        1 <1>        0.000
      8 C14         5.2042    2.4336    1.9669 C.3        1 <1>        0.000
      9 C15         4.3971    3.6642    2.3180 C.3        1 <1>        0.000
     10 O3          3.0647    3.4009    2.7100 O.3        1 <1>        0.000
     11 C16         2.2455    4.4351    2.9189 C.2        1 <1>        0.000
     12 C17         0.7759    4.1590    3.0978 C.3        1 <1>        0.000
     13 C18         0.2467    2.8575    2.5412 C.3        1 <1>        0.000
     14 C19         0.6724    2.3531    1.1777 C.3        1 <1>        0.000
     15 O9          2.6327    5.5997    2.9734 O.2        1 <1>        0.000
     16 O12         3.8604    1.9221   -2.7525 O.2        1 <1>        0.000
     17 H          -1.0087    1.8998    0.0443 H.spc      1 <1>        0.000
     18 H          -0.4044    3.6675   -0.0176 H.spc      1 <1>        0.000
     19 H           1.2589    3.0537   -1.4544 H.spc      1 <1>        0.000
     20 H          -0.4144    2.4087   -2.0830 H.spc      1 <1>        0.000
     21 H           1.1234    1.0519   -2.8268 H.spc      1 <1>        0.000
     22 H           0.4704    0.3141   -1.1580 H.spc      1 <1>        0.000
     23 H           2.4561    0.4434   -0.2924 H.spc      1 <1>        0.000
     24 H           2.7024   -0.2498   -2.0241 H.spc      1 <1>        0.000
     25 H           4.0178    3.0853   -0.2734 H.spc      1 <1>        0.000
     26 H           5.5047    2.0414   -0.9204 H.spc      1 <1>        0.000
     27 H           3.6716    1.2224    1.1919 H.spc      1 <1>        0.000
     28 H           5.4048    0.7248    0.7601 H.spc      1 <1>        0.000
     29 H           6.1570    2.8082    1.5929 H.spc      1 <1>        0.000
     30 H           5.2157    1.8260    2.8718 H.spc      1 <1>        0.000
     31 H           4.8911    4.1376    3.1665 H.spc      1 <1>        0.000
     32 H           4.3491    4.2804    1.4202 H.spc      1 <1>        0.000
     33 H           0.6124    4.1094    4.1743 H.spc      1 <1>        0.000
     34 H           0.2575    4.9475    2.5522 H.spc      1 <1>        0.000
     35 H           0.6285    2.1039    3.2299 H.spc      1 <1>        0.000
     36 H          -0.8231    3.0353    2.4321 H.spc      1 <1>        0.000
     37 H           1.5952    2.8949    0.9705 H.spc      1 <1>        0.000
     38 H           0.6728    1.2683    1.2842 H.spc      1 <1>        0.000
@<TRIPOS>BOND
     1    7    8 1  
     2    1    2 1  
     3    5    6 1  
     4    1   14 1  
     5    4    5 1  
     6    2    3 1  
     7    3    4 1  
     8    6    7 1  
     9    5   16 2  
    10   13   14 1  
    11   12   13 1  
    12   11   12 1  
    13   11   15 2  
    14   10   11 1  
    15    9   10 1  
    16    8    9 1  
    17    1   17 1  
    18    1   18 1  
    19    2   19 1  
    20    2   20 1  
    21    3   21 1  
    22    3   22 1  
    23    4   23 1  
    24    4   24 1  
    25    6   25 1  
    26    6   26 1  
    27    7   27 1  
    28    7   28 1  
    29    8   29 1  
    30    8   30 1  
    31    9   31 1  
    32    9   32 1  
    33   12   33 1  
    34   12   34 1  
    35   13   35 1  
    36   13   36 1  
    37   14   37 1  
    38   14   38 1  
# Name:          frag5-578-42/41815 -- energy: -7.022143
# Creation time: Sat Jun  5 12:52:56 2010


@<TRIPOS>MOLECULE
frag5-578-42/41815 -- energy: -7.022143
   38    38     1     1     1
SMALL
USER_CHARGES


@<TRIPOS>ATOM
      1 C7         -0.0541    2.9357   -0.7053 C.3        1 <1>        0.000
      2 C8          0.0380    1.4518   -0.9991 C.3        1 <1>        0.000
      3 C9          1.2117    0.5965   -0.5707 C.3        1 <1>        0.000
      4 C10         2.4320    0.4925   -1.4522 C.3        1 <1>        0.000
      5 C11         3.4764    1.5756   -1.3125 C.2        1 <1>        0.000
      6 C12         4.6126    1.4495   -0.3188 C.3        1 <1>        0.000
      7 C13         4.6485    2.6654    0.5596 C.3        1 <1>        0.000
      8 C14         5.3105    2.7436    1.9121 C.3        1 <1>        0.000
      9 C15         4.9556    3.9858    2.7241 C.3        1 <1>        0.000
     10 O3          3.6733    4.5636    2.5612 O.3        1 <1>        0.000
     11 C16         2.5764    3.7853    2.7433 C.2        1 <1>        0.000
     12 C17         1.2499    4.3250    2.2482 C.3        1 <1>        0.000
     13 C18         0.1665    3.3224    1.9161 C.3        1 <1>        0.000
     14 C19        -0.6079    3.4341    0.6175 C.3        1 <1>        0.000
     15 O9          2.6387    2.6865    3.2645 O.2        1 <1>        0.000
     16 O12         3.3813    2.5850   -2.0021 O.2        1 <1>        0.000
     17 H          -0.7599    3.3100   -1.4468 H.spc      1 <1>        0.000
     18 H           0.9831    3.2708   -0.7022 H.spc      1 <1>        0.000
     19 H           0.0905    1.4174   -2.0873 H.spc      1 <1>        0.000
     20 H          -0.7932    1.0346   -0.4306 H.spc      1 <1>        0.000
     21 H           0.8123   -0.4172   -0.5380 H.spc      1 <1>        0.000
     22 H           1.5746    1.0696    0.3418 H.spc      1 <1>        0.000
     23 H           2.9268   -0.4355   -1.1657 H.spc      1 <1>        0.000
     24 H           2.0653    0.5641   -2.4762 H.spc      1 <1>        0.000
     25 H           5.5567    1.3626   -0.8565 H.spc      1 <1>        0.000
     26 H           4.4600    0.5624    0.2959 H.spc      1 <1>        0.000
     27 H           5.2483    3.3582   -0.0307 H.spc      1 <1>        0.000
     28 H           3.5962    2.7994    0.8103 H.spc      1 <1>        0.000
     29 H           6.3860    2.7748    1.7378 H.spc      1 <1>        0.000
     30 H           4.9670    1.8816    2.4840 H.spc      1 <1>        0.000
     31 H           4.9897    3.6625    3.7645 H.spc      1 <1>        0.000
     32 H           5.6552    4.7516    2.3892 H.spc      1 <1>        0.000
     33 H           0.8532    4.9242    3.0678 H.spc      1 <1>        0.000
     34 H           1.4729    4.8363    1.3117 H.spc      1 <1>        0.000
     35 H           0.6941    2.3721    1.8347 H.spc      1 <1>        0.000
     36 H          -0.5848    3.4701    2.6918 H.spc      1 <1>        0.000
     37 H          -1.4758    2.7963    0.7848 H.spc      1 <1>        0.000
     38 H          -0.6944    4.5101    0.4663 H.spc      1 <1>        0.000
@<TRIPOS>BOND
     1    7    8 1  
     2    1    2 1  
     3    5    6 1  
     4    1   14 1  
     5    4    5 1  
     6    2    3 1  
     7    3    4 1  
     8    6    7 1  
     9    5   16 2  
    10   13   14 1  
    11   12   13 1  
    12   11   12 1  
    13   11   15 2  
    14   10   11 1  
    15    9   10 1  
    16    8    9 1  
    17    1   17 1  
    18    1   18 1  
    19    2   19 1  
    20    2   20 1  
    21    3   21 1  
    22    3   22 1  
    23    4   23 1  
    24    4   24 1  
    25    6   25 1  
    26    6   26 1  
    27    7   27 1  
    28    7   28 1  
    29    8   29 1  
    30    8   30 1  
    31    9   31 1  
    32    9   32 1  
    33   12   33 1  
    34   12   34 1  
    35   13   35 1  
    36   13   36 1  
    37   14   37 1  
    38   14   38 1  
# Name:          frag5-578-42/41815 -- energy: -6.165077
# Creation time: Sat Jun  5 12:52:56 2010


@<TRIPOS>MOLECULE
frag5-578-42/41815 -- energy: -6.165077
   38    38     1     1     1
SMALL
USER_CHARGES


@<TRIPOS>ATOM
      1 C7          0.0508    1.5870    0.8377 C.3        1 <1>        0.000
      2 C8         -0.0113    0.9667   -0.5305 C.3        1 <1>        0.000
      3 C9          0.8661    1.4977   -1.6498 C.3        1 <1>        0.000
      4 C10         2.2958    1.0017   -1.7838 C.3        1 <1>        0.000
      5 C11         3.4689    1.8767   -1.2990 C.2        1 <1>        0.000
      6 C12         4.2170    1.4107   -0.0722 C.3        1 <1>        0.000
      7 C13         5.3819    2.1533    0.5551 C.3        1 <1>        0.000
      8 C14         5.3870    2.4107    2.0640 C.3        1 <1>        0.000
      9 C15         4.0671    2.5511    2.7831 C.3        1 <1>        0.000
     10 O3          3.1665    3.3829    2.1103 O.3        1 <1>        0.000
     11 C16         2.3840    4.2782    2.7248 C.2        1 <1>        0.000
     12 C17         1.3747    4.9292    1.8239 C.3        1 <1>        0.000
     13 C18         0.9635    4.0224    0.6859 C.3        1 <1>        0.000
     14 C19        -0.1865    3.0740    0.9183 C.3        1 <1>        0.000
     15 O9          2.4591    4.5557    3.9115 O.2        1 <1>        0.000
     16 O12         3.8249    2.9000   -1.8938 O.2        1 <1>        0.000
     17 H           1.0679    1.4254    1.1948 H.spc      1 <1>        0.000
     18 H          -0.7497    1.1234    1.4142 H.spc      1 <1>        0.000
     19 H          -1.0292    1.1594   -0.8695 H.spc      1 <1>        0.000
     20 H           0.3316   -0.0569   -0.3798 H.spc      1 <1>        0.000
     21 H           0.9627    2.5633   -1.4420 H.spc      1 <1>        0.000
     22 H           0.3737    1.1692   -2.5651 H.spc      1 <1>        0.000
     23 H           2.3365    0.1175   -1.1477 H.spc      1 <1>        0.000
     24 H           2.4515    0.9114   -2.8588 H.spc      1 <1>        0.000
     25 H           4.6821    0.4864   -0.4150 H.spc      1 <1>        0.000
     26 H           3.4549    1.4652    0.7052 H.spc      1 <1>        0.000
     27 H           6.2453    1.5111    0.3811 H.spc      1 <1>        0.000
     28 H           5.3518    3.1457    0.1053 H.spc      1 <1>        0.000
     29 H           5.8777    3.3766    2.1838 H.spc      1 <1>        0.000
     30 H           5.8529    1.5267    2.4995 H.spc      1 <1>        0.000
     31 H           3.6180    1.5602    2.8511 H.spc      1 <1>        0.000
     32 H           4.2651    2.9950    3.7587 H.spc      1 <1>        0.000
     33 H           0.4879    5.1584    2.4148 H.spc      1 <1>        0.000
     34 H           1.8252    5.8264    1.3993 H.spc      1 <1>        0.000
     35 H           0.6330    4.6889   -0.1107 H.spc      1 <1>        0.000
     36 H           1.8285    3.3875    0.4943 H.spc      1 <1>        0.000
     37 H          -0.4872    3.2510    1.9510 H.spc      1 <1>        0.000
     38 H          -0.8883    3.2866    0.1118 H.spc      1 <1>        0.000
@<TRIPOS>BOND
     1    7    8 1  
     2    1    2 1  
     3    5    6 1  
     4    1   14 1  
     5    4    5 1  
     6    2    3 1  
     7    3    4 1  
     8    6    7 1  
     9    5   16 2  
    10   13   14 1  
    11   12   13 1  
    12   11   12 1  
    13   11   15 2  
    14   10   11 1  
    15    9   10 1  
    16    8    9 1  
    17    1   17 1  
    18    1   18 1  
    19    2   19 1  
    20    2   20 1  
    21    3   21 1  
    22    3   22 1  
    23    4   23 1  
    24    4   24 1  
    25    6   25 1  
    26    6   26 1  
    27    7   27 1  
    28    7   28 1  
    29    8   29 1  
    30    8   30 1  
    31    9   31 1  
    32    9   32 1  
    33   12   33 1  
    34   12   34 1  
    35   13   35 1  
    36   13   36 1  
    37   14   37 1  
    38   14   38 1  
# Name:          frag5-578-42/41815 -- energy: -4.878458
# Creation time: Sat Jun  5 12:52:56 2010


@<TRIPOS>MOLECULE
frag5-578-42/41815 -- energy: -4.878458
   38    38     1     1     1
SMALL
USER_CHARGES


@<TRIPOS>ATOM
      1 C7         -0.8413    2.1366   -0.2432 C.3        1 <1>        0.000
      2 C8          0.0188    0.9417   -0.6285 C.3        1 <1>        0.000
      3 C9          1.5326    0.9828   -0.6448 C.3        1 <1>        0.000
      4 C10         2.2924    1.4208   -1.8792 C.3        1 <1>        0.000
      5 C11         3.7445    1.7586   -1.6972 C.2        1 <1>        0.000
      6 C12         4.2146    2.6215   -0.5661 C.3        1 <1>        0.000
      7 C13         4.6401    1.8596    0.6687 C.3        1 <1>        0.000
      8 C14         5.4283    2.5892    1.7349 C.3        1 <1>        0.000
      9 C15         4.6548    3.4457    2.7136 C.3        1 <1>        0.000
     10 O3          3.2636    3.2050    2.7440 O.3        1 <1>        0.000
     11 C16         2.4329    4.2291    3.0076 C.2        1 <1>        0.000
     12 C17         0.9697    3.9835    2.7739 C.3        1 <1>        0.000
     13 C18         0.6159    3.7681    1.3196 C.3        1 <1>        0.000
     14 C19        -0.6415    2.9707    1.0189 C.3        1 <1>        0.000
     15 O9          2.8051    5.3367    3.3744 O.2        1 <1>        0.000
     16 O12         4.5790    1.3485   -2.5109 O.2        1 <1>        0.000
     17 H          -1.8176    1.6819   -0.0751 H.spc      1 <1>        0.000
     18 H          -0.6238    2.8513   -1.0369 H.spc      1 <1>        0.000
     19 H          -0.2355    0.7816   -1.6763 H.spc      1 <1>        0.000
     20 H          -0.2004    0.2164    0.1550 H.spc      1 <1>        0.000
     21 H           1.8250   -0.0589   -0.5123 H.spc      1 <1>        0.000
     22 H           1.7828    1.7387    0.0995 H.spc      1 <1>        0.000
     23 H           2.2662    0.5725   -2.5631 H.spc      1 <1>        0.000
     24 H           1.8117    2.3393   -2.2160 H.spc      1 <1>        0.000
     25 H           3.3753    3.2541   -0.2772 H.spc      1 <1>        0.000
     26 H           5.0892    3.1659   -0.9223 H.spc      1 <1>        0.000
     27 H           3.7102    1.5647    1.1549 H.spc      1 <1>        0.000
     28 H           5.3091    1.0798    0.3047 H.spc      1 <1>        0.000
     29 H           6.0821    3.2761    1.1975 H.spc      1 <1>        0.000
     30 H           5.8993    1.8109    2.3353 H.spc      1 <1>        0.000
     31 H           5.0371    3.2128    3.7074 H.spc      1 <1>        0.000
     32 H           4.7891    4.4813    2.4013 H.spc      1 <1>        0.000
     33 H           0.7008    3.0753    3.3133 H.spc      1 <1>        0.000
     34 H           0.4318    4.8687    3.1132 H.spc      1 <1>        0.000
     35 H           0.4401    4.7622    0.9085 H.spc      1 <1>        0.000
     36 H           1.4390    3.1910    0.8982 H.spc      1 <1>        0.000
     37 H          -0.6429    2.2179    1.8072 H.spc      1 <1>        0.000
     38 H          -1.3996    3.7471    0.9164 H.spc      1 <1>        0.000
@<TRIPOS>BOND
     1    7    8 1  
     2    1    2 1  
     3    5    6 1  
     4    1   14 1  
     5    4    5 1  
     6    2    3 1  
     7    3    4 1  
     8    6    7 1  
     9    5   16 2  
    10   13   14 1  
    11   12   13 1  
    12   11   12 1  
    13   11   15 2  
    14   10   11 1  
    15    9   10 1  
    16    8    9 1  
    17    1   17 1  
    18    1   18 1  
    19    2   19 1  
    20    2   20 1  
    21    3   21 1  
    22    3   22 1  
    23    4   23 1  
    24    4   24 1  
    25    6   25 1  
    26    6   26 1  
    27    7   27 1  
    28    7   28 1  
    29    8   29 1  
    30    8   30 1  
    31    9   31 1  
    32    9   32 1  
    33   12   33 1  
    34   12   34 1  
    35   13   35 1  
    36   13   36 1  
    37   14   37 1  
    38   14   38 1  
# Name:          frag5-578-42/41815 -- energy: -7.362186
# Creation time: Sat Jun  5 12:52:56 2010


@<TRIPOS>MOLECULE
frag5-578-42/41815 -- energy: -7.362186
   38    38     1     1     1
SMALL
USER_CHARGES


@<TRIPOS>ATOM
      1 C7         -0.7131    2.1882   -0.0066 C.3        1 <1>        0.000
      2 C8          0.1556    2.3245   -1.2472 C.3        1 <1>        0.000
      3 C9          1.6557    2.4377   -1.1266 C.3        1 <1>        0.000
      4 C10         2.4786    1.2176   -1.4466 C.3        1 <1>        0.000
      5 C11         3.7586    1.1463   -0.6327 C.2        1 <1>        0.000
      6 C12         5.0255    1.8727   -1.0805 C.3        1 <1>        0.000
      7 C13         5.8158    2.7545   -0.1066 C.3        1 <1>        0.000
      8 C14         5.1855    3.9752    0.5789 C.3        1 <1>        0.000
      9 C15         4.3542    3.8378    1.8582 C.3        1 <1>        0.000
     10 O3          3.1404    3.1368    1.7943 O.3        1 <1>        0.000
     11 C16         2.3317    3.2785    2.8706 C.2        1 <1>        0.000
     12 C17         0.8660    2.9390    2.7273 C.3        1 <1>        0.000
     13 C18         0.1675    3.8714    1.7611 C.3        1 <1>        0.000
     14 C19        -0.9839    3.3802    0.8993 C.3        1 <1>        0.000
     15 O9          2.7085    3.7447    3.9288 O.2        1 <1>        0.000
     16 O12         3.7627    0.4931    0.4140 O.2        1 <1>        0.000
     17 H          -0.1592    1.4961    0.6277 H.spc      1 <1>        0.000
     18 H          -1.6957    1.9286   -0.4006 H.spc      1 <1>        0.000
     19 H          -0.1500    3.2750   -1.6845 H.spc      1 <1>        0.000
     20 H           0.0004    1.3899   -1.7863 H.spc      1 <1>        0.000
     21 H           1.8482    2.6515   -0.0752 H.spc      1 <1>        0.000
     22 H           1.9511    3.1887   -1.8593 H.spc      1 <1>        0.000
     23 H           1.8805    0.3379   -1.2087 H.spc      1 <1>        0.000
     24 H           2.7535    1.2654   -2.5003 H.spc      1 <1>        0.000
     25 H           4.6758    2.5686   -1.8431 H.spc      1 <1>        0.000
     26 H           5.7174    1.0682   -1.3299 H.spc      1 <1>        0.000
     27 H           6.0416    2.0832    0.7219 H.spc      1 <1>        0.000
     28 H           6.5993    3.1861   -0.7294 H.spc      1 <1>        0.000
     29 H           4.4707    4.3450   -0.1562 H.spc      1 <1>        0.000
     30 H           6.0443    4.5698    0.8904 H.spc      1 <1>        0.000
     31 H           4.9786    3.2655    2.5443 H.spc      1 <1>        0.000
     32 H           4.0812    4.8569    2.1321 H.spc      1 <1>        0.000
     33 H           0.7849    1.9223    2.3429 H.spc      1 <1>        0.000
     34 H           0.3930    3.0394    3.7042 H.spc      1 <1>        0.000
     35 H          -0.2845    4.6283    2.4021 H.spc      1 <1>        0.000
     36 H           0.9423    4.1383    1.0424 H.spc      1 <1>        0.000
     37 H          -1.7570    3.0542    1.5951 H.spc      1 <1>        0.000
     38 H          -1.2306    4.2079    0.2344 H.spc      1 <1>        0.000
@<TRIPOS>BOND
     1    7    8 1  
     2    1    2 1  
     3    5    6 1  
     4    1   14 1  
     5    4    5 1  
     6    2    3 1  
     7    3    4 1  
     8    6    7 1  
     9    5   16 2  
    10   13   14 1  
    11   12   13 1  
    12   11   12 1  
    13   11   15 2  
    14   10   11 1  
    15    9   10 1  
    16    8    9 1  
    17    1   17 1  
    18    1   18 1  
    19    2   19 1  
    20    2   20 1  
    21    3   21 1  
    22    3   22 1  
    23    4   23 1  
    24    4   24 1  
    25    6   25 1  
    26    6   26 1  
    27    7   27 1  
    28    7   28 1  
    29    8   29 1  
    30    8   30 1  
    31    9   31 1  
    32    9   32 1  
    33   12   33 1  
    34   12   34 1  
    35   13   35 1  
    36   13   36 1  
    37   14   37 1  
    38   14   38 1  
# Name:          frag5-578-42/41815 -- energy: -6.659419
# Creation time: Sat Jun  5 12:52:56 2010


@<TRIPOS>MOLECULE
frag5-578-42/41815 -- energy: -6.659419
   38    38     1     1     1
SMALL
USER_CHARGES


@<TRIPOS>ATOM
      1 C7          0.2012    2.8106   -0.2179 C.3        1 <1>        0.000
      2 C8         -0.0121    2.0011   -1.4817 C.3        1 <1>        0.000
      3 C9          1.0131    1.0044   -1.9863 C.3        1 <1>        0.000
      4 C10         2.4280    1.4303   -2.3111 C.3        1 <1>        0.000
      5 C11         3.4644    1.4721   -1.1906 C.2        1 <1>        0.000
      6 C12         4.4768    2.6094   -1.1183 C.3        1 <1>        0.000
      7 C13         4.6703    3.3646    0.1756 C.3        1 <1>        0.000
      8 C14         5.2784    2.7776    1.4385 C.3        1 <1>        0.000
      9 C15         4.6179    3.1901    2.7446 C.3        1 <1>        0.000
     10 O3          3.2147    3.0587    2.7468 O.3        1 <1>        0.000
     11 C16         2.4636    4.1286    3.0365 C.2        1 <1>        0.000
     12 C17         1.0520    4.1534    2.5263 C.3        1 <1>        0.000
     13 C18         0.3417    2.8225    2.4385 C.3        1 <1>        0.000
     14 C19         0.0921    2.1097    1.1190 C.3        1 <1>        0.000
     15 O9          2.8844    5.1121    3.6501 O.2        1 <1>        0.000
     16 O12         3.5231    0.5528   -0.3842 O.2        1 <1>        0.000
     17 H          -0.5988    3.5509   -0.2165 H.spc      1 <1>        0.000
     18 H           1.2332    3.1571   -0.2734 H.spc      1 <1>        0.000
     19 H          -0.0395    2.7571   -2.2664 H.spc      1 <1>        0.000
     20 H          -0.8751    1.3795   -1.2430 H.spc      1 <1>        0.000
     21 H           0.6110    0.6772   -2.9452 H.spc      1 <1>        0.000
     22 H           1.1328    0.3082   -1.1562 H.spc      1 <1>        0.000
     23 H           2.7960    0.6752   -3.0058 H.spc      1 <1>        0.000
     24 H           2.3396    2.4624   -2.6503 H.spc      1 <1>        0.000
     25 H           4.0991    3.3562   -1.8167 H.spc      1 <1>        0.000
     26 H           5.4388    2.1309   -1.3019 H.spc      1 <1>        0.000
     27 H           5.3992    4.1253   -0.1038 H.spc      1 <1>        0.000
     28 H           3.6448    3.5698    0.4828 H.spc      1 <1>        0.000
     29 H           6.3047    3.1419    1.4841 H.spc      1 <1>        0.000
     30 H           5.1617    1.6965    1.3626 H.spc      1 <1>        0.000
     31 H           5.0045    2.5324    3.5231 H.spc      1 <1>        0.000
     32 H           4.8431    4.2451    2.9006 H.spc      1 <1>        0.000
     33 H           0.4844    4.7514    3.2393 H.spc      1 <1>        0.000
     34 H           1.1070    4.5334    1.5062 H.spc      1 <1>        0.000
     35 H           1.0132    2.1450    2.9660 H.spc      1 <1>        0.000
     36 H          -0.6632    3.0510    2.7937 H.spc      1 <1>        0.000
     37 H           0.8884    1.3665    1.0796 H.spc      1 <1>        0.000
     38 H          -0.9618    1.8371    1.1753 H.spc      1 <1>        0.000
@<TRIPOS>BOND
     1    7    8 1  
     2    1    2 1  
     3    5    6 1  
     4    1   14 1  
     5    4    5 1  
     6    2    3 1  
     7    3    4 1  
     8    6    7 1  
     9    5   16 2  
    10   13   14 1  
    11   12   13 1  
    12   11   12 1  
    13   11   15 2  
    14   10   11 1  
    15    9   10 1  
    16    8    9 1  
    17    1   17 1  
    18    1   18 1  
    19    2   19 1  
    20    2   20 1  
    21    3   21 1  
    22    3   22 1  
    23    4   23 1  
    24    4   24 1  
    25    6   25 1  
    26    6   26 1  
    27    7   27 1  
    28    7   28 1  
    29    8   29 1  
    30    8   30 1  
    31    9   31 1  
    32    9   32 1  
    33   12   33 1  
    34   12   34 1  
    35   13   35 1  
    36   13   36 1  
    37   14   37 1  
    38   14   38 1  
# Name:          frag5-578-42/41815 -- energy: -6.469858
# Creation time: Sat Jun  5 12:52:56 2010


@<TRIPOS>MOLECULE
frag5-578-42/41815 -- energy: -6.469858
   38    38     1     1     1
SMALL
USER_CHARGES


@<TRIPOS>ATOM
      1 C7         -0.6995    2.7122   -0.2651 C.3        1 <1>        0.000
      2 C8          0.5868    2.3903   -1.0205 C.3        1 <1>        0.000
      3 C9          1.2141    1.0372   -0.7101 C.3        1 <1>        0.000
      4 C10         2.5734    0.6985   -1.2805 C.3        1 <1>        0.000
      5 C11         3.8251    1.2385   -0.6330 C.2        1 <1>        0.000
      6 C12         4.4842    2.5039   -1.1363 C.3        1 <1>        0.000
      7 C13         4.1643    3.8175   -0.4653 C.3        1 <1>        0.000
      8 C14         4.9755    4.1770    0.7774 C.3        1 <1>        0.000
      9 C15         4.7004    3.3295    2.0027 C.3        1 <1>        0.000
     10 O3          3.4223    2.7365    1.9656 O.3        1 <1>        0.000
     11 C16         2.4890    3.0167    2.8770 C.2        1 <1>        0.000
     12 C17         1.0491    2.8670    2.4242 C.3        1 <1>        0.000
     13 C18         0.4825    4.0925    1.6944 C.3        1 <1>        0.000
     14 C19        -0.6324    3.9237    0.6571 C.3        1 <1>        0.000
     15 O9          2.7479    3.4516    3.9969 O.2        1 <1>        0.000
     16 O12         4.3268    0.6055    0.3011 O.2        1 <1>        0.000
     17 H          -0.9114    1.8509    0.3685 H.spc      1 <1>        0.000
     18 H          -1.4543    2.9369   -1.0187 H.spc      1 <1>        0.000
     19 H           1.3160    3.1440   -0.7236 H.spc      1 <1>        0.000
     20 H           0.3275    2.3748   -2.0791 H.spc      1 <1>        0.000
     21 H           0.5371    0.3092   -1.1571 H.spc      1 <1>        0.000
     22 H           1.3603    1.0411    0.3700 H.spc      1 <1>        0.000
     23 H           2.6537   -0.3824   -1.1650 H.spc      1 <1>        0.000
     24 H           2.5687    1.1453   -2.2747 H.spc      1 <1>        0.000
     25 H           4.1250    2.6180   -2.1591 H.spc      1 <1>        0.000
     26 H           5.5493    2.3528   -0.9607 H.spc      1 <1>        0.000
     27 H           4.3890    4.5898   -1.2009 H.spc      1 <1>        0.000
     28 H           3.1296    3.7372   -0.1322 H.spc      1 <1>        0.000
     29 H           4.7048    5.1997    1.0399 H.spc      1 <1>        0.000
     30 H           6.0232    4.0207    0.5204 H.spc      1 <1>        0.000
     31 H           5.4428    2.5321    2.0365 H.spc      1 <1>        0.000
     32 H           4.7485    3.9757    2.8791 H.spc      1 <1>        0.000
     33 H           1.0201    2.0346    1.7211 H.spc      1 <1>        0.000
     34 H           0.4458    2.7214    3.3203 H.spc      1 <1>        0.000
     35 H           0.0298    4.6927    2.4837 H.spc      1 <1>        0.000
     36 H           1.3259    4.4827    1.1248 H.spc      1 <1>        0.000
     37 H          -1.5347    3.8357    1.2623 H.spc      1 <1>        0.000
     38 H          -0.4753    4.7581   -0.0265 H.spc      1 <1>        0.000
@<TRIPOS>BOND
     1    7    8 1  
     2    1    2 1  
     3    5    6 1  
     4    1   14 1  
     5    4    5 1  
     6    2    3 1  
     7    3    4 1  
     8    6    7 1  
     9    5   16 2  
    10   13   14 1  
    11   12   13 1  
    12   11   12 1  
    13   11   15 2  
    14   10   11 1  
    15    9   10 1  
    16    8    9 1  
    17    1   17 1  
    18    1   18 1  
    19    2   19 1  
    20    2   20 1  
    21    3   21 1  
    22    3   22 1  
    23    4   23 1  
    24    4   24 1  
    25    6   25 1  
    26    6   26 1  
    27    7   27 1  
    28    7   28 1  
    29    8   29 1  
    30    8   30 1  
    31    9   31 1  
    32    9   32 1  
    33   12   33 1  
    34   12   34 1  
    35   13   35 1  
    36   13   36 1  
    37   14   37 1  
    38   14   38 1  
# Name:          frag5-578-42/41815 -- energy: -7.232955
# Creation time: Sat Jun  5 12:52:56 2010


@<TRIPOS>MOLECULE
frag5-578-42/41815 -- energy: -7.232955
   38    38     1     1     1
SMALL
USER_CHARGES


@<TRIPOS>ATOM
      1 C7         -0.6741    2.4185   -0.0532 C.3        1 <1>        0.000
      2 C8          0.2938    2.5753   -1.2036 C.3        1 <1>        0.000
      3 C9          1.7689    2.3149   -1.0526 C.3        1 <1>        0.000
      4 C10         2.3378    0.9236   -0.9488 C.3        1 <1>        0.000
      5 C11         3.8462    0.8901   -0.8088 C.2        1 <1>        0.000
      6 C12         4.5225    1.6862    0.2755 C.3        1 <1>        0.000
      7 C13         5.0945    3.0087   -0.1772 C.3        1 <1>        0.000
      8 C14         5.0475    4.2314    0.7127 C.3        1 <1>        0.000
      9 C15         4.4063    4.2161    2.0839 C.3        1 <1>        0.000
     10 O3          2.9982    4.1361    2.1367 O.3        1 <1>        0.000
     11 C16         2.3935    3.1293    2.7865 C.2        1 <1>        0.000
     12 C17         0.8935    3.0586    2.7893 C.3        1 <1>        0.000
     13 C18         0.1497    4.0261    1.9019 C.3        1 <1>        0.000
     14 C19        -0.9113    3.5289    0.9582 C.3        1 <1>        0.000
     15 O9          3.0206    2.2433    3.3683 O.2        1 <1>        0.000
     16 O12         4.5219    0.2112   -1.5832 O.2        1 <1>        0.000
     17 H          -0.2354    1.6185    0.5432 H.spc      1 <1>        0.000
     18 H          -1.6407    2.3095   -0.5450 H.spc      1 <1>        0.000
     19 H           0.2455    3.6397   -1.4335 H.spc      1 <1>        0.000
     20 H          -0.0280    1.8125   -1.9126 H.spc      1 <1>        0.000
     21 H           2.0057    2.7574   -0.0850 H.spc      1 <1>        0.000
     22 H           2.1885    2.6903   -1.9859 H.spc      1 <1>        0.000
     23 H           1.9175    0.4660   -0.0532 H.spc      1 <1>        0.000
     24 H           2.0846    0.3988   -1.8700 H.spc      1 <1>        0.000
     25 H           5.3576    1.0858    0.6364 H.spc      1 <1>        0.000
     26 H           3.7642    1.9085    1.0263 H.spc      1 <1>        0.000
     27 H           6.1599    2.8081   -0.2905 H.spc      1 <1>        0.000
     28 H           4.4758    3.2828   -1.0317 H.spc      1 <1>        0.000
     29 H           4.4248    4.9279    0.1512 H.spc      1 <1>        0.000
     30 H           6.0980    4.4268    0.9280 H.spc      1 <1>        0.000
     31 H           4.7725    3.3128    2.5717 H.spc      1 <1>        0.000
     32 H           4.6659    5.1702    2.5426 H.spc      1 <1>        0.000
     33 H           0.6456    2.0657    2.4140 H.spc      1 <1>        0.000
     34 H           0.5899    3.3012    3.8077 H.spc      1 <1>        0.000
     35 H          -0.3879    4.6712    2.5968 H.spc      1 <1>        0.000
     36 H           0.9187    4.4401    1.2497 H.spc      1 <1>        0.000
     37 H          -1.6539    3.0965    1.6287 H.spc      1 <1>        0.000
     38 H          -1.1074    4.3971    0.3290 H.spc      1 <1>        0.000
@<TRIPOS>BOND
     1    7    8 1  
     2    1    2 1  
     3    5    6 1  
     4    1   14 1  
     5    4    5 1  
     6    2    3 1  
     7    3    4 1  
     8    6    7 1  
     9    5   16 2  
    10   13   14 1  
    11   12   13 1  
    12   11   12 1  
    13   11   15 2  
    14   10   11 1  
    15    9   10 1  
    16    8    9 1  
    17    1   17 1  
    18    1   18 1  
    19    2   19 1  
    20    2   20 1  
    21    3   21 1  
    22    3   22 1  
    23    4   23 1  
    24    4   24 1  
    25    6   25 1  
    26    6   26 1  
    27    7   27 1  
    28    7   28 1  
    29    8   29 1  
    30    8   30 1  
    31    9   31 1  
    32    9   32 1  
    33   12   33 1  
    34   12   34 1  
    35   13   35 1  
    36   13   36 1  
    37   14   37 1  
    38   14   38 1  
# Name:          frag5-578-42/41815 -- energy: -6.104623
# Creation time: Sat Jun  5 12:52:56 2010


@<TRIPOS>MOLECULE
frag5-578-42/41815 -- energy: -6.104623
   38    38     1     1     1
SMALL
USER_CHARGES


@<TRIPOS>ATOM
      1 C7         -0.4419    1.8903    0.1678 C.3        1 <1>        0.000
      2 C8          0.3240    2.0962   -1.1317 C.3        1 <1>        0.000
      3 C9          1.0596    0.9437   -1.7667 C.3        1 <1>        0.000
      4 C10         2.4765    0.5720   -1.3909 C.3        1 <1>        0.000
      5 C11         3.6722    1.4781   -1.6288 C.2        1 <1>        0.000
      6 C12         4.7957    1.6288   -0.6030 C.3        1 <1>        0.000
      7 C13         4.3522    1.9481    0.8037 C.3        1 <1>        0.000
      8 C14         5.2561    2.6563    1.7943 C.3        1 <1>        0.000
      9 C15         4.5858    3.5523    2.8283 C.3        1 <1>        0.000
     10 O3          3.4587    4.2616    2.3686 O.3        1 <1>        0.000
     11 C16         2.3290    4.2945    3.0997 C.2        1 <1>        0.000
     12 C17         1.1028    4.7894    2.3989 C.3        1 <1>        0.000
     13 C18         0.6422    3.9339    1.2591 C.3        1 <1>        0.000
     14 C19         0.0723    2.5450    1.4316 C.3        1 <1>        0.000
     15 O9          2.2497    3.9395    4.2673 O.2        1 <1>        0.000
     16 O12         3.7746    2.0687   -2.7126 O.2        1 <1>        0.000
     17 H          -0.3842    0.8193    0.3620 H.spc      1 <1>        0.000
     18 H          -1.4184    2.3423   -0.0062 H.spc      1 <1>        0.000
     19 H           1.1069    2.8099   -0.8754 H.spc      1 <1>        0.000
     20 H          -0.4424    2.3632   -1.8593 H.spc      1 <1>        0.000
     21 H           1.1486    1.2475   -2.8097 H.spc      1 <1>        0.000
     22 H           0.4812    0.0744   -1.4537 H.spc      1 <1>        0.000
     23 H           2.4318    0.5072   -0.3038 H.spc      1 <1>        0.000
     24 H           2.6845   -0.2813   -2.0365 H.spc      1 <1>        0.000
     25 H           5.4075    2.4681   -0.9337 H.spc      1 <1>        0.000
     26 H           5.3052    0.6663   -0.5570 H.spc      1 <1>        0.000
     27 H           3.5323    2.6516    0.6589 H.spc      1 <1>        0.000
     28 H           4.2021    0.9662    1.2526 H.spc      1 <1>        0.000
     29 H           5.8909    3.3131    1.1996 H.spc      1 <1>        0.000
     30 H           5.7505    1.8675    2.3613 H.spc      1 <1>        0.000
     31 H           4.2389    2.8996    3.6294 H.spc      1 <1>        0.000
     32 H           5.3252    4.2972    3.1226 H.spc      1 <1>        0.000
     33 H           0.2987    4.7958    3.1348 H.spc      1 <1>        0.000
     34 H           1.3490    5.7660    1.9821 H.spc      1 <1>        0.000
     35 H          -0.2025    4.4953    0.8597 H.spc      1 <1>        0.000
     36 H           1.5627    3.7517    0.7045 H.spc      1 <1>        0.000
     37 H           0.8862    1.9186    1.7966 H.spc      1 <1>        0.000
     38 H          -0.7824    2.6411    2.1012 H.spc      1 <1>        0.000
@<TRIPOS>BOND
     1    7    8 1  
     2    1    2 1  
     3    5    6 1  
     4    1   14 1  
     5    4    5 1  
     6    2    3 1  
     7    3    4 1  
     8    6    7 1  
     9    5   16 2  
    10   13   14 1  
    11   12   13 1  
    12   11   12 1  
    13   11   15 2  
    14   10   11 1  
    15    9   10 1  
    16    8    9 1  
    17    1   17 1  
    18    1   18 1  
    19    2   19 1  
    20    2   20 1  
    21    3   21 1  
    22    3   22 1  
    23    4   23 1  
    24    4   24 1  
    25    6   25 1  
    26    6   26 1  
    27    7   27 1  
    28    7   28 1  
    29    8   29 1  
    30    8   30 1  
    31    9   31 1  
    32    9   32 1  
    33   12   33 1  
    34   12   34 1  
    35   13   35 1  
    36   13   36 1  
    37   14   37 1  
    38   14   38 1  
# Name:          frag5-578-42/41815 -- energy: -6.048194
# Creation time: Sat Jun  5 12:52:56 2010


@<TRIPOS>MOLECULE
frag5-578-42/41815 -- energy: -6.048194
   38    38     1     1     1
SMALL
USER_CHARGES


@<TRIPOS>ATOM
      1 C7         -0.1786    3.0579   -0.2640 C.3        1 <1>        0.000
      2 C8          1.1730    2.6293   -0.7958 C.3        1 <1>        0.000
      3 C9          1.2872    1.7372   -2.0172 C.3        1 <1>        0.000
      4 C10         2.5835    1.0219   -2.3263 C.3        1 <1>        0.000
      5 C11         3.6042    0.9103   -1.2080 C.2        1 <1>        0.000
      6 C12         4.4812    2.1124   -0.9462 C.3        1 <1>        0.000
      7 C13         5.1372    2.3809    0.3817 C.3        1 <1>        0.000
      8 C14         5.0857    3.8411    0.8084 C.3        1 <1>        0.000
      9 C15         4.1131    4.2742    1.8866 C.3        1 <1>        0.000
     10 O3          2.9261    3.5365    2.0566 O.3        1 <1>        0.000
     11 C16         2.2422    3.7433    3.2029 C.2        1 <1>        0.000
     12 C17         0.9632    2.9960    3.4516 C.3        1 <1>        0.000
     13 C18         0.2122    2.4858    2.2472 C.3        1 <1>        0.000
     14 C19        -0.2502    3.4700    1.1901 C.3        1 <1>        0.000
     15 O9          2.6220    4.5291    4.0711 O.2        1 <1>        0.000
     16 O12         3.7073   -0.1276   -0.5529 O.2        1 <1>        0.000
     17 H          -0.8236    2.1841   -0.3562 H.spc      1 <1>        0.000
     18 H          -0.4548    3.9433   -0.8366 H.spc      1 <1>        0.000
     19 H           1.5947    2.0283    0.0099 H.spc      1 <1>        0.000
     20 H           1.6421    3.5629   -1.1065 H.spc      1 <1>        0.000
     21 H           1.1473    2.4153   -2.8591 H.spc      1 <1>        0.000
     22 H           0.5750    0.9335   -1.8303 H.spc      1 <1>        0.000
     23 H           2.3029   -0.0024   -2.5716 H.spc      1 <1>        0.000
     24 H           3.0655    1.6108   -3.1067 H.spc      1 <1>        0.000
     25 H           3.7910    2.9492   -1.0538 H.spc      1 <1>        0.000
     26 H           5.3291    1.9485   -1.6113 H.spc      1 <1>        0.000
     27 H           4.5984    1.8036    1.1330 H.spc      1 <1>        0.000
     28 H           6.1879    2.1070    0.2864 H.spc      1 <1>        0.000
     29 H           4.7634    4.3773   -0.0842 H.spc      1 <1>        0.000
     30 H           6.0708    4.0390    1.2310 H.spc      1 <1>        0.000
     31 H           4.6571    4.1586    2.8241 H.spc      1 <1>        0.000
     32 H           3.7885    5.2725    1.5931 H.spc      1 <1>        0.000
     33 H           1.2460    2.1095    4.0193 H.spc      1 <1>        0.000
     34 H           0.2950    3.7089    3.9348 H.spc      1 <1>        0.000
     35 H           0.9199    1.8361    1.7323 H.spc      1 <1>        0.000
     36 H          -0.7059    2.0594    2.6515 H.spc      1 <1>        0.000
     37 H          -1.3106    3.6241    1.3898 H.spc      1 <1>        0.000
     38 H           0.4263    4.3201    1.2781 H.spc      1 <1>        0.000
@<TRIPOS>BOND
     1    7    8 1  
     2    1    2 1  
     3    5    6 1  
     4    1   14 1  
     5    4    5 1  
     6    2    3 1  
     7    3    4 1  
     8    6    7 1  
     9    5   16 2  
    10   13   14 1  
    11   12   13 1  
    12   11   12 1  
    13   11   15 2  
    14   10   11 1  
    15    9   10 1  
    16    8    9 1  
    17    1   17 1  
    18    1   18 1  
    19    2   19 1  
    20    2   20 1  
    21    3   21 1  
    22    3   22 1  
    23    4   23 1  
    24    4   24 1  
    25    6   25 1  
    26    6   26 1  
    27    7   27 1  
    28    7   28 1  
    29    8   29 1  
    30    8   30 1  
    31    9   31 1  
    32    9   32 1  
    33   12   33 1  
    34   12   34 1  
    35   13   35 1  
    36   13   36 1  
    37   14   37 1  
    38   14   38 1  
# Name:          frag5-578-42/41815 -- energy: -6.612634
# Creation time: Sat Jun  5 12:52:56 2010


@<TRIPOS>MOLECULE
frag5-578-42/41815 -- energy: -6.612634
   38    38     1     1     1
SMALL
USER_CHARGES


@<TRIPOS>ATOM
      1 C7         -0.2806    2.4937    0.1122 C.3        1 <1>        0.000
      2 C8          0.5278    2.5930   -1.1637 C.3        1 <1>        0.000
      3 C9          1.1442    1.3479   -1.7622 C.3        1 <1>        0.000
      4 C10         2.4433    1.4785   -2.5122 C.3        1 <1>        0.000
      5 C11         3.6972    1.3074   -1.6939 C.2        1 <1>        0.000
      6 C12         4.3284    2.4558   -0.9540 C.3        1 <1>        0.000
      7 C13         4.0512    2.4719    0.5226 C.3        1 <1>        0.000
      8 C14         5.0558    3.0839    1.4790 C.3        1 <1>        0.000
      9 C15         4.5620    3.4983    2.8623 C.3        1 <1>        0.000
     10 O3          3.2007    3.2605    3.1235 O.3        1 <1>        0.000
     11 C16         2.3675    4.3129    2.9955 C.2        1 <1>        0.000
     12 C17         0.9255    4.0796    2.6624 C.3        1 <1>        0.000
     13 C18         0.3857    2.6660    2.6467 C.3        1 <1>        0.000
     14 C19         0.3595    1.8847    1.3471 C.3        1 <1>        0.000
     15 O9          2.7546    5.4771    3.0920 O.2        1 <1>        0.000
     16 O12         4.1864    0.1869   -1.5716 O.2        1 <1>        0.000
     17 H          -1.1077    1.8270   -0.1318 H.spc      1 <1>        0.000
     18 H          -0.4951    3.5260    0.3885 H.spc      1 <1>        0.000
     19 H           1.3790    3.2210   -0.9007 H.spc      1 <1>        0.000
     20 H          -0.1854    2.9337   -1.9143 H.spc      1 <1>        0.000
     21 H           0.4225    0.9996   -2.5010 H.spc      1 <1>        0.000
     22 H           1.3697    0.7045   -0.9117 H.spc      1 <1>        0.000
     23 H           2.4503    0.6803   -3.2544 H.spc      1 <1>        0.000
     24 H           2.4698    2.4950   -2.9048 H.spc      1 <1>        0.000
     25 H           3.9077    3.3722   -1.3679 H.spc      1 <1>        0.000
     26 H           5.4073    2.3595   -1.0754 H.spc      1 <1>        0.000
     27 H           3.1636    3.0961    0.6253 H.spc      1 <1>        0.000
     28 H           4.0154    1.4193    0.8035 H.spc      1 <1>        0.000
     29 H           5.3878    4.0055    1.0010 H.spc      1 <1>        0.000
     30 H           5.7987    2.3063    1.6567 H.spc      1 <1>        0.000
     31 H           5.1222    2.9000    3.5809 H.spc      1 <1>        0.000
     32 H           4.7042    4.5769    2.9293 H.spc      1 <1>        0.000
     33 H           0.3727    4.5787    3.4583 H.spc      1 <1>        0.000
     34 H           0.8180    4.4290    1.6355 H.spc      1 <1>        0.000
     35 H           1.0642    2.1059    3.2901 H.spc      1 <1>        0.000
     36 H          -0.6628    2.7694    2.9260 H.spc      1 <1>        0.000
     37 H           1.4091    1.7629    1.0796 H.spc      1 <1>        0.000
     38 H          -0.2495    1.0078    1.5670 H.spc      1 <1>        0.000
@<TRIPOS>BOND
     1    7    8 1  
     2    1    2 1  
     3    5    6 1  
     4    1   14 1  
     5    4    5 1  
     6    2    3 1  
     7    3    4 1  
     8    6    7 1  
     9    5   16 2  
    10   13   14 1  
    11   12   13 1  
    12   11   12 1  
    13   11   15 2  
    14   10   11 1  
    15    9   10 1  
    16    8    9 1  
    17    1   17 1  
    18    1   18 1  
    19    2   19 1  
    20    2   20 1  
    21    3   21 1  
    22    3   22 1  
    23    4   23 1  
    24    4   24 1  
    25    6   25 1  
    26    6   26 1  
    27    7   27 1  
    28    7   28 1  
    29    8   29 1  
    30    8   30 1  
    31    9   31 1  
    32    9   32 1  
    33   12   33 1  
    34   12   34 1  
    35   13   35 1  
    36   13   36 1  
    37   14   37 1  
    38   14   38 1  
# Name:          frag5-578-42/41815 -- energy: -7.200170
# Creation time: Sat Jun  5 12:52:56 2010


@<TRIPOS>MOLECULE
frag5-578-42/41815 -- energy: -7.200170
   38    38     1     1     1
SMALL
USER_CHARGES


@<TRIPOS>ATOM
      1 C7          0.5697    1.6157    0.3788 C.3        1 <1>        0.000
      2 C8          0.4273    2.2239   -1.0146 C.3        1 <1>        0.000
      3 C9          1.0260    1.5564   -2.2184 C.3        1 <1>        0.000
      4 C10         2.5123    1.4380   -2.4246 C.3        1 <1>        0.000
      5 C11         3.4739    1.4911   -1.2419 C.2        1 <1>        0.000
      6 C12         4.2226    2.7697   -0.9559 C.3        1 <1>        0.000
      7 C13         5.3555    2.8477    0.0576 C.3        1 <1>        0.000
      8 C14         5.2381    2.4377    1.5104 C.3        1 <1>        0.000
      9 C15         4.3570    3.2036    2.4571 C.3        1 <1>        0.000
     10 O3          2.9838    3.3566    2.1369 O.3        1 <1>        0.000
     11 C16         2.2741    4.0495    3.0359 C.2        1 <1>        0.000
     12 C17         0.8774    4.5087    2.7246 C.3        1 <1>        0.000
     13 C18         0.1099    3.8500    1.6200 C.3        1 <1>        0.000
     14 C19        -0.0815    2.3487    1.5396 C.3        1 <1>        0.000
     15 O9          2.7312    4.4098    4.1192 O.2        1 <1>        0.000
     16 O12         3.6323    0.4910   -0.5391 O.2        1 <1>        0.000
     17 H           1.6386    1.6229    0.5922 H.spc      1 <1>        0.000
     18 H           0.0696    0.6486    0.3273 H.spc      1 <1>        0.000
     19 H           0.9638    3.1702   -0.9446 H.spc      1 <1>        0.000
     20 H          -0.6456    2.1965   -1.2051 H.spc      1 <1>        0.000
     21 H           0.7077    2.1936   -3.0435 H.spc      1 <1>        0.000
     22 H           0.7028    0.5203   -2.1181 H.spc      1 <1>        0.000
     23 H           2.6447    0.4345   -2.8291 H.spc      1 <1>        0.000
     24 H           2.7690    2.3178   -3.0147 H.spc      1 <1>        0.000
     25 H           3.4580    3.4184   -0.5285 H.spc      1 <1>        0.000
     26 H           4.7167    2.9887   -1.9025 H.spc      1 <1>        0.000
     27 H           6.0723    2.1259   -0.3339 H.spc      1 <1>        0.000
     28 H           5.5345    3.9205    0.1291 H.spc      1 <1>        0.000
     29 H           6.2428    2.5790    1.9088 H.spc      1 <1>        0.000
     30 H           4.7878    1.4458    1.4714 H.spc      1 <1>        0.000
     31 H           4.3695    2.6290    3.3833 H.spc      1 <1>        0.000
     32 H           4.7608    4.2160    2.4635 H.spc      1 <1>        0.000
     33 H           0.3071    4.2868    3.6266 H.spc      1 <1>        0.000
     34 H           0.9933    5.5430    2.4007 H.spc      1 <1>        0.000
     35 H          -0.9039    4.2251    1.7604 H.spc      1 <1>        0.000
     36 H           0.7027    4.0753    0.7335 H.spc      1 <1>        0.000
     37 H           0.3860    1.9462    2.4382 H.spc      1 <1>        0.000
     38 H          -1.1538    2.1973    1.4159 H.spc      1 <1>        0.000
@<TRIPOS>BOND
     1    7    8 1  
     2    1    2 1  
     3    5    6 1  
     4    1   14 1  
     5    4    5 1  
     6    2    3 1  
     7    3    4 1  
     8    6    7 1  
     9    5   16 2  
    10   13   14 1  
    11   12   13 1  
    12   11   12 1  
    13   11   15 2  
    14   10   11 1  
    15    9   10 1  
    16    8    9 1  
    17    1   17 1  
    18    1   18 1  
    19    2   19 1  
    20    2   20 1  
    21    3   21 1  
    22    3   22 1  
    23    4   23 1  
    24    4   24 1  
    25    6   25 1  
    26    6   26 1  
    27    7   27 1  
    28    7   28 1  
    29    8   29 1  
    30    8   30 1  
    31    9   31 1  
    32    9   32 1  
    33   12   33 1  
    34   12   34 1  
    35   13   35 1  
    36   13   36 1  
    37   14   37 1  
    38   14   38 1  
