#      Rotatable Fragment
#      Build by yxyuan
#
# Name:          frag5-501-620/138278
# Creation time: Sat Jun  5 12:53:39 2010


@<TRIPOS>MOLECULE
frag5-501-620/138278
   14    14     1     1     1
SMALL
USER_CHARGES


@<TRIPOS>ATOM
      1 C10         1.8753   -0.3002    0.0165 C.ar       1 <1>        0.000
      2 C17         1.3742    0.9608   -0.2921 C.ar       1 <1>        0.000
      3 C18         1.0003   -1.3414    0.3123 C.ar       1 <1>        0.000
      4 C23         0.0088    1.1794   -0.3051 C.ar       1 <1>        0.000
      5 C24        -0.3651   -1.1214    0.3037 C.ar       1 <1>        0.000
      6 C25        -0.9133    0.1464   -0.0077 C.ar       1 <1>        0.000
      7 N1         -2.3091    0.3699   -0.0210 N.pl3      1 <1>        0.000
      8 H           2.9516   -0.4723    0.0266 H.spc      1 <1>        0.000
      9 H           2.0585    1.7769   -0.5238 H.spc      1 <1>        0.000
     10 H           1.3913   -2.3305    0.5508 H.spc      1 <1>        0.000
     11 H          -0.3675    2.1725   -0.5506 H.spc      1 <1>        0.000
     12 H          -1.0369   -1.9457    0.5430 H.spc      1 <1>        0.000
     13 H          -2.6755    1.2941   -0.2490 H.spc      1 <1>        0.000
     14 H          -2.9499   -0.3931    0.1974 H.spc      1 <1>        0.000
@<TRIPOS>BOND
     1    1    2 ar 
     2    1    3 ar 
     3    2    4 ar 
     4    3    5 ar 
     5    4    6 ar 
     6    5    6 ar 
     7    6    7 1  
     8    1    8 1  
     9    2    9 1  
    10    3   10 1  
    11    4   11 1  
    12    5   12 1  
    13    7   13 1  
    14    7   14 1  
# Name:          frag5-501-620/138278 -- energy: -0.177135
# Creation time: Sat Jun  5 12:53:40 2010


@<TRIPOS>MOLECULE
frag5-501-620/138278 -- energy: -0.177135
   14    14     1     1     1
SMALL
USER_CHARGES


@<TRIPOS>ATOM
      1 C10         1.8753   -0.3002    0.0165 C.ar       1 <1>        0.000
      2 C17         1.3742    0.9608   -0.2921 C.ar       1 <1>        0.000
      3 C18         1.0003   -1.3414    0.3123 C.ar       1 <1>        0.000
      4 C23         0.0088    1.1794   -0.3051 C.ar       1 <1>        0.000
      5 C24        -0.3651   -1.1214    0.3037 C.ar       1 <1>        0.000
      6 C25        -0.9133    0.1464   -0.0077 C.ar       1 <1>        0.000
      7 N1         -2.3091    0.3699   -0.0210 N.pl3      1 <1>        0.000
      8 H           2.9516   -0.4723    0.0266 H.spc      1 <1>        0.000
      9 H           2.0585    1.7769   -0.5238 H.spc      1 <1>        0.000
     10 H           1.3913   -2.3305    0.5508 H.spc      1 <1>        0.000
     11 H          -0.3675    2.1725   -0.5506 H.spc      1 <1>        0.000
     12 H          -1.0369   -1.9457    0.5430 H.spc      1 <1>        0.000
     13 H          -2.6755    1.2941   -0.2490 H.spc      1 <1>        0.000
     14 H          -2.9499   -0.3931    0.1974 H.spc      1 <1>        0.000
@<TRIPOS>BOND
     1    1    2 ar 
     2    1    3 ar 
     3    2    4 ar 
     4    3    5 ar 
     5    4    6 ar 
     6    5    6 ar 
     7    6    7 1  
     8    1    8 1  
     9    2    9 1  
    10    3   10 1  
    11    4   11 1  
    12    5   12 1  
    13    7   13 1  
    14    7   14 1  
