#      Rotatable Fragment
#      Build by yxyuan
#
# Name:          frag5-516-153/41815
# Creation time: Sat Jun  5 12:52:51 2010


@<TRIPOS>MOLECULE
frag5-516-153/41815
   12    12     1     1     1
SMALL
USER_CHARGES


@<TRIPOS>ATOM
      1 C8         -1.1218   -0.9504    0.1761 C.ar       1 <1>        0.000
      2 C9          0.1932   -1.3814   -0.0020 C.ar       1 <1>        0.000
      3 C10         1.2268   -0.4529   -0.1668 C.ar       1 <1>        0.000
      4 C11         0.9388    0.9141   -0.1478 C.ar       1 <1>        0.000
      5 C12        -0.3810    1.3426    0.0293 C.ar       1 <1>        0.000
      6 C13        -1.4098    0.4122    0.1917 C.ar       1 <1>        0.000
      7 Cl1         2.2271    2.0825   -0.3452 Cl         1 <1>        0.000
      8 Cl2         2.8740   -0.9991   -0.3956 Cl         1 <1>        0.000
      9 H          -1.9225   -1.6790    0.3028 H.spc      1 <1>        0.000
     10 H           0.4167   -2.4482   -0.0128 H.spc      1 <1>        0.000
     11 H          -0.6077    2.4087    0.0406 H.spc      1 <1>        0.000
     12 H          -2.4362    0.7518    0.3304 H.spc      1 <1>        0.000
@<TRIPOS>BOND
     1    1    2 ar 
     2    1    6 ar 
     3    2    3 ar 
     4    3    4 ar 
     5    3    8 1  
     6    4    5 ar 
     7    5    6 ar 
     8    4    7 1  
     9    1    9 1  
    10    2   10 1  
    11    5   11 1  
    12    6   12 1  
# Name:          frag5-516-153/41815 -- energy: -0.218701
# Creation time: Sat Jun  5 12:52:51 2010


@<TRIPOS>MOLECULE
frag5-516-153/41815 -- energy: -0.218701
   12    12     1     1     1
SMALL
USER_CHARGES


@<TRIPOS>ATOM
      1 C8         -1.1218   -0.9504    0.1761 C.ar       1 <1>        0.000
      2 C9          0.1932   -1.3814   -0.0020 C.ar       1 <1>        0.000
      3 C10         1.2268   -0.4529   -0.1668 C.ar       1 <1>        0.000
      4 C11         0.9388    0.9141   -0.1478 C.ar       1 <1>        0.000
      5 C12        -0.3810    1.3426    0.0293 C.ar       1 <1>        0.000
      6 C13        -1.4098    0.4122    0.1917 C.ar       1 <1>        0.000
      7 Cl1         2.2271    2.0825   -0.3452 Cl         1 <1>        0.000
      8 Cl2         2.8740   -0.9991   -0.3956 Cl         1 <1>        0.000
      9 H          -1.9225   -1.6790    0.3028 H.spc      1 <1>        0.000
     10 H           0.4167   -2.4482   -0.0128 H.spc      1 <1>        0.000
     11 H          -0.6077    2.4087    0.0406 H.spc      1 <1>        0.000
     12 H          -2.4362    0.7518    0.3304 H.spc      1 <1>        0.000
@<TRIPOS>BOND
     1    1    2 ar 
     2    1    6 ar 
     3    2    3 ar 
     4    3    4 ar 
     5    3    8 1  
     6    4    5 ar 
     7    5    6 ar 
     8    4    7 1  
     9    1    9 1  
    10    2   10 1  
    11    5   11 1  
    12    6   12 1  
