#      Rotatable Fragment
#      Build by yxyuan
#
# Name:          frag3-175-13/96164
# Creation time: Sat Jun  5 12:53:07 2010


@<TRIPOS>MOLECULE
frag3-175-13/96164
   17    16     1     1     1
SMALL
USER_CHARGES


@<TRIPOS>ATOM
      1 C53         0.4952    0.3232   -0.3626 C.2        1 <1>        0.000
      2 C55         1.3027   -0.2286    0.5422 C.2        1 <1>        0.000
      3 C58         2.4334    0.4653    1.1343 C.2        1 <1>        0.000
      4 C61         3.3601   -0.1713    1.8600 C.2        1 <1>        0.000
      5 C63         4.5024    0.4809    2.4925 C.2        1 <1>        0.000
      6 C64         5.1777    0.0423    3.5690 C.2        1 <1>        0.000
      7 C65         4.9120   -1.2199    4.2963 C.2        1 <1>        0.000
      8 O20         3.8046   -1.9299    4.0764 O.3        1 <1>        0.000
      9 O21         5.7074   -1.6340    5.1294 O.2        1 <1>        0.000
     10 H           0.6676    1.3470   -0.6947 H.spc      1 <1>        0.000
     11 H          -0.3379   -0.2491   -0.7707 H.spc      1 <1>        0.000
     12 H           1.1047   -1.2540    0.8544 H.spc      1 <1>        0.000
     13 H           2.5301    1.5403    0.9824 H.spc      1 <1>        0.000
     14 H           3.2549   -1.2487    1.9872 H.spc      1 <1>        0.000
     15 H           4.8416    1.4165    2.0479 H.spc      1 <1>        0.000
     16 H           5.9897    0.6690    3.9378 H.spc      1 <1>        0.000
     17 H           3.2747   -1.4944    3.4047 H.spc      1 <1>        0.000
@<TRIPOS>BOND
     1    7    9 2  
     2    6    7 1  
     3    7    8 1  
     4    1    2 2  
     5    2    3 1  
     6    3    4 2  
     7    4    5 1  
     8    5    6 2  
     9    1   10 1  
    10    1   11 1  
    11    2   12 1  
    12    3   13 1  
    13    4   14 1  
    14    5   15 1  
    15    6   16 1  
    16    8   17 1  
# Name:          frag3-175-13/96164
# Creation time: Sat Jun  5 12:53:07 2010


@<TRIPOS>MOLECULE
frag3-175-13/96164
   17    16     1     1     1
SMALL
USER_CHARGES


@<TRIPOS>ATOM
      1 C53         1.1771   -0.8799   -0.0096 C.2        1 <1>        0.000
      2 C55         1.2475    0.3397    0.5300 C.2        1 <1>        0.000
      3 C58         2.4551    0.8748    1.1211 C.2        1 <1>        0.000
      4 C61         3.2388    0.1416    1.9285 C.2        1 <1>        0.000
      5 C63         4.4523    0.6220    2.5673 C.2        1 <1>        0.000
      6 C64         5.1341    0.0201    3.5583 C.2        1 <1>        0.000
      7 C65         4.7905   -1.2857    4.1646 C.2        1 <1>        0.000
      8 O20         3.5294   -1.6094    4.4480 O.3        1 <1>        0.000
      9 O21         5.6708   -2.0950    4.4293 O.2        1 <1>        0.000
     10 H           2.0567   -1.5236   -0.0183 H.spc      1 <1>        0.000
     11 H           0.2401   -1.2316   -0.4413 H.spc      1 <1>        0.000
     12 H           0.3525    0.9618    0.5249 H.spc      1 <1>        0.000
     13 H           2.7375    1.9050    0.9043 H.spc      1 <1>        0.000
     14 H           2.9427   -0.8900    2.1187 H.spc      1 <1>        0.000
     15 H           4.8519    1.5694    2.2055 H.spc      1 <1>        0.000
     16 H           6.0119    0.5365    3.9469 H.spc      1 <1>        0.000
     17 H           2.9496   -0.8891    4.1900 H.spc      1 <1>        0.000
@<TRIPOS>BOND
     1    7    9 2  
     2    6    7 1  
     3    7    8 1  
     4    1    2 2  
     5    2    3 1  
     6    3    4 2  
     7    4    5 1  
     8    5    6 2  
     9    1   10 1  
    10    1   11 1  
    11    2   12 1  
    12    3   13 1  
    13    4   14 1  
    14    5   15 1  
    15    6   16 1  
    16    8   17 1  
# Name:          frag3-175-13/96164
# Creation time: Sat Jun  5 12:53:07 2010


@<TRIPOS>MOLECULE
frag3-175-13/96164
   17    16     1     1     1
SMALL
USER_CHARGES


@<TRIPOS>ATOM
      1 C53         0.6031   -0.5477    0.4421 C.2        1 <1>        0.000
      2 C55         1.8783   -0.1692    0.3860 C.2        1 <1>        0.000
      3 C58         2.6419    0.2606    1.5349 C.2        1 <1>        0.000
      4 C61         3.9719    0.4310    1.4998 C.2        1 <1>        0.000
      5 C63         4.7786    0.8428    2.6355 C.2        1 <1>        0.000
      6 C64         4.9734    0.1385    3.7732 C.2        1 <1>        0.000
      7 C65         4.4370   -1.2146    4.0421 C.2        1 <1>        0.000
      8 O20         4.0272   -1.5560    5.2659 O.3        1 <1>        0.000
      9 O21         4.3841   -2.0572    3.1580 O.2        1 <1>        0.000
     10 H           0.0751   -0.5446    1.3957 H.spc      1 <1>        0.000
     11 H           0.0871   -0.8607   -0.4656 H.spc      1 <1>        0.000
     12 H           2.3756   -0.1844   -0.5838 H.spc      1 <1>        0.000
     13 H           2.1151    0.4545    2.4692 H.spc      1 <1>        0.000
     14 H           4.4824    0.2479    0.5543 H.spc      1 <1>        0.000
     15 H           5.2737    1.8112    2.5638 H.spc      1 <1>        0.000
     16 H           5.5734    0.6045    4.5548 H.spc      1 <1>        0.000
     17 H           4.1232   -0.8045    5.8555 H.spc      1 <1>        0.000
@<TRIPOS>BOND
     1    7    9 2  
     2    6    7 1  
     3    7    8 1  
     4    1    2 2  
     5    2    3 1  
     6    3    4 2  
     7    4    5 1  
     8    5    6 2  
     9    1   10 1  
    10    1   11 1  
    11    2   12 1  
    12    3   13 1  
    13    4   14 1  
    14    5   15 1  
    15    6   16 1  
    16    8   17 1  
# Name:          frag3-175-13/96164
# Creation time: Sat Jun  5 12:53:07 2010


@<TRIPOS>MOLECULE
frag3-175-13/96164
   17    16     1     1     1
SMALL
USER_CHARGES


@<TRIPOS>ATOM
      1 C53         0.6889   -0.6264    0.2606 C.2        1 <1>        0.000
      2 C55         1.4548    0.2897    0.8489 C.2        1 <1>        0.000
      3 C58         2.8330    0.0742    1.2147 C.2        1 <1>        0.000
      4 C61         3.4900    0.8591    2.0777 C.2        1 <1>        0.000
      5 C63         4.8735    0.6878    2.4797 C.2        1 <1>        0.000
      6 C64         5.3547   -0.2554    3.3207 C.2        1 <1>        0.000
      7 C65         4.5424   -1.3043    3.9764 C.2        1 <1>        0.000
      8 O20         5.1320   -2.2734    4.6834 O.3        1 <1>        0.000
      9 O21         3.3262   -1.3232    3.8754 O.2        1 <1>        0.000
     10 H           1.0971   -1.6097    0.0272 H.spc      1 <1>        0.000
     11 H          -0.3465   -0.3932    0.0123 H.spc      1 <1>        0.000
     12 H           1.0133    1.2620    1.0675 H.spc      1 <1>        0.000
     13 H           3.3642   -0.7663    0.7681 H.spc      1 <1>        0.000
     14 H           2.9413    1.6941    2.5134 H.spc      1 <1>        0.000
     15 H           5.5965    1.3887    2.0625 H.spc      1 <1>        0.000
     16 H           6.4239   -0.2421    3.5321 H.spc      1 <1>        0.000
     17 H           6.0823   -2.1371    4.6806 H.spc      1 <1>        0.000
@<TRIPOS>BOND
     1    7    9 2  
     2    6    7 1  
     3    7    8 1  
     4    1    2 2  
     5    2    3 1  
     6    3    4 2  
     7    4    5 1  
     8    5    6 2  
     9    1   10 1  
    10    1   11 1  
    11    2   12 1  
    12    3   13 1  
    13    4   14 1  
    14    5   15 1  
    15    6   16 1  
    16    8   17 1  
# Name:          frag3-175-13/96164
# Creation time: Sat Jun  5 12:53:07 2010


@<TRIPOS>MOLECULE
frag3-175-13/96164
   17    16     1     1     1
SMALL
USER_CHARGES


@<TRIPOS>ATOM
      1 C53         1.0467    0.0555   -0.0677 C.2        1 <1>        0.000
      2 C55         1.2073   -0.1951    1.2343 C.2        1 <1>        0.000
      3 C58         2.3782    0.2020    1.9782 C.2        1 <1>        0.000
      4 C61         3.6183    0.1297    1.4564 C.2        1 <1>        0.000
      5 C63         4.8295    0.5028    2.1598 C.2        1 <1>        0.000
      6 C64         5.2817   -0.0445    3.3085 C.2        1 <1>        0.000
      7 C65         4.6387   -1.1629    4.0339 C.2        1 <1>        0.000
      8 O20         4.0996   -2.1900    3.3769 O.3        1 <1>        0.000
      9 O21         4.5955   -1.1693    5.2571 O.2        1 <1>        0.000
     10 H           1.8228    0.5846   -0.6206 H.spc      1 <1>        0.000
     11 H           0.1395   -0.2691   -0.5773 H.spc      1 <1>        0.000
     12 H           0.4144   -0.7260    1.7612 H.spc      1 <1>        0.000
     13 H           2.2554    0.5727    2.9959 H.spc      1 <1>        0.000
     14 H           3.7177   -0.2348    0.4340 H.spc      1 <1>        0.000
     15 H           5.4310    1.2988    1.7209 H.spc      1 <1>        0.000
     16 H           6.1942    0.3711    3.7361 H.spc      1 <1>        0.000
     17 H           4.2042   -2.0545    2.4323 H.spc      1 <1>        0.000
@<TRIPOS>BOND
     1    7    9 2  
     2    6    7 1  
     3    7    8 1  
     4    1    2 2  
     5    2    3 1  
     6    3    4 2  
     7    4    5 1  
     8    5    6 2  
     9    1   10 1  
    10    1   11 1  
    11    2   12 1  
    12    3   13 1  
    13    4   14 1  
    14    5   15 1  
    15    6   16 1  
    16    8   17 1  
# Name:          frag3-175-13/96164
# Creation time: Sat Jun  5 12:53:07 2010


@<TRIPOS>MOLECULE
frag3-175-13/96164
   17    16     1     1     1
SMALL
USER_CHARGES


@<TRIPOS>ATOM
      1 C53         1.1459   -0.9552    0.1810 C.2        1 <1>        0.000
      2 C55         1.4195    0.3455    0.3094 C.2        1 <1>        0.000
      3 C58         2.6204    0.8448    0.9330 C.2        1 <1>        0.000
      4 C61         3.1831    0.2420    1.9936 C.2        1 <1>        0.000
      5 C63         4.3775    0.6919    2.6779 C.2        1 <1>        0.000
      6 C64         5.0589    0.0399    3.6392 C.2        1 <1>        0.000
      7 C65         4.7254   -1.3074    4.1518 C.2        1 <1>        0.000
      8 O20         4.3157   -1.4783    5.4097 O.3        1 <1>        0.000
      9 O21         4.8492   -2.2951    3.4418 O.2        1 <1>        0.000
     10 H           1.8477   -1.6995    0.5574 H.spc      1 <1>        0.000
     11 H           0.2208   -1.2726   -0.3002 H.spc      1 <1>        0.000
     12 H           0.6988    1.0664   -0.0766 H.spc      1 <1>        0.000
     13 H           3.0879    1.7430    0.5295 H.spc      1 <1>        0.000
     14 H           2.7009   -0.6601    2.3701 H.spc      1 <1>        0.000
     15 H           4.7680    1.6657    2.3823 H.spc      1 <1>        0.000
     16 H           5.9227    0.5435    4.0731 H.spc      1 <1>        0.000
     17 H           4.2638   -0.6252    5.8468 H.spc      1 <1>        0.000
@<TRIPOS>BOND
     1    7    9 2  
     2    6    7 1  
     3    7    8 1  
     4    1    2 2  
     5    2    3 1  
     6    3    4 2  
     7    4    5 1  
     8    5    6 2  
     9    1   10 1  
    10    1   11 1  
    11    2   12 1  
    12    3   13 1  
    13    4   14 1  
    14    5   15 1  
    15    6   16 1  
    16    8   17 1  
# Name:          frag3-175-13/96164
# Creation time: Sat Jun  5 12:53:07 2010


@<TRIPOS>MOLECULE
frag3-175-13/96164
   17    16     1     1     1
SMALL
USER_CHARGES


@<TRIPOS>ATOM
      1 C53         0.4548   -0.3726    1.0585 C.2        1 <1>        0.000
      2 C55         1.6938   -0.0084    0.7364 C.2        1 <1>        0.000
      3 C58         2.7632    0.1435    1.6923 C.2        1 <1>        0.000
      4 C61         4.0300    0.4034    1.3347 C.2        1 <1>        0.000
      5 C63         5.1351    0.5509    2.2636 C.2        1 <1>        0.000
      6 C64         5.2887   -0.1218    3.4274 C.2        1 <1>        0.000
      7 C65         4.3671   -1.1603    3.9421 C.2        1 <1>        0.000
      8 O20         4.4523   -2.4204    3.5118 O.3        1 <1>        0.000
      9 O21         3.5105   -0.8863    4.7707 O.2        1 <1>        0.000
     10 H           0.1994   -0.5758    2.0985 H.spc      1 <1>        0.000
     11 H          -0.3045   -0.4676    0.2823 H.spc      1 <1>        0.000
     12 H           1.9136    0.1869   -0.3132 H.spc      1 <1>        0.000
     13 H           2.5318    0.0426    2.7527 H.spc      1 <1>        0.000
     14 H           4.2442    0.5114    0.2714 H.spc      1 <1>        0.000
     15 H           5.9118    1.2687    1.9998 H.spc      1 <1>        0.000
     16 H           6.1608    0.1201    4.0349 H.spc      1 <1>        0.000
     17 H           5.1622   -2.4907    2.8694 H.spc      1 <1>        0.000
@<TRIPOS>BOND
     1    7    9 2  
     2    6    7 1  
     3    7    8 1  
     4    1    2 2  
     5    2    3 1  
     6    3    4 2  
     7    4    5 1  
     8    5    6 2  
     9    1   10 1  
    10    1   11 1  
    11    2   12 1  
    12    3   13 1  
    13    4   14 1  
    14    5   15 1  
    15    6   16 1  
    16    8   17 1  
# Name:          frag3-175-13/96164
# Creation time: Sat Jun  5 12:53:07 2010


@<TRIPOS>MOLECULE
frag3-175-13/96164
   17    16     1     1     1
SMALL
USER_CHARGES


@<TRIPOS>ATOM
      1 C53         0.4739    0.3449   -0.3584 C.2        1 <1>        0.000
      2 C55         1.1329    0.0422    0.7592 C.2        1 <1>        0.000
      3 C58         2.5154    0.4135    0.9994 C.2        1 <1>        0.000
      4 C61         3.1985   -0.0229    2.0637 C.2        1 <1>        0.000
      5 C63         4.5809    0.3318    2.3623 C.2        1 <1>        0.000
      6 C64         5.3503   -0.1892    3.3342 C.2        1 <1>        0.000
      7 C65         4.9407   -1.2619    4.2739 C.2        1 <1>        0.000
      8 O20         4.6018   -2.4743    3.8282 O.3        1 <1>        0.000
      9 O21         4.9011   -1.0560    5.4750 O.2        1 <1>        0.000
     10 H           0.9735    0.9002   -1.1522 H.spc      1 <1>        0.000
     11 H          -0.5648    0.0373   -0.4789 H.spc      1 <1>        0.000
     12 H           0.6058   -0.5139    1.5345 H.spc      1 <1>        0.000
     13 H           3.0146    1.0710    0.2876 H.spc      1 <1>        0.000
     14 H           2.6857   -0.6904    2.7562 H.spc      1 <1>        0.000
     15 H           5.0369    1.0969    1.7339 H.spc      1 <1>        0.000
     16 H           6.3591    0.2098    3.4406 H.spc      1 <1>        0.000
     17 H           4.6779   -2.4951    2.8714 H.spc      1 <1>        0.000
@<TRIPOS>BOND
     1    7    9 2  
     2    6    7 1  
     3    7    8 1  
     4    1    2 2  
     5    2    3 1  
     6    3    4 2  
     7    4    5 1  
     8    5    6 2  
     9    1   10 1  
    10    1   11 1  
    11    2   12 1  
    12    3   13 1  
    13    4   14 1  
    14    5   15 1  
    15    6   16 1  
    16    8   17 1  
# Name:          frag3-175-13/96164
# Creation time: Sat Jun  5 12:53:07 2010


@<TRIPOS>MOLECULE
frag3-175-13/96164
   17    16     1     1     1
SMALL
USER_CHARGES


@<TRIPOS>ATOM
      1 C53         1.1203   -0.9461    0.4557 C.2        1 <1>        0.000
      2 C55         1.3370    0.2334    1.0420 C.2        1 <1>        0.000
      3 C58         2.4775    0.5005    1.8894 C.2        1 <1>        0.000
      4 C61         3.7423    0.3888    1.4425 C.2        1 <1>        0.000
      5 C63         4.9229    0.6214    2.2576 C.2        1 <1>        0.000
      6 C64         5.2630   -0.0569    3.3736 C.2        1 <1>        0.000
      7 C65         4.5144   -1.1991    3.9460 C.2        1 <1>        0.000
      8 O20         3.5881   -1.8444    3.2380 O.3        1 <1>        0.000
      9 O21         4.7301   -1.5695    5.0927 O.2        1 <1>        0.000
     10 H           1.8220   -1.7665    0.6060 H.spc      1 <1>        0.000
     11 H           0.2417   -1.0888   -0.1734 H.spc      1 <1>        0.000
     12 H           0.6181    1.0352    0.8734 H.spc      1 <1>        0.000
     13 H           2.3078    0.8019    2.9231 H.spc      1 <1>        0.000
     14 H           3.8909    0.1052    0.4006 H.spc      1 <1>        0.000
     15 H           5.5957    1.4172    1.9380 H.spc      1 <1>        0.000
     16 H           6.1639    0.2627    3.8973 H.spc      1 <1>        0.000
     17 H           3.5238   -1.4519    2.3643 H.spc      1 <1>        0.000
@<TRIPOS>BOND
     1    7    9 2  
     2    6    7 1  
     3    7    8 1  
     4    1    2 2  
     5    2    3 1  
     6    3    4 2  
     7    4    5 1  
     8    5    6 2  
     9    1   10 1  
    10    1   11 1  
    11    2   12 1  
    12    3   13 1  
    13    4   14 1  
    14    5   15 1  
    15    6   16 1  
    16    8   17 1  
# Name:          frag3-175-13/96164
# Creation time: Sat Jun  5 12:53:07 2010


@<TRIPOS>MOLECULE
frag3-175-13/96164
   17    16     1     1     1
SMALL
USER_CHARGES


@<TRIPOS>ATOM
      1 C53         0.4170    0.4803   -0.2910 C.2        1 <1>        0.000
      2 C55         1.1863   -0.0743    0.6441 C.2        1 <1>        0.000
      3 C58         2.5080    0.4113    0.9878 C.2        1 <1>        0.000
      4 C61         3.2357   -0.1229    1.9752 C.2        1 <1>        0.000
      5 C63         4.5575    0.3392    2.3756 C.2        1 <1>        0.000
      6 C64         5.3005   -0.1302    3.3961 C.2        1 <1>        0.000
      7 C65         4.9127   -1.2468    4.2933 C.2        1 <1>        0.000
      8 O20         5.7839   -2.2170    4.5868 O.3        1 <1>        0.000
      9 O21         3.7941   -1.3115    4.7697 O.2        1 <1>        0.000
     10 H           0.7733    1.3484   -0.8455 H.spc      1 <1>        0.000
     11 H          -0.5690    0.0661   -0.5018 H.spc      1 <1>        0.000
     12 H           0.8007   -0.9412    1.1806 H.spc      1 <1>        0.000
     13 H           2.9249    1.2433    0.4203 H.spc      1 <1>        0.000
     14 H           2.8083   -0.9650    2.5195 H.spc      1 <1>        0.000
     15 H           4.9904    1.1491    1.7884 H.spc      1 <1>        0.000
     16 H           6.2631    0.3480    3.5774 H.spc      1 <1>        0.000
     17 H           6.6187   -2.0396    4.1472 H.spc      1 <1>        0.000
@<TRIPOS>BOND
     1    7    9 2  
     2    6    7 1  
     3    7    8 1  
     4    1    2 2  
     5    2    3 1  
     6    3    4 2  
     7    4    5 1  
     8    5    6 2  
     9    1   10 1  
    10    1   11 1  
    11    2   12 1  
    12    3   13 1  
    13    4   14 1  
    14    5   15 1  
    15    6   16 1  
    16    8   17 1  
# Name:          frag3-175-13/96164
# Creation time: Sat Jun  5 12:53:07 2010


@<TRIPOS>MOLECULE
frag3-175-13/96164
   17    16     1     1     1
SMALL
USER_CHARGES


@<TRIPOS>ATOM
      1 C53         0.3104    0.4819    0.6686 C.2        1 <1>        0.000
      2 C55         1.4301   -0.1326    0.2836 C.2        1 <1>        0.000
      3 C58         2.7516    0.2967    0.6857 C.2        1 <1>        0.000
      4 C61         3.2901   -0.0497    1.8643 C.2        1 <1>        0.000
      5 C63         4.5982    0.3707    2.3372 C.2        1 <1>        0.000
      6 C64         5.2730   -0.1233    3.3936 C.2        1 <1>        0.000
      7 C65         4.8047   -1.2242    4.2656 C.2        1 <1>        0.000
      8 O20         5.1278   -2.4914    3.9944 O.3        1 <1>        0.000
      9 O21         4.1097   -0.9999    5.2444 O.2        1 <1>        0.000
     10 H           0.3638    1.3546    1.3194 H.spc      1 <1>        0.000
     11 H          -0.6579    0.1113    0.3324 H.spc      1 <1>        0.000
     12 H           1.3448   -1.0027   -0.3673 H.spc      1 <1>        0.000
     13 H           3.3301    0.9237    0.0072 H.spc      1 <1>        0.000
     14 H           2.7021   -0.6953    2.5166 H.spc      1 <1>        0.000
     15 H           5.0849    1.1700    1.7783 H.spc      1 <1>        0.000
     16 H           6.2403    0.3230    3.6245 H.spc      1 <1>        0.000
     17 H           5.6723   -2.5195    3.2042 H.spc      1 <1>        0.000
@<TRIPOS>BOND
     1    7    9 2  
     2    6    7 1  
     3    7    8 1  
     4    1    2 2  
     5    2    3 1  
     6    3    4 2  
     7    4    5 1  
     8    5    6 2  
     9    1   10 1  
    10    1   11 1  
    11    2   12 1  
    12    3   13 1  
    13    4   14 1  
    14    5   15 1  
    15    6   16 1  
    16    8   17 1  
# Name:          frag3-175-13/96164
# Creation time: Sat Jun  5 12:53:07 2010


@<TRIPOS>MOLECULE
frag3-175-13/96164
   17    16     1     1     1
SMALL
USER_CHARGES


@<TRIPOS>ATOM
      1 C53         1.0661    0.0426   -0.2588 C.2        1 <1>        0.000
      2 C55         1.2338   -0.1821    1.0392 C.2        1 <1>        0.000
      3 C58         2.3067    0.2437    1.8518 C.2        1 <1>        0.000
      4 C61         3.6061    0.1649    1.5645 C.2        1 <1>        0.000
      5 C63         4.7445    0.5365    2.3117 C.2        1 <1>        0.000
      6 C64         5.2303   -0.0250    3.4281 C.2        1 <1>        0.000
      7 C65         4.6124   -1.2027    4.0494 C.2        1 <1>        0.000
      8 O20         5.4427   -1.9069    4.8207 O.3        1 <1>        0.000
      9 O21         3.4530   -1.5428    3.9309 O.2        1 <1>        0.000
     10 H           1.8094    0.6155   -0.8132 H.spc      1 <1>        0.000
     11 H           0.1852   -0.3459   -0.7698 H.spc      1 <1>        0.000
     12 H           0.4540   -0.7614    1.5336 H.spc      1 <1>        0.000
     13 H           2.0454    0.6827    2.8147 H.spc      1 <1>        0.000
     14 H           3.8273   -0.2590    0.5850 H.spc      1 <1>        0.000
     15 H           5.3019    1.3924    1.9311 H.spc      1 <1>        0.000
     16 H           6.1165    0.4089    3.8913 H.spc      1 <1>        0.000
     17 H           6.3137   -1.5037    4.8028 H.spc      1 <1>        0.000
@<TRIPOS>BOND
     1    7    9 2  
     2    6    7 1  
     3    7    8 1  
     4    1    2 2  
     5    2    3 1  
     6    3    4 2  
     7    4    5 1  
     8    5    6 2  
     9    1   10 1  
    10    1   11 1  
    11    2   12 1  
    12    3   13 1  
    13    4   14 1  
    14    5   15 1  
    15    6   16 1  
    16    8   17 1  
# Name:          frag3-175-13/96164
# Creation time: Sat Jun  5 12:53:07 2010


@<TRIPOS>MOLECULE
frag3-175-13/96164
   17    16     1     1     1
SMALL
USER_CHARGES


@<TRIPOS>ATOM
      1 C53         0.9771   -0.9372    0.0665 C.2        1 <1>        0.000
      2 C55         1.5086    0.0386    0.8014 C.2        1 <1>        0.000
      3 C58         2.8662    0.0078    1.3121 C.2        1 <1>        0.000
      4 C61         3.3288    0.9249    2.1705 C.2        1 <1>        0.000
      5 C63         4.6837    0.9435    2.7089 C.2        1 <1>        0.000
      6 C64         5.2386   -0.0032    3.4907 C.2        1 <1>        0.000
      7 C65         4.5807   -1.2597    3.9263 C.2        1 <1>        0.000
      8 O20         3.2916   -1.2885    4.2651 O.3        1 <1>        0.000
      9 O21         5.2205   -2.2981    3.9958 O.2        1 <1>        0.000
     10 H           1.5697   -1.8181   -0.1803 H.spc      1 <1>        0.000
     11 H          -0.0504   -0.8547   -0.2879 H.spc      1 <1>        0.000
     12 H           0.8905    0.9065    1.0313 H.spc      1 <1>        0.000
     13 H           3.5329   -0.7902    0.9853 H.spc      1 <1>        0.000
     14 H           2.6454    1.7121    2.4890 H.spc      1 <1>        0.000
     15 H           5.3050    1.8025    2.4555 H.spc      1 <1>        0.000
     16 H           6.2591    0.1689    3.8328 H.spc      1 <1>        0.000
     17 H           2.9156   -0.4110    4.1639 H.spc      1 <1>        0.000
@<TRIPOS>BOND
     1    7    9 2  
     2    6    7 1  
     3    7    8 1  
     4    1    2 2  
     5    2    3 1  
     6    3    4 2  
     7    4    5 1  
     8    5    6 2  
     9    1   10 1  
    10    1   11 1  
    11    2   12 1  
    12    3   13 1  
    13    4   14 1  
    14    5   15 1  
    15    6   16 1  
    16    8   17 1  
# Name:          frag3-175-13/96164
# Creation time: Sat Jun  5 12:53:07 2010


@<TRIPOS>MOLECULE
frag3-175-13/96164
   17    16     1     1     1
SMALL
USER_CHARGES


@<TRIPOS>ATOM
      1 C53         0.8410    0.0043   -0.7168 C.2        1 <1>        0.000
      2 C55         1.2619   -0.1182    0.5411 C.2        1 <1>        0.000
      3 C58         2.4866    0.4782    1.0383 C.2        1 <1>        0.000
      4 C61         3.0964    0.0448    2.1474 C.2        1 <1>        0.000
      5 C63         4.3186    0.6145    2.6996 C.2        1 <1>        0.000
      6 C64         5.1126    0.0614    3.6350 C.2        1 <1>        0.000
      7 C65         4.9096   -1.2720    4.2533 C.2        1 <1>        0.000
      8 O20         4.8937   -1.4187    5.5798 O.3        1 <1>        0.000
      9 O21         4.7752   -2.2662    3.5597 O.2        1 <1>        0.000
     10 H           1.4276    0.5779   -1.4344 H.spc      1 <1>        0.000
     11 H          -0.0901   -0.4691   -1.0285 H.spc      1 <1>        0.000
     12 H           0.6527   -0.6982    1.2343 H.spc      1 <1>        0.000
     13 H           2.9265    1.3101    0.4882 H.spc      1 <1>        0.000
     14 H           2.6464   -0.7953    2.6763 H.spc      1 <1>        0.000
     15 H           4.6209    1.5888    2.3156 H.spc      1 <1>        0.000
     16 H           5.9751    0.6402    3.9653 H.spc      1 <1>        0.000
     17 H           5.0091   -0.5617    5.9968 H.spc      1 <1>        0.000
@<TRIPOS>BOND
     1    7    9 2  
     2    6    7 1  
     3    7    8 1  
     4    1    2 2  
     5    2    3 1  
     6    3    4 2  
     7    4    5 1  
     8    5    6 2  
     9    1   10 1  
    10    1   11 1  
    11    2   12 1  
    12    3   13 1  
    13    4   14 1  
    14    5   15 1  
    15    6   16 1  
    16    8   17 1  
# Name:          frag3-175-13/96164
# Creation time: Sat Jun  5 12:53:07 2010


@<TRIPOS>MOLECULE
frag3-175-13/96164
   17    16     1     1     1
SMALL
USER_CHARGES


@<TRIPOS>ATOM
      1 C53         0.4974    0.2707   -0.3402 C.2        1 <1>        0.000
      2 C55         1.5412   -0.3174    0.2433 C.2        1 <1>        0.000
      3 C58         2.5946    0.4149    0.9229 C.2        1 <1>        0.000
      4 C61         3.2512   -0.0901    1.9742 C.2        1 <1>        0.000
      5 C63         4.2999    0.6094    2.7080 C.2        1 <1>        0.000
      6 C64         5.0116    0.1286    3.7427 C.2        1 <1>        0.000
      7 C65         4.8900   -1.2370    4.3098 C.2        1 <1>        0.000
      8 O20         3.8501   -1.5814    5.0704 O.3        1 <1>        0.000
      9 O21         5.7596   -2.0697    4.1063 O.2        1 <1>        0.000
     10 H           0.4033    1.3565   -0.3221 H.spc      1 <1>        0.000
     11 H          -0.2622   -0.3340   -0.8355 H.spc      1 <1>        0.000
     12 H           1.6075   -1.4048    0.2085 H.spc      1 <1>        0.000
     13 H           2.8597    1.4097    0.5648 H.spc      1 <1>        0.000
     14 H           2.9837   -1.0937    2.3049 H.spc      1 <1>        0.000
     15 H           4.5300    1.6247    2.3849 H.spc      1 <1>        0.000
     16 H           5.7384    0.7979    4.2031 H.spc      1 <1>        0.000
     17 H           3.2493   -0.8364    5.1455 H.spc      1 <1>        0.000
@<TRIPOS>BOND
     1    7    9 2  
     2    6    7 1  
     3    7    8 1  
     4    1    2 2  
     5    2    3 1  
     6    3    4 2  
     7    4    5 1  
     8    5    6 2  
     9    1   10 1  
    10    1   11 1  
    11    2   12 1  
    12    3   13 1  
    13    4   14 1  
    14    5   15 1  
    15    6   16 1  
    16    8   17 1  
# Name:          frag3-175-13/96164
# Creation time: Sat Jun  5 12:53:07 2010


@<TRIPOS>MOLECULE
frag3-175-13/96164
   17    16     1     1     1
SMALL
USER_CHARGES


@<TRIPOS>ATOM
      1 C53         0.7459   -0.6464    0.4889 C.2        1 <1>        0.000
      2 C55         1.2527    0.5831    0.6136 C.2        1 <1>        0.000
      3 C58         2.6382    0.8381    0.9439 C.2        1 <1>        0.000
      4 C61         3.2833    0.1439    1.8965 C.2        1 <1>        0.000
      5 C63         4.6654    0.3592    2.2881 C.2        1 <1>        0.000
      6 C64         5.3256   -0.2525    3.2886 C.2        1 <1>        0.000
      7 C65         4.7596   -1.3023    4.1719 C.2        1 <1>        0.000
      8 O20         4.5521   -2.5397    3.7160 O.3        1 <1>        0.000
      9 O21         4.4727   -1.0554    5.3300 O.2        1 <1>        0.000
     10 H           1.3848   -1.5169    0.6378 H.spc      1 <1>        0.000
     11 H          -0.3065   -0.7792    0.2382 H.spc      1 <1>        0.000
     12 H           0.5908    1.4352    0.4591 H.spc      1 <1>        0.000
     13 H           3.1752    1.6175    0.4032 H.spc      1 <1>        0.000
     14 H           2.7283   -0.6388    2.4137 H.spc      1 <1>        0.000
     15 H           5.2270    1.0936    1.7107 H.spc      1 <1>        0.000
     16 H           6.3588    0.0471    3.4643 H.spc      1 <1>        0.000
     17 H           4.8211   -2.5898    2.7958 H.spc      1 <1>        0.000
@<TRIPOS>BOND
     1    7    9 2  
     2    6    7 1  
     3    7    8 1  
     4    1    2 2  
     5    2    3 1  
     6    3    4 2  
     7    4    5 1  
     8    5    6 2  
     9    1   10 1  
    10    1   11 1  
    11    2   12 1  
    12    3   13 1  
    13    4   14 1  
    14    5   15 1  
    15    6   16 1  
    16    8   17 1  
# Name:          frag3-175-13/96164
# Creation time: Sat Jun  5 12:53:07 2010


@<TRIPOS>MOLECULE
frag3-175-13/96164
   17    16     1     1     1
SMALL
USER_CHARGES


@<TRIPOS>ATOM
      1 C53         0.4667    0.3088    0.8394 C.2        1 <1>        0.000
      2 C55         1.5312   -0.2721    0.2792 C.2        1 <1>        0.000
      3 C58         2.8934    0.0224    0.6767 C.2        1 <1>        0.000
      4 C61         3.2248    0.2552    1.9563 C.2        1 <1>        0.000
      5 C63         4.5660    0.5724    2.4221 C.2        1 <1>        0.000
      6 C64         5.2427   -0.0539    3.4023 C.2        1 <1>        0.000
      7 C65         4.7485   -1.2155    4.1825 C.2        1 <1>        0.000
      8 O20         4.0404   -2.1854    3.6021 O.3        1 <1>        0.000
      9 O21         4.9818   -1.3038    5.3770 O.2        1 <1>        0.000
     10 H           0.6014    1.0420    1.6347 H.spc      1 <1>        0.000
     11 H          -0.5366    0.0496    0.5013 H.spc      1 <1>        0.000
     12 H           1.3676   -1.0017   -0.5139 H.spc      1 <1>        0.000
     13 H           3.6716    0.0558   -0.0858 H.spc      1 <1>        0.000
     14 H           2.4308    0.2027    2.7012 H.spc      1 <1>        0.000
     15 H           5.0737    1.4005    1.9275 H.spc      1 <1>        0.000
     16 H           6.2365    0.3234    3.6432 H.spc      1 <1>        0.000
     17 H           3.9338   -1.9876    2.6688 H.spc      1 <1>        0.000
@<TRIPOS>BOND
     1    7    9 2  
     2    6    7 1  
     3    7    8 1  
     4    1    2 2  
     5    2    3 1  
     6    3    4 2  
     7    4    5 1  
     8    5    6 2  
     9    1   10 1  
    10    1   11 1  
    11    2   12 1  
    12    3   13 1  
    13    4   14 1  
    14    5   15 1  
    15    6   16 1  
    16    8   17 1  
# Name:          frag3-175-13/96164
# Creation time: Sat Jun  5 12:53:07 2010


@<TRIPOS>MOLECULE
frag3-175-13/96164
   17    16     1     1     1
SMALL
USER_CHARGES


@<TRIPOS>ATOM
      1 C53         0.4283   -0.1194    0.8273 C.2        1 <1>        0.000
      2 C55         1.5544    0.0795    0.1383 C.2        1 <1>        0.000
      3 C58         2.7657    0.6017    0.7321 C.2        1 <1>        0.000
      4 C61         3.3792   -0.0086    1.7580 C.2        1 <1>        0.000
      5 C63         4.5798    0.4775    2.4171 C.2        1 <1>        0.000
      6 C64         5.1702   -0.0431    3.5110 C.2        1 <1>        0.000
      7 C65         4.7069   -1.2530    4.2351 C.2        1 <1>        0.000
      8 O20         5.5880   -2.0824    4.8019 O.3        1 <1>        0.000
      9 O21         3.5230   -1.5241    4.3167 O.2        1 <1>        0.000
     10 H           0.3918    0.1147    1.8912 H.spc      1 <1>        0.000
     11 H          -0.4546   -0.5159    0.3259 H.spc      1 <1>        0.000
     12 H           1.5614   -0.1636   -0.9242 H.spc      1 <1>        0.000
     13 H           3.1943    1.5211    0.3332 H.spc      1 <1>        0.000
     14 H           2.9444   -0.9386    2.1243 H.spc      1 <1>        0.000
     15 H           5.0531    1.3568    1.9801 H.spc      1 <1>        0.000
     16 H           6.0563    0.4635    3.8935 H.spc      1 <1>        0.000
     17 H           6.4768   -1.7481    4.6611 H.spc      1 <1>        0.000
@<TRIPOS>BOND
     1    7    9 2  
     2    6    7 1  
     3    7    8 1  
     4    1    2 2  
     5    2    3 1  
     6    3    4 2  
     7    4    5 1  
     8    5    6 2  
     9    1   10 1  
    10    1   11 1  
    11    2   12 1  
    12    3   13 1  
    13    4   14 1  
    14    5   15 1  
    15    6   16 1  
    16    8   17 1  
# Name:          frag3-175-13/96164 -- energy: -1.386793
# Creation time: Sat Jun  5 12:53:07 2010


@<TRIPOS>MOLECULE
frag3-175-13/96164 -- energy: -1.386793
   17    16     1     1     1
SMALL
USER_CHARGES


@<TRIPOS>ATOM
      1 C53         1.1771   -0.8799   -0.0096 C.2        1 <1>        0.000
      2 C55         1.2475    0.3397    0.5300 C.2        1 <1>        0.000
      3 C58         2.4551    0.8748    1.1211 C.2        1 <1>        0.000
      4 C61         3.2388    0.1416    1.9285 C.2        1 <1>        0.000
      5 C63         4.4523    0.6220    2.5673 C.2        1 <1>        0.000
      6 C64         5.1341    0.0201    3.5583 C.2        1 <1>        0.000
      7 C65         4.7905   -1.2857    4.1646 C.2        1 <1>        0.000
      8 O20         3.5294   -1.6094    4.4480 O.3        1 <1>        0.000
      9 O21         5.6708   -2.0950    4.4293 O.2        1 <1>        0.000
     10 H           2.0567   -1.5236   -0.0183 H.spc      1 <1>        0.000
     11 H           0.2401   -1.2316   -0.4413 H.spc      1 <1>        0.000
     12 H           0.3525    0.9618    0.5249 H.spc      1 <1>        0.000
     13 H           2.7375    1.9050    0.9043 H.spc      1 <1>        0.000
     14 H           2.9427   -0.8900    2.1187 H.spc      1 <1>        0.000
     15 H           4.8519    1.5694    2.2055 H.spc      1 <1>        0.000
     16 H           6.0119    0.5365    3.9469 H.spc      1 <1>        0.000
     17 H           2.9496   -0.8891    4.1900 H.spc      1 <1>        0.000
@<TRIPOS>BOND
     1    7    9 2  
     2    6    7 1  
     3    7    8 1  
     4    1    2 2  
     5    2    3 1  
     6    3    4 2  
     7    4    5 1  
     8    5    6 2  
     9    1   10 1  
    10    1   11 1  
    11    2   12 1  
    12    3   13 1  
    13    4   14 1  
    14    5   15 1  
    15    6   16 1  
    16    8   17 1  
# Name:          frag3-175-13/96164 -- energy: -1.645943
# Creation time: Sat Jun  5 12:53:07 2010


@<TRIPOS>MOLECULE
frag3-175-13/96164 -- energy: -1.645943
   17    16     1     1     1
SMALL
USER_CHARGES


@<TRIPOS>ATOM
      1 C53         0.6031   -0.5477    0.4421 C.2        1 <1>        0.000
      2 C55         1.8783   -0.1692    0.3860 C.2        1 <1>        0.000
      3 C58         2.6419    0.2606    1.5349 C.2        1 <1>        0.000
      4 C61         3.9719    0.4310    1.4998 C.2        1 <1>        0.000
      5 C63         4.7786    0.8428    2.6355 C.2        1 <1>        0.000
      6 C64         4.9734    0.1385    3.7732 C.2        1 <1>        0.000
      7 C65         4.4370   -1.2146    4.0421 C.2        1 <1>        0.000
      8 O20         4.0272   -1.5560    5.2659 O.3        1 <1>        0.000
      9 O21         4.3841   -2.0572    3.1580 O.2        1 <1>        0.000
     10 H           0.0751   -0.5446    1.3957 H.spc      1 <1>        0.000
     11 H           0.0871   -0.8607   -0.4656 H.spc      1 <1>        0.000
     12 H           2.3756   -0.1844   -0.5838 H.spc      1 <1>        0.000
     13 H           2.1151    0.4545    2.4692 H.spc      1 <1>        0.000
     14 H           4.4824    0.2479    0.5543 H.spc      1 <1>        0.000
     15 H           5.2737    1.8112    2.5638 H.spc      1 <1>        0.000
     16 H           5.5734    0.6045    4.5548 H.spc      1 <1>        0.000
     17 H           4.1232   -0.8045    5.8555 H.spc      1 <1>        0.000
@<TRIPOS>BOND
     1    7    9 2  
     2    6    7 1  
     3    7    8 1  
     4    1    2 2  
     5    2    3 1  
     6    3    4 2  
     7    4    5 1  
     8    5    6 2  
     9    1   10 1  
    10    1   11 1  
    11    2   12 1  
    12    3   13 1  
    13    4   14 1  
    14    5   15 1  
    15    6   16 1  
    16    8   17 1  
# Name:          frag3-175-13/96164 -- energy: -1.454170
# Creation time: Sat Jun  5 12:53:07 2010


@<TRIPOS>MOLECULE
frag3-175-13/96164 -- energy: -1.454170
   17    16     1     1     1
SMALL
USER_CHARGES


@<TRIPOS>ATOM
      1 C53         0.6889   -0.6264    0.2606 C.2        1 <1>        0.000
      2 C55         1.4548    0.2897    0.8489 C.2        1 <1>        0.000
      3 C58         2.8330    0.0742    1.2147 C.2        1 <1>        0.000
      4 C61         3.4900    0.8591    2.0777 C.2        1 <1>        0.000
      5 C63         4.8735    0.6878    2.4797 C.2        1 <1>        0.000
      6 C64         5.3547   -0.2554    3.3207 C.2        1 <1>        0.000
      7 C65         4.5424   -1.3043    3.9764 C.2        1 <1>        0.000
      8 O20         5.1320   -2.2734    4.6834 O.3        1 <1>        0.000
      9 O21         3.3262   -1.3232    3.8754 O.2        1 <1>        0.000
     10 H           1.0971   -1.6097    0.0272 H.spc      1 <1>        0.000
     11 H          -0.3465   -0.3932    0.0123 H.spc      1 <1>        0.000
     12 H           1.0133    1.2620    1.0675 H.spc      1 <1>        0.000
     13 H           3.3642   -0.7663    0.7681 H.spc      1 <1>        0.000
     14 H           2.9413    1.6941    2.5134 H.spc      1 <1>        0.000
     15 H           5.5965    1.3887    2.0625 H.spc      1 <1>        0.000
     16 H           6.4239   -0.2421    3.5321 H.spc      1 <1>        0.000
     17 H           6.0823   -2.1371    4.6806 H.spc      1 <1>        0.000
@<TRIPOS>BOND
     1    7    9 2  
     2    6    7 1  
     3    7    8 1  
     4    1    2 2  
     5    2    3 1  
     6    3    4 2  
     7    4    5 1  
     8    5    6 2  
     9    1   10 1  
    10    1   11 1  
    11    2   12 1  
    12    3   13 1  
    13    4   14 1  
    14    5   15 1  
    15    6   16 1  
    16    8   17 1  
# Name:          frag3-175-13/96164 -- energy: -1.712916
# Creation time: Sat Jun  5 12:53:07 2010


@<TRIPOS>MOLECULE
frag3-175-13/96164 -- energy: -1.712916
   17    16     1     1     1
SMALL
USER_CHARGES


@<TRIPOS>ATOM
      1 C53         1.0467    0.0555   -0.0677 C.2        1 <1>        0.000
      2 C55         1.2073   -0.1951    1.2343 C.2        1 <1>        0.000
      3 C58         2.3782    0.2020    1.9782 C.2        1 <1>        0.000
      4 C61         3.6183    0.1297    1.4564 C.2        1 <1>        0.000
      5 C63         4.8295    0.5028    2.1598 C.2        1 <1>        0.000
      6 C64         5.2817   -0.0445    3.3085 C.2        1 <1>        0.000
      7 C65         4.6387   -1.1629    4.0339 C.2        1 <1>        0.000
      8 O20         4.0996   -2.1900    3.3769 O.3        1 <1>        0.000
      9 O21         4.5955   -1.1693    5.2571 O.2        1 <1>        0.000
     10 H           1.8228    0.5846   -0.6206 H.spc      1 <1>        0.000
     11 H           0.1395   -0.2691   -0.5773 H.spc      1 <1>        0.000
     12 H           0.4144   -0.7260    1.7612 H.spc      1 <1>        0.000
     13 H           2.2554    0.5727    2.9959 H.spc      1 <1>        0.000
     14 H           3.7177   -0.2348    0.4340 H.spc      1 <1>        0.000
     15 H           5.4310    1.2988    1.7209 H.spc      1 <1>        0.000
     16 H           6.1942    0.3711    3.7361 H.spc      1 <1>        0.000
     17 H           4.2042   -2.0545    2.4323 H.spc      1 <1>        0.000
@<TRIPOS>BOND
     1    7    9 2  
     2    6    7 1  
     3    7    8 1  
     4    1    2 2  
     5    2    3 1  
     6    3    4 2  
     7    4    5 1  
     8    5    6 2  
     9    1   10 1  
    10    1   11 1  
    11    2   12 1  
    12    3   13 1  
    13    4   14 1  
    14    5   15 1  
    15    6   16 1  
    16    8   17 1  
# Name:          frag3-175-13/96164 -- energy: -1.476151
# Creation time: Sat Jun  5 12:53:07 2010


@<TRIPOS>MOLECULE
frag3-175-13/96164 -- energy: -1.476151
   17    16     1     1     1
SMALL
USER_CHARGES


@<TRIPOS>ATOM
      1 C53         1.1459   -0.9552    0.1810 C.2        1 <1>        0.000
      2 C55         1.4195    0.3455    0.3094 C.2        1 <1>        0.000
      3 C58         2.6204    0.8448    0.9330 C.2        1 <1>        0.000
      4 C61         3.1831    0.2420    1.9936 C.2        1 <1>        0.000
      5 C63         4.3775    0.6919    2.6779 C.2        1 <1>        0.000
      6 C64         5.0589    0.0399    3.6392 C.2        1 <1>        0.000
      7 C65         4.7254   -1.3074    4.1518 C.2        1 <1>        0.000
      8 O20         4.3157   -1.4783    5.4097 O.3        1 <1>        0.000
      9 O21         4.8492   -2.2951    3.4418 O.2        1 <1>        0.000
     10 H           1.8477   -1.6995    0.5574 H.spc      1 <1>        0.000
     11 H           0.2208   -1.2726   -0.3002 H.spc      1 <1>        0.000
     12 H           0.6988    1.0664   -0.0766 H.spc      1 <1>        0.000
     13 H           3.0879    1.7430    0.5295 H.spc      1 <1>        0.000
     14 H           2.7009   -0.6601    2.3701 H.spc      1 <1>        0.000
     15 H           4.7680    1.6657    2.3823 H.spc      1 <1>        0.000
     16 H           5.9227    0.5435    4.0731 H.spc      1 <1>        0.000
     17 H           4.2638   -0.6252    5.8468 H.spc      1 <1>        0.000
@<TRIPOS>BOND
     1    7    9 2  
     2    6    7 1  
     3    7    8 1  
     4    1    2 2  
     5    2    3 1  
     6    3    4 2  
     7    4    5 1  
     8    5    6 2  
     9    1   10 1  
    10    1   11 1  
    11    2   12 1  
    12    3   13 1  
    13    4   14 1  
    14    5   15 1  
    15    6   16 1  
    16    8   17 1  
# Name:          frag3-175-13/96164 -- energy: -1.621814
# Creation time: Sat Jun  5 12:53:07 2010


@<TRIPOS>MOLECULE
frag3-175-13/96164 -- energy: -1.621814
   17    16     1     1     1
SMALL
USER_CHARGES


@<TRIPOS>ATOM
      1 C53         0.4548   -0.3726    1.0585 C.2        1 <1>        0.000
      2 C55         1.6938   -0.0084    0.7364 C.2        1 <1>        0.000
      3 C58         2.7632    0.1435    1.6923 C.2        1 <1>        0.000
      4 C61         4.0300    0.4034    1.3347 C.2        1 <1>        0.000
      5 C63         5.1351    0.5509    2.2636 C.2        1 <1>        0.000
      6 C64         5.2887   -0.1218    3.4274 C.2        1 <1>        0.000
      7 C65         4.3671   -1.1603    3.9421 C.2        1 <1>        0.000
      8 O20         4.4523   -2.4204    3.5118 O.3        1 <1>        0.000
      9 O21         3.5105   -0.8863    4.7707 O.2        1 <1>        0.000
     10 H           0.1994   -0.5758    2.0985 H.spc      1 <1>        0.000
     11 H          -0.3045   -0.4676    0.2823 H.spc      1 <1>        0.000
     12 H           1.9136    0.1869   -0.3132 H.spc      1 <1>        0.000
     13 H           2.5318    0.0426    2.7527 H.spc      1 <1>        0.000
     14 H           4.2442    0.5114    0.2714 H.spc      1 <1>        0.000
     15 H           5.9118    1.2687    1.9998 H.spc      1 <1>        0.000
     16 H           6.1608    0.1201    4.0349 H.spc      1 <1>        0.000
     17 H           5.1622   -2.4907    2.8694 H.spc      1 <1>        0.000
@<TRIPOS>BOND
     1    7    9 2  
     2    6    7 1  
     3    7    8 1  
     4    1    2 2  
     5    2    3 1  
     6    3    4 2  
     7    4    5 1  
     8    5    6 2  
     9    1   10 1  
    10    1   11 1  
    11    2   12 1  
    12    3   13 1  
    13    4   14 1  
    14    5   15 1  
    15    6   16 1  
    16    8   17 1  
# Name:          frag3-175-13/96164 -- energy: -1.552714
# Creation time: Sat Jun  5 12:53:07 2010


@<TRIPOS>MOLECULE
frag3-175-13/96164 -- energy: -1.552714
   17    16     1     1     1
SMALL
USER_CHARGES


@<TRIPOS>ATOM
      1 C53         0.4739    0.3449   -0.3584 C.2        1 <1>        0.000
      2 C55         1.1329    0.0422    0.7592 C.2        1 <1>        0.000
      3 C58         2.5154    0.4135    0.9994 C.2        1 <1>        0.000
      4 C61         3.1985   -0.0229    2.0637 C.2        1 <1>        0.000
      5 C63         4.5809    0.3318    2.3623 C.2        1 <1>        0.000
      6 C64         5.3503   -0.1892    3.3342 C.2        1 <1>        0.000
      7 C65         4.9407   -1.2619    4.2739 C.2        1 <1>        0.000
      8 O20         4.6018   -2.4743    3.8282 O.3        1 <1>        0.000
      9 O21         4.9011   -1.0560    5.4750 O.2        1 <1>        0.000
     10 H           0.9735    0.9002   -1.1522 H.spc      1 <1>        0.000
     11 H          -0.5648    0.0373   -0.4789 H.spc      1 <1>        0.000
     12 H           0.6058   -0.5139    1.5345 H.spc      1 <1>        0.000
     13 H           3.0146    1.0710    0.2876 H.spc      1 <1>        0.000
     14 H           2.6857   -0.6904    2.7562 H.spc      1 <1>        0.000
     15 H           5.0369    1.0969    1.7339 H.spc      1 <1>        0.000
     16 H           6.3591    0.2098    3.4406 H.spc      1 <1>        0.000
     17 H           4.6779   -2.4951    2.8714 H.spc      1 <1>        0.000
@<TRIPOS>BOND
     1    7    9 2  
     2    6    7 1  
     3    7    8 1  
     4    1    2 2  
     5    2    3 1  
     6    3    4 2  
     7    4    5 1  
     8    5    6 2  
     9    1   10 1  
    10    1   11 1  
    11    2   12 1  
    12    3   13 1  
    13    4   14 1  
    14    5   15 1  
    15    6   16 1  
    16    8   17 1  
# Name:          frag3-175-13/96164 -- energy: 1.686247
# Creation time: Sat Jun  5 12:53:07 2010


@<TRIPOS>MOLECULE
frag3-175-13/96164 -- energy: 1.686247
   17    16     1     1     1
SMALL
USER_CHARGES


@<TRIPOS>ATOM
      1 C53         1.1203   -0.9461    0.4557 C.2        1 <1>        0.000
      2 C55         1.3370    0.2334    1.0420 C.2        1 <1>        0.000
      3 C58         2.4775    0.5005    1.8894 C.2        1 <1>        0.000
      4 C61         3.7423    0.3888    1.4425 C.2        1 <1>        0.000
      5 C63         4.9229    0.6214    2.2576 C.2        1 <1>        0.000
      6 C64         5.2630   -0.0569    3.3736 C.2        1 <1>        0.000
      7 C65         4.5144   -1.1991    3.9460 C.2        1 <1>        0.000
      8 O20         3.5881   -1.8444    3.2380 O.3        1 <1>        0.000
      9 O21         4.7301   -1.5695    5.0927 O.2        1 <1>        0.000
     10 H           1.8220   -1.7665    0.6060 H.spc      1 <1>        0.000
     11 H           0.2417   -1.0888   -0.1734 H.spc      1 <1>        0.000
     12 H           0.6181    1.0352    0.8734 H.spc      1 <1>        0.000
     13 H           2.3078    0.8019    2.9231 H.spc      1 <1>        0.000
     14 H           3.8909    0.1052    0.4006 H.spc      1 <1>        0.000
     15 H           5.5957    1.4172    1.9380 H.spc      1 <1>        0.000
     16 H           6.1639    0.2627    3.8973 H.spc      1 <1>        0.000
     17 H           3.5238   -1.4519    2.3643 H.spc      1 <1>        0.000
@<TRIPOS>BOND
     1    7    9 2  
     2    6    7 1  
     3    7    8 1  
     4    1    2 2  
     5    2    3 1  
     6    3    4 2  
     7    4    5 1  
     8    5    6 2  
     9    1   10 1  
    10    1   11 1  
    11    2   12 1  
    12    3   13 1  
    13    4   14 1  
    14    5   15 1  
    15    6   16 1  
    16    8   17 1  
# Name:          frag3-175-13/96164 -- energy: -1.348240
# Creation time: Sat Jun  5 12:53:07 2010


@<TRIPOS>MOLECULE
frag3-175-13/96164 -- energy: -1.348240
   17    16     1     1     1
SMALL
USER_CHARGES


@<TRIPOS>ATOM
      1 C53         0.4170    0.4803   -0.2910 C.2        1 <1>        0.000
      2 C55         1.1863   -0.0743    0.6441 C.2        1 <1>        0.000
      3 C58         2.5080    0.4113    0.9878 C.2        1 <1>        0.000
      4 C61         3.2357   -0.1229    1.9752 C.2        1 <1>        0.000
      5 C63         4.5575    0.3392    2.3756 C.2        1 <1>        0.000
      6 C64         5.3005   -0.1302    3.3961 C.2        1 <1>        0.000
      7 C65         4.9127   -1.2468    4.2933 C.2        1 <1>        0.000
      8 O20         5.7839   -2.2170    4.5868 O.3        1 <1>        0.000
      9 O21         3.7941   -1.3115    4.7697 O.2        1 <1>        0.000
     10 H           0.7733    1.3484   -0.8455 H.spc      1 <1>        0.000
     11 H          -0.5690    0.0661   -0.5018 H.spc      1 <1>        0.000
     12 H           0.8007   -0.9412    1.1806 H.spc      1 <1>        0.000
     13 H           2.9249    1.2433    0.4203 H.spc      1 <1>        0.000
     14 H           2.8083   -0.9650    2.5195 H.spc      1 <1>        0.000
     15 H           4.9904    1.1491    1.7884 H.spc      1 <1>        0.000
     16 H           6.2631    0.3480    3.5774 H.spc      1 <1>        0.000
     17 H           6.6187   -2.0396    4.1472 H.spc      1 <1>        0.000
@<TRIPOS>BOND
     1    7    9 2  
     2    6    7 1  
     3    7    8 1  
     4    1    2 2  
     5    2    3 1  
     6    3    4 2  
     7    4    5 1  
     8    5    6 2  
     9    1   10 1  
    10    1   11 1  
    11    2   12 1  
    12    3   13 1  
    13    4   14 1  
    14    5   15 1  
    15    6   16 1  
    16    8   17 1  
# Name:          frag3-175-13/96164 -- energy: -1.503072
# Creation time: Sat Jun  5 12:53:07 2010


@<TRIPOS>MOLECULE
frag3-175-13/96164 -- energy: -1.503072
   17    16     1     1     1
SMALL
USER_CHARGES


@<TRIPOS>ATOM
      1 C53         0.3104    0.4819    0.6686 C.2        1 <1>        0.000
      2 C55         1.4301   -0.1326    0.2836 C.2        1 <1>        0.000
      3 C58         2.7516    0.2967    0.6857 C.2        1 <1>        0.000
      4 C61         3.2901   -0.0497    1.8643 C.2        1 <1>        0.000
      5 C63         4.5982    0.3707    2.3372 C.2        1 <1>        0.000
      6 C64         5.2730   -0.1233    3.3936 C.2        1 <1>        0.000
      7 C65         4.8047   -1.2242    4.2656 C.2        1 <1>        0.000
      8 O20         5.1278   -2.4914    3.9944 O.3        1 <1>        0.000
      9 O21         4.1097   -0.9999    5.2444 O.2        1 <1>        0.000
     10 H           0.3638    1.3546    1.3194 H.spc      1 <1>        0.000
     11 H          -0.6579    0.1113    0.3324 H.spc      1 <1>        0.000
     12 H           1.3448   -1.0027   -0.3673 H.spc      1 <1>        0.000
     13 H           3.3301    0.9237    0.0072 H.spc      1 <1>        0.000
     14 H           2.7021   -0.6953    2.5166 H.spc      1 <1>        0.000
     15 H           5.0849    1.1700    1.7783 H.spc      1 <1>        0.000
     16 H           6.2403    0.3230    3.6245 H.spc      1 <1>        0.000
     17 H           5.6723   -2.5195    3.2042 H.spc      1 <1>        0.000
@<TRIPOS>BOND
     1    7    9 2  
     2    6    7 1  
     3    7    8 1  
     4    1    2 2  
     5    2    3 1  
     6    3    4 2  
     7    4    5 1  
     8    5    6 2  
     9    1   10 1  
    10    1   11 1  
    11    2   12 1  
    12    3   13 1  
    13    4   14 1  
    14    5   15 1  
    15    6   16 1  
    16    8   17 1  
# Name:          frag3-175-13/96164 -- energy: -1.362109
# Creation time: Sat Jun  5 12:53:07 2010


@<TRIPOS>MOLECULE
frag3-175-13/96164 -- energy: -1.362109
   17    16     1     1     1
SMALL
USER_CHARGES


@<TRIPOS>ATOM
      1 C53         1.0661    0.0426   -0.2588 C.2        1 <1>        0.000
      2 C55         1.2338   -0.1821    1.0392 C.2        1 <1>        0.000
      3 C58         2.3067    0.2437    1.8518 C.2        1 <1>        0.000
      4 C61         3.6061    0.1649    1.5645 C.2        1 <1>        0.000
      5 C63         4.7445    0.5365    2.3117 C.2        1 <1>        0.000
      6 C64         5.2303   -0.0250    3.4281 C.2        1 <1>        0.000
      7 C65         4.6124   -1.2027    4.0494 C.2        1 <1>        0.000
      8 O20         5.4427   -1.9069    4.8207 O.3        1 <1>        0.000
      9 O21         3.4530   -1.5428    3.9309 O.2        1 <1>        0.000
     10 H           1.8094    0.6155   -0.8132 H.spc      1 <1>        0.000
     11 H           0.1852   -0.3459   -0.7698 H.spc      1 <1>        0.000
     12 H           0.4540   -0.7614    1.5336 H.spc      1 <1>        0.000
     13 H           2.0454    0.6827    2.8147 H.spc      1 <1>        0.000
     14 H           3.8273   -0.2590    0.5850 H.spc      1 <1>        0.000
     15 H           5.3019    1.3924    1.9311 H.spc      1 <1>        0.000
     16 H           6.1165    0.4089    3.8913 H.spc      1 <1>        0.000
     17 H           6.3137   -1.5037    4.8028 H.spc      1 <1>        0.000
@<TRIPOS>BOND
     1    7    9 2  
     2    6    7 1  
     3    7    8 1  
     4    1    2 2  
     5    2    3 1  
     6    3    4 2  
     7    4    5 1  
     8    5    6 2  
     9    1   10 1  
    10    1   11 1  
    11    2   12 1  
    12    3   13 1  
    13    4   14 1  
    14    5   15 1  
    15    6   16 1  
    16    8   17 1  
# Name:          frag3-175-13/96164 -- energy: -1.659329
# Creation time: Sat Jun  5 12:53:07 2010


@<TRIPOS>MOLECULE
frag3-175-13/96164 -- energy: -1.659329
   17    16     1     1     1
SMALL
USER_CHARGES


@<TRIPOS>ATOM
      1 C53         0.9771   -0.9372    0.0665 C.2        1 <1>        0.000
      2 C55         1.5086    0.0386    0.8014 C.2        1 <1>        0.000
      3 C58         2.8662    0.0078    1.3121 C.2        1 <1>        0.000
      4 C61         3.3288    0.9249    2.1705 C.2        1 <1>        0.000
      5 C63         4.6837    0.9435    2.7089 C.2        1 <1>        0.000
      6 C64         5.2386   -0.0032    3.4907 C.2        1 <1>        0.000
      7 C65         4.5807   -1.2597    3.9263 C.2        1 <1>        0.000
      8 O20         3.2916   -1.2885    4.2651 O.3        1 <1>        0.000
      9 O21         5.2205   -2.2981    3.9958 O.2        1 <1>        0.000
     10 H           1.5697   -1.8181   -0.1803 H.spc      1 <1>        0.000
     11 H          -0.0504   -0.8547   -0.2879 H.spc      1 <1>        0.000
     12 H           0.8905    0.9065    1.0313 H.spc      1 <1>        0.000
     13 H           3.5329   -0.7902    0.9853 H.spc      1 <1>        0.000
     14 H           2.6454    1.7121    2.4890 H.spc      1 <1>        0.000
     15 H           5.3050    1.8025    2.4555 H.spc      1 <1>        0.000
     16 H           6.2591    0.1689    3.8328 H.spc      1 <1>        0.000
     17 H           2.9156   -0.4110    4.1639 H.spc      1 <1>        0.000
@<TRIPOS>BOND
     1    7    9 2  
     2    6    7 1  
     3    7    8 1  
     4    1    2 2  
     5    2    3 1  
     6    3    4 2  
     7    4    5 1  
     8    5    6 2  
     9    1   10 1  
    10    1   11 1  
    11    2   12 1  
    12    3   13 1  
    13    4   14 1  
    14    5   15 1  
    15    6   16 1  
    16    8   17 1  
# Name:          frag3-175-13/96164 -- energy: -1.426118
# Creation time: Sat Jun  5 12:53:08 2010


@<TRIPOS>MOLECULE
frag3-175-13/96164 -- energy: -1.426118
   17    16     1     1     1
SMALL
USER_CHARGES


@<TRIPOS>ATOM
      1 C53         0.8410    0.0043   -0.7168 C.2        1 <1>        0.000
      2 C55         1.2619   -0.1182    0.5411 C.2        1 <1>        0.000
      3 C58         2.4866    0.4782    1.0383 C.2        1 <1>        0.000
      4 C61         3.0964    0.0448    2.1474 C.2        1 <1>        0.000
      5 C63         4.3186    0.6145    2.6996 C.2        1 <1>        0.000
      6 C64         5.1126    0.0614    3.6350 C.2        1 <1>        0.000
      7 C65         4.9096   -1.2720    4.2533 C.2        1 <1>        0.000
      8 O20         4.8937   -1.4187    5.5798 O.3        1 <1>        0.000
      9 O21         4.7752   -2.2662    3.5597 O.2        1 <1>        0.000
     10 H           1.4276    0.5779   -1.4344 H.spc      1 <1>        0.000
     11 H          -0.0901   -0.4691   -1.0285 H.spc      1 <1>        0.000
     12 H           0.6527   -0.6982    1.2343 H.spc      1 <1>        0.000
     13 H           2.9265    1.3101    0.4882 H.spc      1 <1>        0.000
     14 H           2.6464   -0.7953    2.6763 H.spc      1 <1>        0.000
     15 H           4.6209    1.5888    2.3156 H.spc      1 <1>        0.000
     16 H           5.9751    0.6402    3.9653 H.spc      1 <1>        0.000
     17 H           5.0091   -0.5617    5.9968 H.spc      1 <1>        0.000
@<TRIPOS>BOND
     1    7    9 2  
     2    6    7 1  
     3    7    8 1  
     4    1    2 2  
     5    2    3 1  
     6    3    4 2  
     7    4    5 1  
     8    5    6 2  
     9    1   10 1  
    10    1   11 1  
    11    2   12 1  
    12    3   13 1  
    13    4   14 1  
    14    5   15 1  
    15    6   16 1  
    16    8   17 1  
# Name:          frag3-175-13/96164 -- energy: -1.519742
# Creation time: Sat Jun  5 12:53:08 2010


@<TRIPOS>MOLECULE
frag3-175-13/96164 -- energy: -1.519742
   17    16     1     1     1
SMALL
USER_CHARGES


@<TRIPOS>ATOM
      1 C53         0.4974    0.2707   -0.3402 C.2        1 <1>        0.000
      2 C55         1.5412   -0.3174    0.2433 C.2        1 <1>        0.000
      3 C58         2.5946    0.4149    0.9229 C.2        1 <1>        0.000
      4 C61         3.2512   -0.0901    1.9742 C.2        1 <1>        0.000
      5 C63         4.2999    0.6094    2.7080 C.2        1 <1>        0.000
      6 C64         5.0116    0.1286    3.7427 C.2        1 <1>        0.000
      7 C65         4.8900   -1.2370    4.3098 C.2        1 <1>        0.000
      8 O20         3.8501   -1.5814    5.0704 O.3        1 <1>        0.000
      9 O21         5.7596   -2.0697    4.1063 O.2        1 <1>        0.000
     10 H           0.4033    1.3565   -0.3221 H.spc      1 <1>        0.000
     11 H          -0.2622   -0.3340   -0.8355 H.spc      1 <1>        0.000
     12 H           1.6075   -1.4048    0.2085 H.spc      1 <1>        0.000
     13 H           2.8597    1.4097    0.5648 H.spc      1 <1>        0.000
     14 H           2.9837   -1.0937    2.3049 H.spc      1 <1>        0.000
     15 H           4.5300    1.6247    2.3849 H.spc      1 <1>        0.000
     16 H           5.7384    0.7979    4.2031 H.spc      1 <1>        0.000
     17 H           3.2493   -0.8364    5.1455 H.spc      1 <1>        0.000
@<TRIPOS>BOND
     1    7    9 2  
     2    6    7 1  
     3    7    8 1  
     4    1    2 2  
     5    2    3 1  
     6    3    4 2  
     7    4    5 1  
     8    5    6 2  
     9    1   10 1  
    10    1   11 1  
    11    2   12 1  
    12    3   13 1  
    13    4   14 1  
    14    5   15 1  
    15    6   16 1  
    16    8   17 1  
# Name:          frag3-175-13/96164 -- energy: -1.590787
# Creation time: Sat Jun  5 12:53:08 2010


@<TRIPOS>MOLECULE
frag3-175-13/96164 -- energy: -1.590787
   17    16     1     1     1
SMALL
USER_CHARGES


@<TRIPOS>ATOM
      1 C53         0.7459   -0.6464    0.4889 C.2        1 <1>        0.000
      2 C55         1.2527    0.5831    0.6136 C.2        1 <1>        0.000
      3 C58         2.6382    0.8381    0.9439 C.2        1 <1>        0.000
      4 C61         3.2833    0.1439    1.8965 C.2        1 <1>        0.000
      5 C63         4.6654    0.3592    2.2881 C.2        1 <1>        0.000
      6 C64         5.3256   -0.2525    3.2886 C.2        1 <1>        0.000
      7 C65         4.7596   -1.3023    4.1719 C.2        1 <1>        0.000
      8 O20         4.5521   -2.5397    3.7160 O.3        1 <1>        0.000
      9 O21         4.4727   -1.0554    5.3300 O.2        1 <1>        0.000
     10 H           1.3848   -1.5169    0.6378 H.spc      1 <1>        0.000
     11 H          -0.3065   -0.7792    0.2382 H.spc      1 <1>        0.000
     12 H           0.5908    1.4352    0.4591 H.spc      1 <1>        0.000
     13 H           3.1752    1.6175    0.4032 H.spc      1 <1>        0.000
     14 H           2.7283   -0.6388    2.4137 H.spc      1 <1>        0.000
     15 H           5.2270    1.0936    1.7107 H.spc      1 <1>        0.000
     16 H           6.3588    0.0471    3.4643 H.spc      1 <1>        0.000
     17 H           4.8211   -2.5898    2.7958 H.spc      1 <1>        0.000
@<TRIPOS>BOND
     1    7    9 2  
     2    6    7 1  
     3    7    8 1  
     4    1    2 2  
     5    2    3 1  
     6    3    4 2  
     7    4    5 1  
     8    5    6 2  
     9    1   10 1  
    10    1   11 1  
    11    2   12 1  
    12    3   13 1  
    13    4   14 1  
    14    5   15 1  
    15    6   16 1  
    16    8   17 1  
# Name:          frag3-175-13/96164 -- energy: -1.473623
# Creation time: Sat Jun  5 12:53:08 2010


@<TRIPOS>MOLECULE
frag3-175-13/96164 -- energy: -1.473623
   17    16     1     1     1
SMALL
USER_CHARGES


@<TRIPOS>ATOM
      1 C53         0.4667    0.3088    0.8394 C.2        1 <1>        0.000
      2 C55         1.5312   -0.2721    0.2792 C.2        1 <1>        0.000
      3 C58         2.8934    0.0224    0.6767 C.2        1 <1>        0.000
      4 C61         3.2248    0.2552    1.9563 C.2        1 <1>        0.000
      5 C63         4.5660    0.5724    2.4221 C.2        1 <1>        0.000
      6 C64         5.2427   -0.0539    3.4023 C.2        1 <1>        0.000
      7 C65         4.7485   -1.2155    4.1825 C.2        1 <1>        0.000
      8 O20         4.0404   -2.1854    3.6021 O.3        1 <1>        0.000
      9 O21         4.9818   -1.3038    5.3770 O.2        1 <1>        0.000
     10 H           0.6014    1.0420    1.6347 H.spc      1 <1>        0.000
     11 H          -0.5366    0.0496    0.5013 H.spc      1 <1>        0.000
     12 H           1.3676   -1.0017   -0.5139 H.spc      1 <1>        0.000
     13 H           3.6716    0.0558   -0.0858 H.spc      1 <1>        0.000
     14 H           2.4308    0.2027    2.7012 H.spc      1 <1>        0.000
     15 H           5.0737    1.4005    1.9275 H.spc      1 <1>        0.000
     16 H           6.2365    0.3234    3.6432 H.spc      1 <1>        0.000
     17 H           3.9338   -1.9876    2.6688 H.spc      1 <1>        0.000
@<TRIPOS>BOND
     1    7    9 2  
     2    6    7 1  
     3    7    8 1  
     4    1    2 2  
     5    2    3 1  
     6    3    4 2  
     7    4    5 1  
     8    5    6 2  
     9    1   10 1  
    10    1   11 1  
    11    2   12 1  
    12    3   13 1  
    13    4   14 1  
    14    5   15 1  
    15    6   16 1  
    16    8   17 1  
# Name:          frag3-175-13/96164 -- energy: -1.297170
# Creation time: Sat Jun  5 12:53:08 2010


@<TRIPOS>MOLECULE
frag3-175-13/96164 -- energy: -1.297170
   17    16     1     1     1
SMALL
USER_CHARGES


@<TRIPOS>ATOM
      1 C53         0.4283   -0.1194    0.8273 C.2        1 <1>        0.000
      2 C55         1.5544    0.0795    0.1383 C.2        1 <1>        0.000
      3 C58         2.7657    0.6017    0.7321 C.2        1 <1>        0.000
      4 C61         3.3792   -0.0086    1.7580 C.2        1 <1>        0.000
      5 C63         4.5798    0.4775    2.4171 C.2        1 <1>        0.000
      6 C64         5.1702   -0.0431    3.5110 C.2        1 <1>        0.000
      7 C65         4.7069   -1.2530    4.2351 C.2        1 <1>        0.000
      8 O20         5.5880   -2.0824    4.8019 O.3        1 <1>        0.000
      9 O21         3.5230   -1.5241    4.3167 O.2        1 <1>        0.000
     10 H           0.3918    0.1147    1.8912 H.spc      1 <1>        0.000
     11 H          -0.4546   -0.5159    0.3259 H.spc      1 <1>        0.000
     12 H           1.5614   -0.1636   -0.9242 H.spc      1 <1>        0.000
     13 H           3.1943    1.5211    0.3332 H.spc      1 <1>        0.000
     14 H           2.9444   -0.9386    2.1243 H.spc      1 <1>        0.000
     15 H           5.0531    1.3568    1.9801 H.spc      1 <1>        0.000
     16 H           6.0563    0.4635    3.8935 H.spc      1 <1>        0.000
     17 H           6.4768   -1.7481    4.6611 H.spc      1 <1>        0.000
@<TRIPOS>BOND
     1    7    9 2  
     2    6    7 1  
     3    7    8 1  
     4    1    2 2  
     5    2    3 1  
     6    3    4 2  
     7    4    5 1  
     8    5    6 2  
     9    1   10 1  
    10    1   11 1  
    11    2   12 1  
    12    3   13 1  
    13    4   14 1  
    14    5   15 1  
    15    6   16 1  
    16    8   17 1  
