#      Rotatable Fragment
#      Build by yxyuan
#
# Name:          frag4-470-99/150395
# Creation time: Sat Jun  5 12:53:37 2010


@<TRIPOS>MOLECULE
frag4-470-99/150395
    8     8     1     1     1
SMALL
USER_CHARGES


@<TRIPOS>ATOM
      1 C16         1.2537   -0.0563   -0.1263 C.2        1 <1>        0.000
      2 N2          0.4220   -1.1836   -0.0419 N.2        1 <1>        0.000
      3 O2          0.6407    1.0599    0.0588 O.3        1 <1>        0.000
      4 N3         -0.7859   -0.6223    0.0815 N.2        1 <1>        0.000
      5 C18        -0.6666    0.7973    0.2038 C.3        1 <1>        0.000
      6 H           2.3225   -0.1205   -0.3303 H.spc      1 <1>        0.000
      7 H          -1.2640    1.3148   -0.5468 H.spc      1 <1>        0.000
      8 H          -1.0407    1.1486    1.1655 H.spc      1 <1>        0.000
@<TRIPOS>BOND
     1    1    2 1  
     2    1    3 2  
     3    2    4 2  
     4    3    5 1  
     5    4    5 1  
     6    1    6 1  
     7    5    7 1  
     8    5    8 1  
# Name:          frag4-470-99/150395 -- energy: -0.175711
# Creation time: Sat Jun  5 12:53:37 2010


@<TRIPOS>MOLECULE
frag4-470-99/150395 -- energy: -0.175711
    8     8     1     1     1
SMALL
USER_CHARGES


@<TRIPOS>ATOM
      1 C16         1.2537   -0.0563   -0.1263 C.2        1 <1>        0.000
      2 N2          0.4220   -1.1836   -0.0419 N.2        1 <1>        0.000
      3 O2          0.6407    1.0599    0.0588 O.3        1 <1>        0.000
      4 N3         -0.7859   -0.6223    0.0815 N.2        1 <1>        0.000
      5 C18        -0.6666    0.7973    0.2038 C.3        1 <1>        0.000
      6 H           2.3225   -0.1205   -0.3303 H.spc      1 <1>        0.000
      7 H          -1.2640    1.3148   -0.5468 H.spc      1 <1>        0.000
      8 H          -1.0407    1.1486    1.1655 H.spc      1 <1>        0.000
@<TRIPOS>BOND
     1    1    2 1  
     2    1    3 2  
     3    2    4 2  
     4    3    5 1  
     5    4    5 1  
     6    1    6 1  
     7    5    7 1  
     8    5    8 1  
