#      Rotatable Fragment
#      Build by yxyuan
#
# Name:          frag4-391-66/48856
# Creation time: Sat Jun  5 12:53:42 2010


@<TRIPOS>MOLECULE
frag4-391-66/48856
   26    28     1     1     1
SMALL
USER_CHARGES


@<TRIPOS>ATOM
      1 C1          2.5888    1.7760   -0.4350 C.ar       1 <1>        0.000
      2 C2          1.3651    1.2982    0.0459 C.ar       1 <1>        0.000
      3 C3          1.3362    0.3174    1.0430 C.ar       1 <1>        0.000
      4 C4          2.5416   -0.1764    1.5549 C.ar       1 <1>        0.000
      5 C5          3.7651    0.3014    1.0773 C.ar       1 <1>        0.000
      6 C6          3.7891    1.2792    0.0797 C.ar       1 <1>        0.000
      7 C7          0.0158   -0.2351    1.5942 C.3        1 <1>        0.000
      8 C8         -1.2740    0.3522    1.0073 C.ar       1 <1>        0.000
      9 C9         -1.2493    1.3330    0.0102 C.ar       1 <1>        0.000
     10 C10        -2.4462    1.8431   -0.5038 C.ar       1 <1>        0.000
     11 C11        -3.6730    1.3786   -0.0223 C.ar       1 <1>        0.000
     12 C12        -3.7024    0.4010    0.9752 C.ar       1 <1>        0.000
     13 C13        -2.5057   -0.1091    1.4859 C.ar       1 <1>        0.000
     14 C14         0.0723    1.8432   -0.5130 C.3        1 <1>        0.000
     15 H           2.6060    2.5384   -1.2138 H.spc      1 <1>        0.000
     16 H           2.5260   -0.9400    2.3326 H.spc      1 <1>        0.000
     17 H           4.6990   -0.0882    1.4825 H.spc      1 <1>        0.000
     18 H           4.7414    1.6534   -0.2960 H.spc      1 <1>        0.000
     19 H           0.0051   -1.2955    1.3422 H.spc      1 <1>        0.000
     20 H           0.0046    0.0153    2.6550 H.spc      1 <1>        0.000
     21 H          -2.4218    2.6054   -1.2825 H.spc      1 <1>        0.000
     22 H          -4.6043    1.7779   -0.4239 H.spc      1 <1>        0.000
     23 H          -4.6571    0.0367    1.3546 H.spc      1 <1>        0.000
     24 H          -2.5318   -0.8726    2.2634 H.spc      1 <1>        0.000
     25 H           0.0827    1.5484   -1.5623 H.spc      1 <1>        0.000
     26 H           0.0827    2.8996   -0.2447 H.spc      1 <1>        0.000
@<TRIPOS>BOND
     1    7    8 1  
     2   11   12 ar 
     3    2   14 1  
     4   12   13 ar 
     5    1    6 ar 
     6    2    3 ar 
     7    1    2 ar 
     8    8   13 ar 
     9    3    7 1  
    10    9   14 1  
    11    9   10 ar 
    12    4    5 ar 
    13    8    9 ar 
    14    3    4 ar 
    15   10   11 ar 
    16    5    6 ar 
    17    1   15 1  
    18    4   16 1  
    19    5   17 1  
    20    6   18 1  
    21    7   19 1  
    22    7   20 1  
    23   10   21 1  
    24   11   22 1  
    25   12   23 1  
    26   13   24 1  
    27   14   25 1  
    28   14   26 1  
# Name:          frag4-391-66/48856 -- energy: -1.725539
# Creation time: Sat Jun  5 12:53:42 2010


@<TRIPOS>MOLECULE
frag4-391-66/48856 -- energy: -1.725539
   26    28     1     1     1
SMALL
USER_CHARGES


@<TRIPOS>ATOM
      1 C1          2.5888    1.7760   -0.4350 C.ar       1 <1>        0.000
      2 C2          1.3651    1.2982    0.0459 C.ar       1 <1>        0.000
      3 C3          1.3362    0.3174    1.0430 C.ar       1 <1>        0.000
      4 C4          2.5416   -0.1764    1.5549 C.ar       1 <1>        0.000
      5 C5          3.7651    0.3014    1.0773 C.ar       1 <1>        0.000
      6 C6          3.7891    1.2792    0.0797 C.ar       1 <1>        0.000
      7 C7          0.0158   -0.2351    1.5942 C.3        1 <1>        0.000
      8 C8         -1.2740    0.3522    1.0073 C.ar       1 <1>        0.000
      9 C9         -1.2493    1.3330    0.0102 C.ar       1 <1>        0.000
     10 C10        -2.4462    1.8431   -0.5038 C.ar       1 <1>        0.000
     11 C11        -3.6730    1.3786   -0.0223 C.ar       1 <1>        0.000
     12 C12        -3.7024    0.4010    0.9752 C.ar       1 <1>        0.000
     13 C13        -2.5057   -0.1091    1.4859 C.ar       1 <1>        0.000
     14 C14         0.0723    1.8432   -0.5130 C.3        1 <1>        0.000
     15 H           2.6060    2.5384   -1.2138 H.spc      1 <1>        0.000
     16 H           2.5260   -0.9400    2.3326 H.spc      1 <1>        0.000
     17 H           4.6990   -0.0882    1.4825 H.spc      1 <1>        0.000
     18 H           4.7414    1.6534   -0.2960 H.spc      1 <1>        0.000
     19 H           0.0051   -1.2955    1.3422 H.spc      1 <1>        0.000
     20 H           0.0046    0.0153    2.6550 H.spc      1 <1>        0.000
     21 H          -2.4218    2.6054   -1.2825 H.spc      1 <1>        0.000
     22 H          -4.6043    1.7779   -0.4239 H.spc      1 <1>        0.000
     23 H          -4.6571    0.0367    1.3546 H.spc      1 <1>        0.000
     24 H          -2.5318   -0.8726    2.2634 H.spc      1 <1>        0.000
     25 H           0.0827    1.5484   -1.5623 H.spc      1 <1>        0.000
     26 H           0.0827    2.8996   -0.2447 H.spc      1 <1>        0.000
@<TRIPOS>BOND
     1    7    8 1  
     2   11   12 ar 
     3    2   14 1  
     4   12   13 ar 
     5    1    6 ar 
     6    2    3 ar 
     7    1    2 ar 
     8    8   13 ar 
     9    3    7 1  
    10    9   14 1  
    11    9   10 ar 
    12    4    5 ar 
    13    8    9 ar 
    14    3    4 ar 
    15   10   11 ar 
    16    5    6 ar 
    17    1   15 1  
    18    4   16 1  
    19    5   17 1  
    20    6   18 1  
    21    7   19 1  
    22    7   20 1  
    23   10   21 1  
    24   11   22 1  
    25   12   23 1  
    26   13   24 1  
    27   14   25 1  
    28   14   26 1  
