#      Rotatable Fragment
#      Build by yxyuan
#
# Name:          frag5-562-152/138278
# Creation time: Sat Jun  5 12:53:44 2010


@<TRIPOS>MOLECULE
frag5-562-152/138278
   14    14     1     1     1
SMALL
USER_CHARGES


@<TRIPOS>ATOM
      1 C17         2.3907   -0.2372   -0.1956 C.2        1 <1>        0.000
      2 C18         0.9161   -0.0881   -0.0771 C.ar       1 <1>        0.000
      3 O3          3.1149    0.7469   -0.2577 O.2        1 <1>        0.000
      4 C19         0.0816   -1.2116    0.0335 C.ar       1 <1>        0.000
      5 C20         0.3168    1.1810   -0.0701 C.ar       1 <1>        0.000
      6 C21        -1.3144   -1.0608    0.1468 C.ar       1 <1>        0.000
      7 C22        -1.0782    1.3163    0.0453 C.ar       1 <1>        0.000
      8 C23        -1.9141    0.2022    0.1554 C.ar       1 <1>        0.000
      9 F1         -3.2400    0.3423    0.2639 F          1 <1>        0.000
     10 H           2.8311   -1.2337   -0.2275 H.spc      1 <1>        0.000
     11 H           0.5181   -2.2104    0.0317 H.spc      1 <1>        0.000
     12 H           0.9395    2.0716   -0.1550 H.spc      1 <1>        0.000
     13 H          -1.9412   -1.9487    0.2296 H.spc      1 <1>        0.000
     14 H          -1.5177    2.3138    0.0489 H.spc      1 <1>        0.000
@<TRIPOS>BOND
     1    1    2 1  
     2    1    3 2  
     3    2    4 ar 
     4    2    5 ar 
     5    4    6 ar 
     6    5    7 ar 
     7    6    8 ar 
     8    7    8 ar 
     9    8    9 1  
    10    1   10 1  
    11    4   11 1  
    12    5   12 1  
    13    6   13 1  
    14    7   14 1  
# Name:          frag5-562-152/138278 -- energy: -0.370938
# Creation time: Sat Jun  5 12:53:44 2010


@<TRIPOS>MOLECULE
frag5-562-152/138278 -- energy: -0.370938
   14    14     1     1     1
SMALL
USER_CHARGES


@<TRIPOS>ATOM
      1 C17         2.3907   -0.2372   -0.1956 C.2        1 <1>        0.000
      2 C18         0.9161   -0.0881   -0.0771 C.ar       1 <1>        0.000
      3 O3          3.1149    0.7469   -0.2577 O.2        1 <1>        0.000
      4 C19         0.0816   -1.2116    0.0335 C.ar       1 <1>        0.000
      5 C20         0.3168    1.1810   -0.0701 C.ar       1 <1>        0.000
      6 C21        -1.3144   -1.0608    0.1468 C.ar       1 <1>        0.000
      7 C22        -1.0782    1.3163    0.0453 C.ar       1 <1>        0.000
      8 C23        -1.9141    0.2022    0.1554 C.ar       1 <1>        0.000
      9 F1         -3.2400    0.3423    0.2639 F          1 <1>        0.000
     10 H           2.8311   -1.2337   -0.2275 H.spc      1 <1>        0.000
     11 H           0.5181   -2.2104    0.0317 H.spc      1 <1>        0.000
     12 H           0.9395    2.0716   -0.1550 H.spc      1 <1>        0.000
     13 H          -1.9412   -1.9487    0.2296 H.spc      1 <1>        0.000
     14 H          -1.5177    2.3138    0.0489 H.spc      1 <1>        0.000
@<TRIPOS>BOND
     1    1    2 1  
     2    1    3 2  
     3    2    4 ar 
     4    2    5 ar 
     5    4    6 ar 
     6    5    7 ar 
     7    6    8 ar 
     8    7    8 ar 
     9    8    9 1  
    10    1   10 1  
    11    4   11 1  
    12    5   12 1  
    13    6   13 1  
    14    7   14 1  
