#      Rotatable Fragment
#      Build by yxyuan
#
# Name:          frag3-226-6/96164
# Creation time: Sat Jun  5 12:53:14 2010


@<TRIPOS>MOLECULE
frag3-226-6/96164
   10     9     1     1     1
SMALL
USER_CHARGES


@<TRIPOS>ATOM
      1 C41         1.8119   -0.2983   -0.0695 C.2        1 <1>        0.000
      2 C44         0.6221    0.2627   -0.2000 C.2        1 <1>        0.000
      3 N1         -0.5487   -0.1750    0.2983 N.am       1 <1>        0.000
      4 C45        -1.8216    0.1997    0.0091 C.2        1 <1>        0.000
      5 O13        -2.8688   -0.0202    0.5993 O.2        1 <1>        0.000
      6 H           1.9190   -1.2238    0.4963 H.spc      1 <1>        0.000
      7 H           2.6859    0.1646   -0.5277 H.spc      1 <1>        0.000
      8 H           0.5852    1.1862   -0.7778 H.spc      1 <1>        0.000
      9 H          -0.4671   -0.9047    1.0063 H.spc      1 <1>        0.000
     10 H          -1.9264    0.7942   -0.8985 H.spc      1 <1>        0.000
@<TRIPOS>BOND
     1    1    2 2  
     2    2    3 1  
     3    3    4 am 
     4    4    5 2  
     5    1    6 1  
     6    1    7 1  
     7    2    8 1  
     8    3    9 1  
     9    4   10 1  
# Name:          frag3-226-6/96164
# Creation time: Sat Jun  5 12:53:14 2010


@<TRIPOS>MOLECULE
frag3-226-6/96164
   10     9     1     1     1
SMALL
USER_CHARGES


@<TRIPOS>ATOM
      1 C41         1.4408   -0.6188    0.1517 C.2        1 <1>        0.000
      2 C44         0.7056    0.4057   -0.2791 C.2        1 <1>        0.000
      3 N1         -0.6343    0.5089   -0.2392 N.am       1 <1>        0.000
      4 C45        -1.5492   -0.1683    0.5190 C.2        1 <1>        0.000
      5 O13        -2.7680   -0.1585    0.4848 O.2        1 <1>        0.000
      6 H           0.9562   -1.4906    0.5913 H.spc      1 <1>        0.000
      7 H           2.5268   -0.5850    0.0645 H.spc      1 <1>        0.000
      8 H           1.2473    1.2483   -0.7089 H.spc      1 <1>        0.000
      9 H          -1.0310    1.2013   -0.8745 H.spc      1 <1>        0.000
     10 H          -1.1190   -0.8230    1.2768 H.spc      1 <1>        0.000
@<TRIPOS>BOND
     1    1    2 2  
     2    2    3 1  
     3    3    4 am 
     4    4    5 2  
     5    1    6 1  
     6    1    7 1  
     7    2    8 1  
     8    3    9 1  
     9    4   10 1  
# Name:          frag3-226-6/96164
# Creation time: Sat Jun  5 12:53:14 2010


@<TRIPOS>MOLECULE
frag3-226-6/96164
   10     9     1     1     1
SMALL
USER_CHARGES


@<TRIPOS>ATOM
      1 C41         1.0246   -0.7111    0.5080 C.2        1 <1>        0.000
      2 C44         0.6294    0.2511   -0.3196 C.2        1 <1>        0.000
      3 N1         -0.6280    0.7255   -0.4939 N.am       1 <1>        0.000
      4 C45        -1.7997    0.3156    0.0895 C.2        1 <1>        0.000
      5 O13        -2.0314   -0.6122    0.8533 O.2        1 <1>        0.000
      6 H           0.2977   -1.2139    1.1458 H.spc      1 <1>        0.000
      7 H           2.0756   -0.9973    0.5488 H.spc      1 <1>        0.000
      8 H           1.4069    0.7120   -0.9287 H.spc      1 <1>        0.000
      9 H          -0.7156    1.4984   -1.1537 H.spc      1 <1>        0.000
     10 H          -2.6706    0.9171   -0.1708 H.spc      1 <1>        0.000
@<TRIPOS>BOND
     1    1    2 2  
     2    2    3 1  
     3    3    4 am 
     4    4    5 2  
     5    1    6 1  
     6    1    7 1  
     7    2    8 1  
     8    3    9 1  
     9    4   10 1  
# Name:          frag3-226-6/96164
# Creation time: Sat Jun  5 12:53:14 2010


@<TRIPOS>MOLECULE
frag3-226-6/96164
   10     9     1     1     1
SMALL
USER_CHARGES


@<TRIPOS>ATOM
      1 C41         1.7197   -0.3098   -0.0508 C.2        1 <1>        0.000
      2 C44         0.4030   -0.3397   -0.1923 C.2        1 <1>        0.000
      3 N1         -0.4971    0.5948    0.2141 N.am       1 <1>        0.000
      4 C45        -1.8505    0.5055    0.3139 C.2        1 <1>        0.000
      5 O13        -2.5800   -0.4819    0.3523 O.2        1 <1>        0.000
      6 H           2.1958    0.5382    0.4415 H.spc      1 <1>        0.000
      7 H           2.3271   -1.1332   -0.4266 H.spc      1 <1>        0.000
      8 H          -0.0071   -1.2165   -0.6934 H.spc      1 <1>        0.000
      9 H          -0.0991    1.4945    0.4836 H.spc      1 <1>        0.000
     10 H          -2.3703    1.4620    0.3685 H.spc      1 <1>        0.000
@<TRIPOS>BOND
     1    1    2 2  
     2    2    3 1  
     3    3    4 am 
     4    4    5 2  
     5    1    6 1  
     6    1    7 1  
     7    2    8 1  
     8    3    9 1  
     9    4   10 1  
# Name:          frag3-226-6/96164 -- energy: -0.444901
# Creation time: Sat Jun  5 12:53:14 2010


@<TRIPOS>MOLECULE
frag3-226-6/96164 -- energy: -0.444901
   10     9     1     1     1
SMALL
USER_CHARGES


@<TRIPOS>ATOM
      1 C41         1.8119   -0.2983   -0.0695 C.2        1 <1>        0.000
      2 C44         0.6221    0.2627   -0.2000 C.2        1 <1>        0.000
      3 N1         -0.5487   -0.1750    0.2983 N.am       1 <1>        0.000
      4 C45        -1.8216    0.1997    0.0091 C.2        1 <1>        0.000
      5 O13        -2.8688   -0.0202    0.5993 O.2        1 <1>        0.000
      6 H           1.9190   -1.2238    0.4963 H.spc      1 <1>        0.000
      7 H           2.6859    0.1646   -0.5277 H.spc      1 <1>        0.000
      8 H           0.5852    1.1862   -0.7778 H.spc      1 <1>        0.000
      9 H          -0.4671   -0.9047    1.0063 H.spc      1 <1>        0.000
     10 H          -1.9264    0.7942   -0.8985 H.spc      1 <1>        0.000
@<TRIPOS>BOND
     1    1    2 2  
     2    2    3 1  
     3    3    4 am 
     4    4    5 2  
     5    1    6 1  
     6    1    7 1  
     7    2    8 1  
     8    3    9 1  
     9    4   10 1  
# Name:          frag3-226-6/96164 -- energy: -0.520501
# Creation time: Sat Jun  5 12:53:14 2010


@<TRIPOS>MOLECULE
frag3-226-6/96164 -- energy: -0.520501
   10     9     1     1     1
SMALL
USER_CHARGES


@<TRIPOS>ATOM
      1 C41         1.4408   -0.6188    0.1517 C.2        1 <1>        0.000
      2 C44         0.7056    0.4057   -0.2791 C.2        1 <1>        0.000
      3 N1         -0.6343    0.5089   -0.2392 N.am       1 <1>        0.000
      4 C45        -1.5492   -0.1683    0.5190 C.2        1 <1>        0.000
      5 O13        -2.7680   -0.1585    0.4848 O.2        1 <1>        0.000
      6 H           0.9562   -1.4906    0.5913 H.spc      1 <1>        0.000
      7 H           2.5268   -0.5850    0.0645 H.spc      1 <1>        0.000
      8 H           1.2473    1.2483   -0.7089 H.spc      1 <1>        0.000
      9 H          -1.0310    1.2013   -0.8745 H.spc      1 <1>        0.000
     10 H          -1.1190   -0.8230    1.2768 H.spc      1 <1>        0.000
@<TRIPOS>BOND
     1    1    2 2  
     2    2    3 1  
     3    3    4 am 
     4    4    5 2  
     5    1    6 1  
     6    1    7 1  
     7    2    8 1  
     8    3    9 1  
     9    4   10 1  
# Name:          frag3-226-6/96164 -- energy: -0.484037
# Creation time: Sat Jun  5 12:53:14 2010


@<TRIPOS>MOLECULE
frag3-226-6/96164 -- energy: -0.484037
   10     9     1     1     1
SMALL
USER_CHARGES


@<TRIPOS>ATOM
      1 C41         1.0246   -0.7111    0.5080 C.2        1 <1>        0.000
      2 C44         0.6294    0.2511   -0.3196 C.2        1 <1>        0.000
      3 N1         -0.6280    0.7255   -0.4939 N.am       1 <1>        0.000
      4 C45        -1.7997    0.3156    0.0895 C.2        1 <1>        0.000
      5 O13        -2.0314   -0.6122    0.8533 O.2        1 <1>        0.000
      6 H           0.2977   -1.2139    1.1458 H.spc      1 <1>        0.000
      7 H           2.0756   -0.9973    0.5488 H.spc      1 <1>        0.000
      8 H           1.4069    0.7120   -0.9287 H.spc      1 <1>        0.000
      9 H          -0.7156    1.4984   -1.1537 H.spc      1 <1>        0.000
     10 H          -2.6706    0.9171   -0.1708 H.spc      1 <1>        0.000
@<TRIPOS>BOND
     1    1    2 2  
     2    2    3 1  
     3    3    4 am 
     4    4    5 2  
     5    1    6 1  
     6    1    7 1  
     7    2    8 1  
     8    3    9 1  
     9    4   10 1  
# Name:          frag3-226-6/96164 -- energy: -0.472220
# Creation time: Sat Jun  5 12:53:14 2010


@<TRIPOS>MOLECULE
frag3-226-6/96164 -- energy: -0.472220
   10     9     1     1     1
SMALL
USER_CHARGES


@<TRIPOS>ATOM
      1 C41         1.7197   -0.3098   -0.0508 C.2        1 <1>        0.000
      2 C44         0.4030   -0.3397   -0.1923 C.2        1 <1>        0.000
      3 N1         -0.4971    0.5948    0.2141 N.am       1 <1>        0.000
      4 C45        -1.8505    0.5055    0.3139 C.2        1 <1>        0.000
      5 O13        -2.5800   -0.4819    0.3523 O.2        1 <1>        0.000
      6 H           2.1958    0.5382    0.4415 H.spc      1 <1>        0.000
      7 H           2.3271   -1.1332   -0.4266 H.spc      1 <1>        0.000
      8 H          -0.0071   -1.2165   -0.6934 H.spc      1 <1>        0.000
      9 H          -0.0991    1.4945    0.4836 H.spc      1 <1>        0.000
     10 H          -2.3703    1.4620    0.3685 H.spc      1 <1>        0.000
@<TRIPOS>BOND
     1    1    2 2  
     2    2    3 1  
     3    3    4 am 
     4    4    5 2  
     5    1    6 1  
     6    1    7 1  
     7    2    8 1  
     8    3    9 1  
     9    4   10 1  
