#      Rotatable Fragment
#      Build by yxyuan
#
# Name:          frag3-293-2/31924
# Creation time: Sat Jun  5 12:52:47 2010


@<TRIPOS>MOLECULE
frag3-293-2/31924
   11    10     1     1     1
SMALL
USER_CHARGES


@<TRIPOS>ATOM
      1 N1         -2.1795   -0.2074   -0.1480 N.pl3      1 <1>        0.000
      2 C10        -0.9630    0.1954    0.2164 C.2        1 <1>        0.000
      3 C11         0.1691   -0.5208    0.2414 C.2        1 <1>        0.000
      4 C12         1.4627   -0.0387    0.6956 C.2        1 <1>        0.000
      5 O3          2.1372   -0.6970    1.4707 O.2        1 <1>        0.000
      6 O4          1.8506    1.1177    0.1762 O.3        1 <1>        0.000
      7 H          -2.3277   -1.1687   -0.4550 H.spc      1 <1>        0.000
      8 H          -2.9626    0.4455   -0.1199 H.spc      1 <1>        0.000
      9 H          -0.8783    1.2350    0.5330 H.spc      1 <1>        0.000
     10 H           0.1153   -1.5518   -0.1083 H.spc      1 <1>        0.000
     11 H           1.1629    1.4537   -0.4033 H.spc      1 <1>        0.000
@<TRIPOS>BOND
     1    1    2 1  
     2    2    3 2  
     3    3    4 1  
     4    4    5 2  
     5    4    6 1  
     6    1    7 1  
     7    1    8 1  
     8    2    9 1  
     9    3   10 1  
    10    6   11 1  
# Name:          frag3-293-2/31924
# Creation time: Sat Jun  5 12:52:47 2010


@<TRIPOS>MOLECULE
frag3-293-2/31924
   11    10     1     1     1
SMALL
USER_CHARGES


@<TRIPOS>ATOM
      1 N1         -2.1905   -0.3628   -0.0792 N.pl3      1 <1>        0.000
      2 C10        -0.9698   -0.3994    0.4606 C.2        1 <1>        0.000
      3 C11         0.1223    0.2499    0.0312 C.2        1 <1>        0.000
      4 C12         1.4411    0.1295    0.6273 C.2        1 <1>        0.000
      5 O3          1.6916   -0.7231    1.4579 O.2        1 <1>        0.000
      6 O4          2.3823    0.9551    0.1545 O.3        1 <1>        0.000
      7 H          -2.3646    0.2049   -0.9086 H.spc      1 <1>        0.000
      8 H          -2.9489   -0.9025    0.3378 H.spc      1 <1>        0.000
      9 H          -0.8478   -1.0242    1.3454 H.spc      1 <1>        0.000
     10 H           0.0123    0.9148   -0.8255 H.spc      1 <1>        0.000
     11 H           1.9901    1.5516   -0.4873 H.spc      1 <1>        0.000
@<TRIPOS>BOND
     1    1    2 1  
     2    2    3 2  
     3    3    4 1  
     4    4    5 2  
     5    4    6 1  
     6    1    7 1  
     7    1    8 1  
     8    2    9 1  
     9    3   10 1  
    10    6   11 1  
# Name:          frag3-293-2/31924 -- energy: -0.329067
# Creation time: Sat Jun  5 12:52:47 2010


@<TRIPOS>MOLECULE
frag3-293-2/31924 -- energy: -0.329067
   11    10     1     1     1
SMALL
USER_CHARGES


@<TRIPOS>ATOM
      1 N1         -2.1795   -0.2074   -0.1480 N.pl3      1 <1>        0.000
      2 C10        -0.9630    0.1954    0.2164 C.2        1 <1>        0.000
      3 C11         0.1691   -0.5208    0.2414 C.2        1 <1>        0.000
      4 C12         1.4627   -0.0387    0.6956 C.2        1 <1>        0.000
      5 O3          2.1372   -0.6970    1.4707 O.2        1 <1>        0.000
      6 O4          1.8506    1.1177    0.1762 O.3        1 <1>        0.000
      7 H          -2.3277   -1.1687   -0.4550 H.spc      1 <1>        0.000
      8 H          -2.9626    0.4455   -0.1199 H.spc      1 <1>        0.000
      9 H          -0.8783    1.2350    0.5330 H.spc      1 <1>        0.000
     10 H           0.1153   -1.5518   -0.1083 H.spc      1 <1>        0.000
     11 H           1.1629    1.4537   -0.4033 H.spc      1 <1>        0.000
@<TRIPOS>BOND
     1    1    2 1  
     2    2    3 2  
     3    3    4 1  
     4    4    5 2  
     5    4    6 1  
     6    1    7 1  
     7    1    8 1  
     8    2    9 1  
     9    3   10 1  
    10    6   11 1  
# Name:          frag3-293-2/31924 -- energy: -0.292854
# Creation time: Sat Jun  5 12:52:47 2010


@<TRIPOS>MOLECULE
frag3-293-2/31924 -- energy: -0.292854
   11    10     1     1     1
SMALL
USER_CHARGES


@<TRIPOS>ATOM
      1 N1         -2.1905   -0.3628   -0.0792 N.pl3      1 <1>        0.000
      2 C10        -0.9698   -0.3994    0.4606 C.2        1 <1>        0.000
      3 C11         0.1223    0.2499    0.0312 C.2        1 <1>        0.000
      4 C12         1.4411    0.1295    0.6273 C.2        1 <1>        0.000
      5 O3          1.6916   -0.7231    1.4579 O.2        1 <1>        0.000
      6 O4          2.3823    0.9551    0.1545 O.3        1 <1>        0.000
      7 H          -2.3646    0.2049   -0.9086 H.spc      1 <1>        0.000
      8 H          -2.9489   -0.9025    0.3378 H.spc      1 <1>        0.000
      9 H          -0.8478   -1.0242    1.3454 H.spc      1 <1>        0.000
     10 H           0.0123    0.9148   -0.8255 H.spc      1 <1>        0.000
     11 H           1.9901    1.5516   -0.4873 H.spc      1 <1>        0.000
@<TRIPOS>BOND
     1    1    2 1  
     2    2    3 2  
     3    3    4 1  
     4    4    5 2  
     5    4    6 1  
     6    1    7 1  
     7    1    8 1  
     8    2    9 1  
     9    3   10 1  
    10    6   11 1  
