#      Rotatable Fragment
#      Build by yxyuan
#
# Name:          frag4-489-32/48856
# Creation time: Sat Jun  5 12:52:49 2010


@<TRIPOS>MOLECULE
frag4-489-32/48856
   22    24     1     1     1
SMALL
USER_CHARGES


@<TRIPOS>ATOM
      1 C2          8.6690   -0.0740    1.2733 C.3        1 <1>        0.000
      2 C3          7.5366   -0.8734    1.9593 C.3        1 <1>        0.000
      3 N1          8.1768   -1.9083    2.6800 N.3        1 <1>        0.000
      4 C4          9.5483   -1.8537    2.5845 C.3        1 <1>        0.000
      5 C5          9.9371   -0.7568    1.7025 C.2        1 <1>        0.000
      6 C6         11.2134   -0.5189    1.4280 C.2        1 <1>        0.000
      7 C7         12.2580   -1.4219    2.0459 C.2        1 <1>        0.000
      8 N2         13.4287   -1.0017    1.6478 N.2        1 <1>        0.000
      9 C8         13.2679    0.1031    0.8174 C.2        1 <1>        0.000
     10 C9         11.9707    0.4112    0.6717 C.2        1 <1>        0.000
     11 C11        11.8608   -2.5233    2.9046 C.2        1 <1>        0.000
     12 C12        10.5544   -2.7098    3.1403 C.2        1 <1>        0.000
     13 H           8.6563    0.9767    1.5630 H.spc      1 <1>        0.000
     14 H           8.5600   -0.0661    0.1888 H.spc      1 <1>        0.000
     15 H           6.8356   -1.2750    1.2276 H.spc      1 <1>        0.000
     16 H           6.9462   -0.2376    2.6190 H.spc      1 <1>        0.000
     17 H           7.9274   -1.8049    3.6636 H.spc      1 <1>        0.000
     18 H           9.7137   -2.5151    3.4350 H.spc      1 <1>        0.000
     19 H          14.0877    0.6463    0.3474 H.spc      1 <1>        0.000
     20 H          11.5694    1.2317    0.0769 H.spc      1 <1>        0.000
     21 H          12.6072   -3.1829    3.3471 H.spc      1 <1>        0.000
     22 H          10.2471   -3.5403    3.7759 H.spc      1 <1>        0.000
@<TRIPOS>BOND
     1    1    2 1  
     2    3    4 1  
     3    8    9 1  
     4    2    3 1  
     5    6    7 1  
     6    9   10 2  
     7    6   10 1  
     8    5    6 2  
     9    4   12 1  
    10   11   12 2  
    11    7   11 1  
    12    4    5 1  
    13    1    5 1  
    14    7    8 2  
    15    1   13 1  
    16    1   14 1  
    17    2   15 1  
    18    2   16 1  
    19    3   17 1  
    20    4   18 1  
    21    9   19 1  
    22   10   20 1  
    23   11   21 1  
    24   12   22 1  
