#      Rotatable Fragment
#      Build by yxyuan
#
# Name:          frag3-211-4/31924
# Creation time: Sat Jun  5 12:52:21 2010


@<TRIPOS>MOLECULE
frag3-211-4/31924
    8     7     1     1     1
SMALL
USER_CHARGES


@<TRIPOS>ATOM
      1 S1          2.3151    0.4242    1.0543 S.3        1 <1>        0.000
      2 P1          4.3002    0.7422    0.7413 P.3        1 <1>        0.000
      3 O1          5.0015    1.3155    1.8636 O.2        1 <1>        0.000
      4 O2          4.4628    1.7269   -0.4978 O.3        1 <1>        0.000
      5 O3          4.9361   -0.6128    0.2754 O.3        1 <1>        0.000
      6 H           1.7743   -0.1035   -0.0402 H.spc      1 <1>        0.000
      7 H           4.0020    1.3627   -1.2572 H.spc      1 <1>        0.000
      8 H           4.4402   -0.9580   -0.4706 H.spc      1 <1>        0.000
@<TRIPOS>BOND
     1    1    2 1  
     2    2    3 2  
     3    2    4 1  
     4    2    5 1  
     5    1    6 1  
     6    4    7 1  
     7    5    8 1  
# Name:          frag3-211-4/31924 -- energy: -0.354196
# Creation time: Sat Jun  5 12:52:21 2010


@<TRIPOS>MOLECULE
frag3-211-4/31924 -- energy: -0.354196
    8     7     1     1     1
SMALL
USER_CHARGES


@<TRIPOS>ATOM
      1 S1          2.3151    0.4242    1.0543 S.3        1 <1>        0.000
      2 P1          4.3002    0.7422    0.7413 P.3        1 <1>        0.000
      3 O1          5.0015    1.3155    1.8636 O.2        1 <1>        0.000
      4 O2          4.4628    1.7269   -0.4978 O.3        1 <1>        0.000
      5 O3          4.9361   -0.6128    0.2754 O.3        1 <1>        0.000
      6 H           1.7743   -0.1035   -0.0402 H.spc      1 <1>        0.000
      7 H           4.0020    1.3627   -1.2572 H.spc      1 <1>        0.000
      8 H           4.4402   -0.9580   -0.4706 H.spc      1 <1>        0.000
@<TRIPOS>BOND
     1    1    2 1  
     2    2    3 2  
     3    2    4 1  
     4    2    5 1  
     5    1    6 1  
     6    4    7 1  
     7    5    8 1  
