#      Rotatable Fragment
#      Build by yxyuan
#
# Name:          frag5-571-147/138278
# Creation time: Sat Jun  5 12:53:44 2010


@<TRIPOS>MOLECULE
frag5-571-147/138278
   15    15     1     1     1
SMALL
USER_CHARGES


@<TRIPOS>ATOM
      1 C1          1.6674   -0.2870    0.0441 C.ar       1 <1>        0.000
      2 C2          0.7699   -1.3653    0.1470 C.ar       1 <1>        0.000
      3 C3          1.1174    1.0001   -0.0785 C.ar       1 <1>        0.000
      4 O1          3.0305   -0.4881    0.0625 O.3        1 <1>        0.000
      5 C4         -0.6372   -1.1726    0.1275 C.ar       1 <1>        0.000
      6 C6         -0.2881    1.2065   -0.0973 C.ar       1 <1>        0.000
      7 C8         -1.1846    0.1199    0.0064 C.ar       1 <1>        0.000
      8 C15        -2.6286    0.3343   -0.0105 C.2        1 <1>        0.000
      9 O2         -3.1371    1.1274   -0.7896 O.2        1 <1>        0.000
     10 H           1.1651   -2.3764    0.2444 H.spc      1 <1>        0.000
     11 H           1.7835    1.8589   -0.1610 H.spc      1 <1>        0.000
     12 H           3.4786    0.3571   -0.0180 H.spc      1 <1>        0.000
     13 H          -1.3005   -2.0338    0.2071 H.spc      1 <1>        0.000
     14 H          -0.6806    2.2188   -0.1932 H.spc      1 <1>        0.000
     15 H          -3.2623   -0.2206    0.6813 H.spc      1 <1>        0.000
@<TRIPOS>BOND
     1    8    9 2  
     2    1    2 ar 
     3    1    3 ar 
     4    1    4 1  
     5    2    5 ar 
     6    3    6 ar 
     7    5    7 ar 
     8    6    7 ar 
     9    7    8 1  
    10    2   10 1  
    11    3   11 1  
    12    4   12 1  
    13    5   13 1  
    14    6   14 1  
    15    8   15 1  
# Name:          frag5-571-147/138278 -- energy: -0.555010
# Creation time: Sat Jun  5 12:53:44 2010


@<TRIPOS>MOLECULE
frag5-571-147/138278 -- energy: -0.555010
   15    15     1     1     1
SMALL
USER_CHARGES


@<TRIPOS>ATOM
      1 C1          1.6674   -0.2870    0.0441 C.ar       1 <1>        0.000
      2 C2          0.7699   -1.3653    0.1470 C.ar       1 <1>        0.000
      3 C3          1.1174    1.0001   -0.0785 C.ar       1 <1>        0.000
      4 O1          3.0305   -0.4881    0.0625 O.3        1 <1>        0.000
      5 C4         -0.6372   -1.1726    0.1275 C.ar       1 <1>        0.000
      6 C6         -0.2881    1.2065   -0.0973 C.ar       1 <1>        0.000
      7 C8         -1.1846    0.1199    0.0064 C.ar       1 <1>        0.000
      8 C15        -2.6286    0.3343   -0.0105 C.2        1 <1>        0.000
      9 O2         -3.1371    1.1274   -0.7896 O.2        1 <1>        0.000
     10 H           1.1651   -2.3764    0.2444 H.spc      1 <1>        0.000
     11 H           1.7835    1.8589   -0.1610 H.spc      1 <1>        0.000
     12 H           3.4786    0.3571   -0.0180 H.spc      1 <1>        0.000
     13 H          -1.3005   -2.0338    0.2071 H.spc      1 <1>        0.000
     14 H          -0.6806    2.2188   -0.1932 H.spc      1 <1>        0.000
     15 H          -3.2623   -0.2206    0.6813 H.spc      1 <1>        0.000
@<TRIPOS>BOND
     1    8    9 2  
     2    1    2 ar 
     3    1    3 ar 
     4    1    4 1  
     5    2    5 ar 
     6    3    6 ar 
     7    5    7 ar 
     8    6    7 ar 
     9    7    8 1  
    10    2   10 1  
    11    3   11 1  
    12    4   12 1  
    13    5   13 1  
    14    6   14 1  
    15    8   15 1  
