#      Rotatable Fragment
#      Build by yxyuan
#
# Name:          frag5-589-121/138278
# Creation time: Sat Jun  5 12:53:45 2010


@<TRIPOS>MOLECULE
frag5-589-121/138278
   40    43     1     1     1
SMALL
USER_CHARGES


@<TRIPOS>ATOM
      1 C1         -0.4116   -0.0959   -0.2697 C.3        1 <1>        0.000
      2 C2         -1.6232   -0.8099    0.3729 C.3        1 <1>        0.000
      3 C3         -0.3600    1.3785    0.1651 C.3        1 <1>        0.000
      4 C4          0.9996   -0.5893    0.1144 C.3        1 <1>        0.000
      5 C5         -2.9526   -0.0843   -0.0117 C.3        1 <1>        0.000
      6 C6         -1.6735   -2.3035   -0.0266 C.3        1 <1>        0.000
      7 C7          0.9879    1.8340   -0.4186 C.3        1 <1>        0.000
      8 C8         -1.6237    2.1140   -0.3143 C.3        1 <1>        0.000
      9 C17        -5.4801   -0.1034    0.4299 C.2        1 <1>        0.000
     10 C10         1.9231    0.6397   -0.1090 C.3        1 <1>        0.000
     11 C11        -4.1579   -0.7887    0.6826 C.3        1 <1>        0.000
     12 C12        -2.8702    1.4384    0.3024 C.3        1 <1>        0.000
     13 C13        -2.8797   -3.0057    0.6264 C.3        1 <1>        0.000
     14 C16        -4.1318   -2.2470    0.2727 C.2        1 <1>        0.000
     15 C20        -5.1519   -2.8258   -0.3818 C.2        1 <1>        0.000
     16 C21        -6.4950   -0.6851   -0.2234 C.2        1 <1>        0.000
     17 C22        -6.3646   -2.0649   -0.7075 C.2        1 <1>        0.000
     18 O2         -7.2600   -2.5773   -1.3621 O.2        1 <1>        0.000
     19 H          -0.5947   -0.2935   -1.3259 H.spc      1 <1>        0.000
     20 H          -1.5059   -0.7635    1.4556 H.spc      1 <1>        0.000
     21 H          -0.3838    1.5813    1.2358 H.spc      1 <1>        0.000
     22 H           1.0391   -0.9452    1.1439 H.spc      1 <1>        0.000
     23 H           1.3086   -1.4442   -0.4871 H.spc      1 <1>        0.000
     24 H          -3.1100   -0.1588   -1.0877 H.spc      1 <1>        0.000
     25 H          -0.7586   -2.7887    0.3134 H.spc      1 <1>        0.000
     26 H          -1.7706   -2.3740   -1.1100 H.spc      1 <1>        0.000
     27 H           1.3409    2.7701    0.0142 H.spc      1 <1>        0.000
     28 H           0.9319    2.0616   -1.4831 H.spc      1 <1>        0.000
     29 H          -1.6832    2.0681   -1.4017 H.spc      1 <1>        0.000
     30 H          -1.5806    3.1572   -0.0013 H.spc      1 <1>        0.000
     31 H          -5.6151    0.9140    0.7969 H.spc      1 <1>        0.000
     32 H           2.6193    0.4636   -0.9290 H.spc      1 <1>        0.000
     33 H           2.5334    0.8373    0.7723 H.spc      1 <1>        0.000
     34 H          -4.0536   -0.7187    1.7653 H.spc      1 <1>        0.000
     35 H          -2.8090    1.5520    1.3847 H.spc      1 <1>        0.000
     36 H          -3.7525    1.9145   -0.1253 H.spc      1 <1>        0.000
     37 H          -2.7536   -3.0269    1.7089 H.spc      1 <1>        0.000
     38 H          -2.9529   -4.0303    0.2618 H.spc      1 <1>        0.000
     39 H          -5.0786   -3.8731   -0.6747 H.spc      1 <1>        0.000
     40 H          -7.4189   -0.1330   -0.3957 H.spc      1 <1>        0.000
@<TRIPOS>BOND
     1    1    2 1  
     2    5   11 1  
     3    4   10 1  
     4    3    8 1  
     5    3    7 1  
     6    1    3 1  
     7    1    4 1  
     8    2    6 1  
     9    2    5 1  
    10    5   12 1  
    11    6   13 1  
    12   17   18 2  
    13   16   17 1  
    14   15   17 1  
    15    9   16 2  
    16   14   15 2  
    17   13   14 1  
    18   11    9 1  
    19   11   14 1  
    20    8   12 1  
    21    7   10 1  
    22    1   19 1  
    23    2   20 1  
    24    3   21 1  
    25    4   22 1  
    26    4   23 1  
    27    5   24 1  
    28    6   25 1  
    29    6   26 1  
    30    7   27 1  
    31    7   28 1  
    32    8   29 1  
    33    8   30 1  
    34    9   31 1  
    35   10   32 1  
    36   10   33 1  
    37   11   34 1  
    38   12   35 1  
    39   12   36 1  
    40   13   37 1  
    41   13   38 1  
    42   15   39 1  
    43   16   40 1  
# Name:          frag5-589-121/138278 -- energy: -7.280214
# Creation time: Sat Jun  5 12:53:45 2010


@<TRIPOS>MOLECULE
frag5-589-121/138278 -- energy: -7.280214
   40    43     1     1     1
SMALL
USER_CHARGES


@<TRIPOS>ATOM
      1 C1         -0.4116   -0.0959   -0.2697 C.3        1 <1>        0.000
      2 C2         -1.6232   -0.8099    0.3729 C.3        1 <1>        0.000
      3 C3         -0.3600    1.3785    0.1651 C.3        1 <1>        0.000
      4 C4          0.9996   -0.5893    0.1144 C.3        1 <1>        0.000
      5 C5         -2.9526   -0.0843   -0.0117 C.3        1 <1>        0.000
      6 C6         -1.6735   -2.3035   -0.0266 C.3        1 <1>        0.000
      7 C7          0.9879    1.8340   -0.4186 C.3        1 <1>        0.000
      8 C8         -1.6237    2.1140   -0.3143 C.3        1 <1>        0.000
      9 C17        -5.4801   -0.1034    0.4299 C.2        1 <1>        0.000
     10 C10         1.9231    0.6397   -0.1090 C.3        1 <1>        0.000
     11 C11        -4.1579   -0.7887    0.6826 C.3        1 <1>        0.000
     12 C12        -2.8702    1.4384    0.3024 C.3        1 <1>        0.000
     13 C13        -2.8797   -3.0057    0.6264 C.3        1 <1>        0.000
     14 C16        -4.1318   -2.2470    0.2727 C.2        1 <1>        0.000
     15 C20        -5.1519   -2.8258   -0.3818 C.2        1 <1>        0.000
     16 C21        -6.4950   -0.6851   -0.2234 C.2        1 <1>        0.000
     17 C22        -6.3646   -2.0649   -0.7075 C.2        1 <1>        0.000
     18 O2         -7.2600   -2.5773   -1.3621 O.2        1 <1>        0.000
     19 H          -0.5947   -0.2935   -1.3259 H.spc      1 <1>        0.000
     20 H          -1.5059   -0.7635    1.4556 H.spc      1 <1>        0.000
     21 H          -0.3838    1.5813    1.2358 H.spc      1 <1>        0.000
     22 H           1.0391   -0.9452    1.1439 H.spc      1 <1>        0.000
     23 H           1.3086   -1.4442   -0.4871 H.spc      1 <1>        0.000
     24 H          -3.1100   -0.1588   -1.0877 H.spc      1 <1>        0.000
     25 H          -0.7586   -2.7887    0.3134 H.spc      1 <1>        0.000
     26 H          -1.7706   -2.3740   -1.1100 H.spc      1 <1>        0.000
     27 H           1.3409    2.7701    0.0142 H.spc      1 <1>        0.000
     28 H           0.9319    2.0616   -1.4831 H.spc      1 <1>        0.000
     29 H          -1.6832    2.0681   -1.4017 H.spc      1 <1>        0.000
     30 H          -1.5806    3.1572   -0.0013 H.spc      1 <1>        0.000
     31 H          -5.6151    0.9140    0.7969 H.spc      1 <1>        0.000
     32 H           2.6193    0.4636   -0.9290 H.spc      1 <1>        0.000
     33 H           2.5334    0.8373    0.7723 H.spc      1 <1>        0.000
     34 H          -4.0536   -0.7187    1.7653 H.spc      1 <1>        0.000
     35 H          -2.8090    1.5520    1.3847 H.spc      1 <1>        0.000
     36 H          -3.7525    1.9145   -0.1253 H.spc      1 <1>        0.000
     37 H          -2.7536   -3.0269    1.7089 H.spc      1 <1>        0.000
     38 H          -2.9529   -4.0303    0.2618 H.spc      1 <1>        0.000
     39 H          -5.0786   -3.8731   -0.6747 H.spc      1 <1>        0.000
     40 H          -7.4189   -0.1330   -0.3957 H.spc      1 <1>        0.000
@<TRIPOS>BOND
     1    1    2 1  
     2    5   11 1  
     3    4   10 1  
     4    3    8 1  
     5    3    7 1  
     6    1    3 1  
     7    1    4 1  
     8    2    6 1  
     9    2    5 1  
    10    5   12 1  
    11    6   13 1  
    12   17   18 2  
    13   16   17 1  
    14   15   17 1  
    15    9   16 2  
    16   14   15 2  
    17   13   14 1  
    18   11    9 1  
    19   11   14 1  
    20    8   12 1  
    21    7   10 1  
    22    1   19 1  
    23    2   20 1  
    24    3   21 1  
    25    4   22 1  
    26    4   23 1  
    27    5   24 1  
    28    6   25 1  
    29    6   26 1  
    30    7   27 1  
    31    7   28 1  
    32    8   29 1  
    33    8   30 1  
    34    9   31 1  
    35   10   32 1  
    36   10   33 1  
    37   11   34 1  
    38   12   35 1  
    39   12   36 1  
    40   13   37 1  
    41   13   38 1  
    42   15   39 1  
    43   16   40 1  
