#      Rotatable Fragment
#      Build by yxyuan
#
# Name:          frag4-487-32/48856
# Creation time: Sat Jun  5 12:52:49 2010


@<TRIPOS>MOLECULE
frag4-487-32/48856
   20    21     1     1     1
SMALL
USER_CHARGES


@<TRIPOS>ATOM
      1 O1          1.8894    1.9622    0.5706 O.3        1 <1>        0.000
      2 C1          1.5512    1.4737    1.8841 C.3        1 <1>        0.000
      3 C2          1.8405   -0.0383    2.0467 C.3        1 <1>        0.000
      4 C3          3.3311   -0.2570    1.7912 C.ar       1 <1>        0.000
      5 C4          3.9608    0.5863    0.8729 C.ar       1 <1>        0.000
      6 C5          5.3271    0.4444    0.6134 C.ar       1 <1>        0.000
      7 C6          6.0606   -0.5473    1.2710 C.ar       1 <1>        0.000
      8 C7          5.4273   -1.4003    2.1798 C.ar       1 <1>        0.000
      9 C8          4.0610   -1.2579    2.4400 C.ar       1 <1>        0.000
     10 C9          3.1261    1.6338    0.1698 C.3        1 <1>        0.000
     11 H           0.4833    1.6301    2.0365 H.spc      1 <1>        0.000
     12 H           2.1597    2.0126    2.6104 H.spc      1 <1>        0.000
     13 H           1.2459   -0.6162    1.3392 H.spc      1 <1>        0.000
     14 H           1.5756   -0.3690    3.0509 H.spc      1 <1>        0.000
     15 H           5.8193    1.1054   -0.1000 H.spc      1 <1>        0.000
     16 H           7.1274   -0.6557    1.0751 H.spc      1 <1>        0.000
     17 H           5.9996   -2.1775    2.6863 H.spc      1 <1>        0.000
     18 H           3.5664   -1.9248    3.1462 H.spc      1 <1>        0.000
     19 H           2.9636    1.2034   -0.8184 H.spc      1 <1>        0.000
     20 H           3.6925    2.5520    0.3255 H.spc      1 <1>        0.000
@<TRIPOS>BOND
     1    4    5 ar 
     2    7    8 ar 
     3    8    9 ar 
     4    5   10 1  
     5    5    6 ar 
     6    6    7 ar 
     7    4    9 ar 
     8    1   10 1  
     9    1    2 1  
    10    2    3 1  
    11    3    4 1  
    12    2   11 1  
    13    2   12 1  
    14    3   13 1  
    15    3   14 1  
    16    6   15 1  
    17    7   16 1  
    18    8   17 1  
    19    9   18 1  
    20   10   19 1  
    21   10   20 1  
# Name:          frag4-487-32/48856 -- energy: -1.005660
# Creation time: Sat Jun  5 12:52:49 2010


@<TRIPOS>MOLECULE
frag4-487-32/48856 -- energy: -1.005660
   20    21     1     1     1
SMALL
USER_CHARGES


@<TRIPOS>ATOM
      1 O1          1.8894    1.9622    0.5706 O.3        1 <1>        0.000
      2 C1          1.5512    1.4737    1.8841 C.3        1 <1>        0.000
      3 C2          1.8405   -0.0383    2.0467 C.3        1 <1>        0.000
      4 C3          3.3311   -0.2570    1.7912 C.ar       1 <1>        0.000
      5 C4          3.9608    0.5863    0.8729 C.ar       1 <1>        0.000
      6 C5          5.3271    0.4444    0.6134 C.ar       1 <1>        0.000
      7 C6          6.0606   -0.5473    1.2710 C.ar       1 <1>        0.000
      8 C7          5.4273   -1.4003    2.1798 C.ar       1 <1>        0.000
      9 C8          4.0610   -1.2579    2.4400 C.ar       1 <1>        0.000
     10 C9          3.1261    1.6338    0.1698 C.3        1 <1>        0.000
     11 H           0.4833    1.6301    2.0365 H.spc      1 <1>        0.000
     12 H           2.1597    2.0126    2.6104 H.spc      1 <1>        0.000
     13 H           1.2459   -0.6162    1.3392 H.spc      1 <1>        0.000
     14 H           1.5756   -0.3690    3.0509 H.spc      1 <1>        0.000
     15 H           5.8193    1.1054   -0.1000 H.spc      1 <1>        0.000
     16 H           7.1274   -0.6557    1.0751 H.spc      1 <1>        0.000
     17 H           5.9996   -2.1775    2.6863 H.spc      1 <1>        0.000
     18 H           3.5664   -1.9248    3.1462 H.spc      1 <1>        0.000
     19 H           2.9636    1.2034   -0.8184 H.spc      1 <1>        0.000
     20 H           3.6925    2.5520    0.3255 H.spc      1 <1>        0.000
@<TRIPOS>BOND
     1    4    5 ar 
     2    7    8 ar 
     3    8    9 ar 
     4    5   10 1  
     5    5    6 ar 
     6    6    7 ar 
     7    4    9 ar 
     8    1   10 1  
     9    1    2 1  
    10    2    3 1  
    11    3    4 1  
    12    2   11 1  
    13    2   12 1  
    14    3   13 1  
    15    3   14 1  
    16    6   15 1  
    17    7   16 1  
    18    8   17 1  
    19    9   18 1  
    20   10   19 1  
    21   10   20 1  
