#      Rotatable Fragment
#      Build by yxyuan
#
# Name:          frag3-203-8/96164
# Creation time: Sat Jun  5 12:53:09 2010


@<TRIPOS>MOLECULE
frag3-203-8/96164
    5     4     1     1     1
SMALL
USER_CHARGES


@<TRIPOS>ATOM
      1 S1          1.3652    1.0756   -0.8941 S.3        1 <1>        0.000
      2 S2          0.1092    0.4459    0.4999 S.3        1 <1>        0.000
      3 S3          0.9933   -1.1928    1.1586 S.3        1 <1>        0.000
      4 H           0.8955    2.1941   -1.4393 H.spc      1 <1>        0.000
      5 H           0.2524   -1.7391    2.1186 H.spc      1 <1>        0.000
@<TRIPOS>BOND
     1    1    2 1  
     2    2    3 1  
     3    1    4 1  
     4    3    5 1  
# Name:          frag3-203-8/96164 -- energy: -0.026648
# Creation time: Sat Jun  5 12:53:09 2010


@<TRIPOS>MOLECULE
frag3-203-8/96164 -- energy: -0.026648
    5     4     1     1     1
SMALL
USER_CHARGES


@<TRIPOS>ATOM
      1 S1          1.3652    1.0756   -0.8941 S.3        1 <1>        0.000
      2 S2          0.1092    0.4459    0.4999 S.3        1 <1>        0.000
      3 S3          0.9933   -1.1928    1.1586 S.3        1 <1>        0.000
      4 H           0.8955    2.1941   -1.4393 H.spc      1 <1>        0.000
      5 H           0.2524   -1.7391    2.1186 H.spc      1 <1>        0.000
@<TRIPOS>BOND
     1    1    2 1  
     2    2    3 1  
     3    1    4 1  
     4    3    5 1  
