#      Rotatable Fragment
#      Build by yxyuan
#
# Name:          frag3-176-13/96164
# Creation time: Sat Jun  5 12:53:08 2010


@<TRIPOS>MOLECULE
frag3-176-13/96164
    7     6     1     1     1
SMALL
USER_CHARGES


@<TRIPOS>ATOM
      1 N2          1.2470   -0.6068    0.0083 N.2        1 <1>        0.000
      2 C13         0.2623    0.2208   -0.0658 C.2        1 <1>        0.000
      3 N3         -1.0910   -0.0365   -0.1278 N.pl3      1 <1>        0.000
      4 H           1.0689   -1.6109    0.0279 H.spc      1 <1>        0.000
      5 H           0.5385    1.2751   -0.0818 H.spc      1 <1>        0.000
      6 H          -1.4281   -0.9991   -0.1176 H.spc      1 <1>        0.000
      7 H          -1.7549    0.7358   -0.1839 H.spc      1 <1>        0.000
@<TRIPOS>BOND
     1    2    3 1  
     2    1    2 2  
     3    1    4 1  
     4    2    5 1  
     5    3    6 1  
     6    3    7 1  
# Name:          frag3-176-13/96164 -- energy: -0.163762
# Creation time: Sat Jun  5 12:53:08 2010


@<TRIPOS>MOLECULE
frag3-176-13/96164 -- energy: -0.163762
    7     6     1     1     1
SMALL
USER_CHARGES


@<TRIPOS>ATOM
      1 N2          1.2470   -0.6068    0.0083 N.2        1 <1>        0.000
      2 C13         0.2623    0.2208   -0.0658 C.2        1 <1>        0.000
      3 N3         -1.0910   -0.0365   -0.1278 N.pl3      1 <1>        0.000
      4 H           1.0689   -1.6109    0.0279 H.spc      1 <1>        0.000
      5 H           0.5385    1.2751   -0.0818 H.spc      1 <1>        0.000
      6 H          -1.4281   -0.9991   -0.1176 H.spc      1 <1>        0.000
      7 H          -1.7549    0.7358   -0.1839 H.spc      1 <1>        0.000
@<TRIPOS>BOND
     1    2    3 1  
     2    1    2 2  
     3    1    4 1  
     4    2    5 1  
     5    3    6 1  
     6    3    7 1  
