#      Rotatable Fragment
#      Build by yxyuan
#
# Name:          frag3-117-57/31924
# Creation time: Sat Jun  5 12:52:02 2010


@<TRIPOS>MOLECULE
frag3-117-57/31924
    7     6     1     1     1
SMALL
USER_CHARGES


@<TRIPOS>ATOM
      1 N1          0.9853    0.3497   -0.1341 N.pl3      1 <1>        0.000
      2 C9         -0.2313   -0.2755   -0.0283 C.2        1 <1>        0.000
      3 N3         -1.3672    0.2661    0.2696 N.2        1 <1>        0.000
      4 H           1.0588    1.3536    0.0305 H.spc      1 <1>        0.000
      5 H           1.8163   -0.1894   -0.3773 H.spc      1 <1>        0.000
      6 H          -0.2416   -1.3491   -0.2164 H.spc      1 <1>        0.000
      7 H          -1.4214    1.2674    0.4564 H.spc      1 <1>        0.000
@<TRIPOS>BOND
     1    2    3 2  
     2    1    2 1  
     3    1    4 1  
     4    1    5 1  
     5    2    6 1  
     6    3    7 1  
# Name:          frag3-117-57/31924 -- energy: -0.164403
# Creation time: Sat Jun  5 12:52:02 2010


@<TRIPOS>MOLECULE
frag3-117-57/31924 -- energy: -0.164403
    7     6     1     1     1
SMALL
USER_CHARGES


@<TRIPOS>ATOM
      1 N1          0.9853    0.3497   -0.1341 N.pl3      1 <1>        0.000
      2 C9         -0.2313   -0.2755   -0.0283 C.2        1 <1>        0.000
      3 N3         -1.3672    0.2661    0.2696 N.2        1 <1>        0.000
      4 H           1.0588    1.3536    0.0305 H.spc      1 <1>        0.000
      5 H           1.8163   -0.1894   -0.3773 H.spc      1 <1>        0.000
      6 H          -0.2416   -1.3491   -0.2164 H.spc      1 <1>        0.000
      7 H          -1.4214    1.2674    0.4564 H.spc      1 <1>        0.000
@<TRIPOS>BOND
     1    2    3 2  
     2    1    2 1  
     3    1    4 1  
     4    1    5 1  
     5    2    6 1  
     6    3    7 1  
