#      Rotatable Fragment
#      Build by yxyuan
#
# Name:          frag5-689-22/41815
# Creation time: Sat Jun  5 12:53:04 2010


@<TRIPOS>MOLECULE
frag5-689-22/41815
   15    15     1     1     1
SMALL
USER_CHARGES


@<TRIPOS>ATOM
      1 N1          2.7890   -0.0408    0.0757 N.pl3      1 <1>        0.000
      2 C3          1.3563   -0.0201    0.0374 C.ar       1 <1>        0.000
      3 N2          0.6523   -1.1603   -0.0039 N.ar       1 <1>        0.000
      4 C4         -0.6928   -1.1598   -0.0410 C.ar       1 <1>        0.000
      5 N3         -1.3316    0.0190   -0.0339 N.ar       1 <1>        0.000
      6 C5         -0.6618    1.1795    0.0060 C.ar       1 <1>        0.000
      7 N4          0.6828    1.1403    0.0415 N.ar       1 <1>        0.000
      8 N5         -1.3623    2.4299    0.0094 N.pl3      1 <1>        0.000
      9 N6         -1.4276   -2.3886   -0.0863 N.pl3      1 <1>        0.000
     10 H           3.2865   -0.9313    0.0717 H.spc      1 <1>        0.000
     11 H           3.3111    0.8349    0.1069 H.spc      1 <1>        0.000
     12 H          -2.3818    2.4434   -0.0187 H.spc      1 <1>        0.000
     13 H          -0.8413    3.3063    0.0400 H.spc      1 <1>        0.000
     14 H          -0.9313   -3.2797   -0.0908 H.spc      1 <1>        0.000
     15 H          -2.4471   -2.3725   -0.1141 H.spc      1 <1>        0.000
@<TRIPOS>BOND
     1    1    2 1  
     2    2    3 ar 
     3    2    7 ar 
     4    3    4 ar 
     5    4    5 ar 
     6    4    9 1  
     7    5    6 ar 
     8    6    7 ar 
     9    6    8 1  
    10    1   10 1  
    11    1   11 1  
    12    8   12 1  
    13    8   13 1  
    14    9   14 1  
    15    9   15 1  
# Name:          frag5-689-22/41815 -- energy: -0.325172
# Creation time: Sat Jun  5 12:53:04 2010


@<TRIPOS>MOLECULE
frag5-689-22/41815 -- energy: -0.325172
   15    15     1     1     1
SMALL
USER_CHARGES


@<TRIPOS>ATOM
      1 N1          2.7890   -0.0408    0.0757 N.pl3      1 <1>        0.000
      2 C3          1.3563   -0.0201    0.0374 C.ar       1 <1>        0.000
      3 N2          0.6523   -1.1603   -0.0039 N.ar       1 <1>        0.000
      4 C4         -0.6928   -1.1598   -0.0410 C.ar       1 <1>        0.000
      5 N3         -1.3316    0.0190   -0.0339 N.ar       1 <1>        0.000
      6 C5         -0.6618    1.1795    0.0060 C.ar       1 <1>        0.000
      7 N4          0.6828    1.1403    0.0415 N.ar       1 <1>        0.000
      8 N5         -1.3623    2.4299    0.0094 N.pl3      1 <1>        0.000
      9 N6         -1.4276   -2.3886   -0.0863 N.pl3      1 <1>        0.000
     10 H           3.2865   -0.9313    0.0717 H.spc      1 <1>        0.000
     11 H           3.3111    0.8349    0.1069 H.spc      1 <1>        0.000
     12 H          -2.3818    2.4434   -0.0187 H.spc      1 <1>        0.000
     13 H          -0.8413    3.3063    0.0400 H.spc      1 <1>        0.000
     14 H          -0.9313   -3.2797   -0.0908 H.spc      1 <1>        0.000
     15 H          -2.4471   -2.3725   -0.1141 H.spc      1 <1>        0.000
@<TRIPOS>BOND
     1    1    2 1  
     2    2    3 ar 
     3    2    7 ar 
     4    3    4 ar 
     5    4    5 ar 
     6    4    9 1  
     7    5    6 ar 
     8    6    7 ar 
     9    6    8 1  
    10    1   10 1  
    11    1   11 1  
    12    8   12 1  
    13    8   13 1  
    14    9   14 1  
    15    9   15 1  
