#      Rotatable Fragment
#      Build by yxyuan
#
# Name:          frag2-088-1/319335
# Creation time: Sat Jun  5 12:52:19 2010


@<TRIPOS>MOLECULE
frag2-088-1/319335
   15    16     1     1     1
SMALL
USER_CHARGES


@<TRIPOS>ATOM
      1 C1         -0.3772   -0.8234   -0.0128 C.ar       1 <1>        0.000
      2 C2         -1.6125   -1.4825   -0.0264 C.ar       1 <1>        0.000
      3 C3         -0.3438    0.5409    0.0065 C.ar       1 <1>        0.000
      4 N1          0.7806   -1.5443   -0.0194 N.ar       1 <1>        0.000
      5 N2         -2.7568   -0.7298   -0.0201 N.ar       1 <1>        0.000
      6 C5          0.8939    1.2197    0.0199 C.ar       1 <1>        0.000
      7 C6         -1.5533    1.2569    0.0129 C.ar       1 <1>        0.000
      8 C7          1.9881   -0.9346   -0.0068 C.ar       1 <1>        0.000
      9 N3         -2.7245    0.5454   -0.0011 N.ar       1 <1>        0.000
     10 C10         2.0653    0.4529    0.0136 C.ar       1 <1>        0.000
     11 H          -1.6624   -2.5712   -0.0417 H.spc      1 <1>        0.000
     12 H           0.9363    2.3088    0.0347 H.spc      1 <1>        0.000
     13 H          -1.5596    2.3468    0.0285 H.spc      1 <1>        0.000
     14 H           2.9002   -1.5313   -0.0126 H.spc      1 <1>        0.000
     15 H           3.0382    0.9443    0.0247 H.spc      1 <1>        0.000
@<TRIPOS>BOND
     1    8   10 ar 
     2    1    2 ar 
     3    1    3 ar 
     4    1    4 ar 
     5    2    5 ar 
     6    3    6 ar 
     7    3    7 ar 
     8    4    8 ar 
     9    5    9 ar 
    10    6   10 ar 
    11    7    9 ar 
    12    2   11 1  
    13    6   12 1  
    14    7   13 1  
    15    8   14 1  
    16   10   15 1  
# Name:          frag2-088-1/319335 -- energy: 0.153613
# Creation time: Sat Jun  5 12:52:19 2010


@<TRIPOS>MOLECULE
frag2-088-1/319335 -- energy: 0.153613
   15    16     1     1     1
SMALL
USER_CHARGES


@<TRIPOS>ATOM
      1 C1         -0.3772   -0.8234   -0.0128 C.ar       1 <1>        0.000
      2 C2         -1.6125   -1.4825   -0.0264 C.ar       1 <1>        0.000
      3 C3         -0.3438    0.5409    0.0065 C.ar       1 <1>        0.000
      4 N1          0.7806   -1.5443   -0.0194 N.ar       1 <1>        0.000
      5 N2         -2.7568   -0.7298   -0.0201 N.ar       1 <1>        0.000
      6 C5          0.8939    1.2197    0.0199 C.ar       1 <1>        0.000
      7 C6         -1.5533    1.2569    0.0129 C.ar       1 <1>        0.000
      8 C7          1.9881   -0.9346   -0.0068 C.ar       1 <1>        0.000
      9 N3         -2.7245    0.5454   -0.0011 N.ar       1 <1>        0.000
     10 C10         2.0653    0.4529    0.0136 C.ar       1 <1>        0.000
     11 H          -1.6624   -2.5712   -0.0417 H.spc      1 <1>        0.000
     12 H           0.9363    2.3088    0.0347 H.spc      1 <1>        0.000
     13 H          -1.5596    2.3468    0.0285 H.spc      1 <1>        0.000
     14 H           2.9002   -1.5313   -0.0126 H.spc      1 <1>        0.000
     15 H           3.0382    0.9443    0.0247 H.spc      1 <1>        0.000
@<TRIPOS>BOND
     1    8   10 ar 
     2    1    2 ar 
     3    1    3 ar 
     4    1    4 ar 
     5    2    5 ar 
     6    3    6 ar 
     7    3    7 ar 
     8    4    8 ar 
     9    5    9 ar 
    10    6   10 ar 
    11    7    9 ar 
    12    2   11 1  
    13    6   12 1  
    14    7   13 1  
    15    8   14 1  
    16   10   15 1  
