#      Rotatable Fragment
#      Build by yxyuan
#
# Name:          frag2-055-12/92655
# Creation time: Sat Jun  5 12:51:57 2010


@<TRIPOS>MOLECULE
frag2-055-12/92655
    9     9     1     1     1
SMALL
USER_CHARGES


@<TRIPOS>ATOM
      1 C7          1.1236    0.5163    0.0203 C.ar       1 <1>        0.000
      2 N1          0.1693    1.4833    0.0591 N.ar       1 <1>        0.000
      3 N2         -1.1178    1.1444    0.0514 N.ar       1 <1>        0.000
      4 C8         -1.5010   -0.1438   -0.0057 C.ar       1 <1>        0.000
      5 N3         -0.5567   -1.0901   -0.0512 N.ar       1 <1>        0.000
      6 C9          0.7550   -0.7989   -0.0333 C.ar       1 <1>        0.000
      7 H           2.1790    0.7885    0.0319 H.spc      1 <1>        0.000
      8 H          -2.5578   -0.4106   -0.0147 H.spc      1 <1>        0.000
      9 H           1.5046   -1.5898   -0.0608 H.spc      1 <1>        0.000
@<TRIPOS>BOND
     1    1    2 ar 
     2    1    6 ar 
     3    2    3 ar 
     4    3    4 ar 
     5    4    5 ar 
     6    5    6 ar 
     7    1    7 1  
     8    4    8 1  
     9    6    9 1  
# Name:          frag2-055-12/92655 -- energy: 0.410726
# Creation time: Sat Jun  5 12:51:57 2010


@<TRIPOS>MOLECULE
frag2-055-12/92655 -- energy: 0.410726
    9     9     1     1     1
SMALL
USER_CHARGES


@<TRIPOS>ATOM
      1 C7          1.1236    0.5163    0.0203 C.ar       1 <1>        0.000
      2 N1          0.1693    1.4833    0.0591 N.ar       1 <1>        0.000
      3 N2         -1.1178    1.1444    0.0514 N.ar       1 <1>        0.000
      4 C8         -1.5010   -0.1438   -0.0057 C.ar       1 <1>        0.000
      5 N3         -0.5567   -1.0901   -0.0512 N.ar       1 <1>        0.000
      6 C9          0.7550   -0.7989   -0.0333 C.ar       1 <1>        0.000
      7 H           2.1790    0.7885    0.0319 H.spc      1 <1>        0.000
      8 H          -2.5578   -0.4106   -0.0147 H.spc      1 <1>        0.000
      9 H           1.5046   -1.5898   -0.0608 H.spc      1 <1>        0.000
@<TRIPOS>BOND
     1    1    2 ar 
     2    1    6 ar 
     3    2    3 ar 
     4    3    4 ar 
     5    4    5 ar 
     6    5    6 ar 
     7    1    7 1  
     8    4    8 1  
     9    6    9 1  
