#      Rotatable Fragment
#      Build by yxyuan
#
# Name:          frag5-613-33/41815
# Creation time: Sat Jun  5 12:52:59 2010


@<TRIPOS>MOLECULE
frag5-613-33/41815
   26    27     1     1     1
SMALL
USER_CHARGES


@<TRIPOS>ATOM
      1 N1          2.4370    3.8833   -2.7216 N.am       1 <1>        0.000
      2 C1          3.4114    4.8727   -3.1239 C.3        1 <1>        0.000
      3 C2          4.9117    4.5648   -3.3016 C.3        1 <1>        0.000
      4 C3          5.6244    5.7854   -3.9082 C.3        1 <1>        0.000
      5 C4          4.9668    6.2711   -5.2145 C.3        1 <1>        0.000
      6 C5          3.4596    6.5183   -5.0461 C.3        1 <1>        0.000
      7 C6          2.8042    5.2586   -4.4792 C.3        1 <1>        0.000
      8 C7          1.2930    5.2700   -4.1911 C.3        1 <1>        0.000
      9 C8          1.0824    4.3629   -2.9829 C.3        1 <1>        0.000
     10 C16         2.7664    2.6838   -2.2216 C.2        1 <1>        0.000
     11 O4          1.9941    1.7608   -2.0249 O.2        1 <1>        0.000
     12 H           3.5207    5.5883   -2.3090 H.spc      1 <1>        0.000
     13 H           5.0283    3.7106   -3.9685 H.spc      1 <1>        0.000
     14 H           5.3507    4.3364   -2.3304 H.spc      1 <1>        0.000
     15 H           6.6492    5.4939   -4.1382 H.spc      1 <1>        0.000
     16 H           5.5698    6.5983   -3.1841 H.spc      1 <1>        0.000
     17 H           5.4356    7.2123   -5.5015 H.spc      1 <1>        0.000
     18 H           5.1020    5.4980   -5.9709 H.spc      1 <1>        0.000
     19 H           3.0176    6.7571   -6.0134 H.spc      1 <1>        0.000
     20 H           3.2997    7.3529   -4.3635 H.spc      1 <1>        0.000
     21 H           2.9908    4.5734   -5.3061 H.spc      1 <1>        0.000
     22 H           0.9393    6.2811   -3.9894 H.spc      1 <1>        0.000
     23 H           0.7265    4.9151   -5.0520 H.spc      1 <1>        0.000
     24 H           0.3685    3.5598   -3.1659 H.spc      1 <1>        0.000
     25 H           0.6349    4.8757   -2.1315 H.spc      1 <1>        0.000
     26 H           3.8140    2.5195   -1.9694 H.spc      1 <1>        0.000
@<TRIPOS>BOND
     1    8    9 1  
     2    2    3 1  
     3    1    2 1  
     4    3    4 1  
     5    1    9 1  
     6    5    6 1  
     7    6    7 1  
     8    2    7 1  
     9    1   10 am 
    10    4    5 1  
    11    7    8 1  
    12   10   11 2  
    13    2   12 1  
    14    3   13 1  
    15    3   14 1  
    16    4   15 1  
    17    4   16 1  
    18    5   17 1  
    19    5   18 1  
    20    6   19 1  
    21    6   20 1  
    22    7   21 1  
    23    8   22 1  
    24    8   23 1  
    25    9   24 1  
    26    9   25 1  
    27   10   26 1  
# Name:          frag5-613-33/41815
# Creation time: Sat Jun  5 12:52:59 2010


@<TRIPOS>MOLECULE
frag5-613-33/41815
   26    27     1     1     1
SMALL
USER_CHARGES


@<TRIPOS>ATOM
      1 N1          2.1323    3.9293   -2.7590 N.am       1 <1>        0.000
      2 C1          3.2411    4.8086   -3.1044 C.3        1 <1>        0.000
      3 C2          4.7006    4.3284   -3.2452 C.3        1 <1>        0.000
      4 C3          5.5691    5.4740   -3.7966 C.3        1 <1>        0.000
      5 C4          5.0168    6.0579   -5.1140 C.3        1 <1>        0.000
      6 C5          3.5412    6.4767   -4.9857 C.3        1 <1>        0.000
      7 C6          2.7272    5.2866   -4.4698 C.3        1 <1>        0.000
      8 C7          1.2180    5.4713   -4.2278 C.3        1 <1>        0.000
      9 C8          0.8619    4.5712   -3.0436 C.3        1 <1>        0.000
     10 C16         2.3297    2.6932   -2.2750 C.2        1 <1>        0.000
     11 O4          3.4129    2.1344   -2.1946 O.2        1 <1>        0.000
     12 H           3.4098    5.4873   -2.2683 H.spc      1 <1>        0.000
     13 H           4.7392    3.4818   -3.9307 H.spc      1 <1>        0.000
     14 H           5.0782    4.0247   -2.2688 H.spc      1 <1>        0.000
     15 H           6.5628    5.0739   -3.9981 H.spc      1 <1>        0.000
     16 H           5.5803    6.2727   -3.0549 H.spc      1 <1>        0.000
     17 H           5.6014    6.9427   -5.3660 H.spc      1 <1>        0.000
     18 H           5.0871    5.2890   -5.8833 H.spc      1 <1>        0.000
     19 H           3.1615    6.7869   -5.9592 H.spc      1 <1>        0.000
     20 H           3.4553    7.3102   -4.2885 H.spc      1 <1>        0.000
     21 H           2.8612    4.5980   -5.3041 H.spc      1 <1>        0.000
     22 H           0.9790    6.5133   -4.0150 H.spc      1 <1>        0.000
     23 H           0.6423    5.2016   -5.1132 H.spc      1 <1>        0.000
     24 H           0.0614    3.8650   -3.2638 H.spc      1 <1>        0.000
     25 H           0.4547    5.1180   -2.1932 H.spc      1 <1>        0.000
     26 H           1.4546    2.1448   -1.9262 H.spc      1 <1>        0.000
@<TRIPOS>BOND
     1    8    9 1  
     2    2    3 1  
     3    1    2 1  
     4    3    4 1  
     5    1    9 1  
     6    5    6 1  
     7    6    7 1  
     8    2    7 1  
     9    1   10 am 
    10    4    5 1  
    11    7    8 1  
    12   10   11 2  
    13    2   12 1  
    14    3   13 1  
    15    3   14 1  
    16    4   15 1  
    17    4   16 1  
    18    5   17 1  
    19    5   18 1  
    20    6   19 1  
    21    6   20 1  
    22    7   21 1  
    23    8   22 1  
    24    8   23 1  
    25    9   24 1  
    26    9   25 1  
    27   10   26 1  
# Name:          frag5-613-33/41815 -- energy: -3.755489
# Creation time: Sat Jun  5 12:52:59 2010


@<TRIPOS>MOLECULE
frag5-613-33/41815 -- energy: -3.755489
   26    27     1     1     1
SMALL
USER_CHARGES


@<TRIPOS>ATOM
      1 N1          2.4370    3.8833   -2.7216 N.am       1 <1>        0.000
      2 C1          3.4114    4.8727   -3.1239 C.3        1 <1>        0.000
      3 C2          4.9117    4.5648   -3.3016 C.3        1 <1>        0.000
      4 C3          5.6244    5.7854   -3.9082 C.3        1 <1>        0.000
      5 C4          4.9668    6.2711   -5.2145 C.3        1 <1>        0.000
      6 C5          3.4596    6.5183   -5.0461 C.3        1 <1>        0.000
      7 C6          2.8042    5.2586   -4.4792 C.3        1 <1>        0.000
      8 C7          1.2930    5.2700   -4.1911 C.3        1 <1>        0.000
      9 C8          1.0824    4.3629   -2.9829 C.3        1 <1>        0.000
     10 C16         2.7664    2.6838   -2.2216 C.2        1 <1>        0.000
     11 O4          1.9941    1.7608   -2.0249 O.2        1 <1>        0.000
     12 H           3.5207    5.5883   -2.3090 H.spc      1 <1>        0.000
     13 H           5.0283    3.7106   -3.9685 H.spc      1 <1>        0.000
     14 H           5.3507    4.3364   -2.3304 H.spc      1 <1>        0.000
     15 H           6.6492    5.4939   -4.1382 H.spc      1 <1>        0.000
     16 H           5.5698    6.5983   -3.1841 H.spc      1 <1>        0.000
     17 H           5.4356    7.2123   -5.5015 H.spc      1 <1>        0.000
     18 H           5.1020    5.4980   -5.9709 H.spc      1 <1>        0.000
     19 H           3.0176    6.7571   -6.0134 H.spc      1 <1>        0.000
     20 H           3.2997    7.3529   -4.3635 H.spc      1 <1>        0.000
     21 H           2.9908    4.5734   -5.3061 H.spc      1 <1>        0.000
     22 H           0.9393    6.2811   -3.9894 H.spc      1 <1>        0.000
     23 H           0.7265    4.9151   -5.0520 H.spc      1 <1>        0.000
     24 H           0.3685    3.5598   -3.1659 H.spc      1 <1>        0.000
     25 H           0.6349    4.8757   -2.1315 H.spc      1 <1>        0.000
     26 H           3.8140    2.5195   -1.9694 H.spc      1 <1>        0.000
@<TRIPOS>BOND
     1    8    9 1  
     2    2    3 1  
     3    1    2 1  
     4    3    4 1  
     5    1    9 1  
     6    5    6 1  
     7    6    7 1  
     8    2    7 1  
     9    1   10 am 
    10    4    5 1  
    11    7    8 1  
    12   10   11 2  
    13    2   12 1  
    14    3   13 1  
    15    3   14 1  
    16    4   15 1  
    17    4   16 1  
    18    5   17 1  
    19    5   18 1  
    20    6   19 1  
    21    6   20 1  
    22    7   21 1  
    23    8   22 1  
    24    8   23 1  
    25    9   24 1  
    26    9   25 1  
    27   10   26 1  
# Name:          frag5-613-33/41815 -- energy: -3.530990
# Creation time: Sat Jun  5 12:52:59 2010


@<TRIPOS>MOLECULE
frag5-613-33/41815 -- energy: -3.530990
   26    27     1     1     1
SMALL
USER_CHARGES


@<TRIPOS>ATOM
      1 N1          2.1323    3.9293   -2.7590 N.am       1 <1>        0.000
      2 C1          3.2411    4.8086   -3.1044 C.3        1 <1>        0.000
      3 C2          4.7006    4.3284   -3.2452 C.3        1 <1>        0.000
      4 C3          5.5691    5.4740   -3.7966 C.3        1 <1>        0.000
      5 C4          5.0168    6.0579   -5.1140 C.3        1 <1>        0.000
      6 C5          3.5412    6.4767   -4.9857 C.3        1 <1>        0.000
      7 C6          2.7272    5.2866   -4.4698 C.3        1 <1>        0.000
      8 C7          1.2180    5.4713   -4.2278 C.3        1 <1>        0.000
      9 C8          0.8619    4.5712   -3.0436 C.3        1 <1>        0.000
     10 C16         2.3297    2.6932   -2.2750 C.2        1 <1>        0.000
     11 O4          3.4129    2.1344   -2.1946 O.2        1 <1>        0.000
     12 H           3.4098    5.4873   -2.2683 H.spc      1 <1>        0.000
     13 H           4.7392    3.4818   -3.9307 H.spc      1 <1>        0.000
     14 H           5.0782    4.0247   -2.2688 H.spc      1 <1>        0.000
     15 H           6.5628    5.0739   -3.9981 H.spc      1 <1>        0.000
     16 H           5.5803    6.2727   -3.0549 H.spc      1 <1>        0.000
     17 H           5.6014    6.9427   -5.3660 H.spc      1 <1>        0.000
     18 H           5.0871    5.2890   -5.8833 H.spc      1 <1>        0.000
     19 H           3.1615    6.7869   -5.9592 H.spc      1 <1>        0.000
     20 H           3.4553    7.3102   -4.2885 H.spc      1 <1>        0.000
     21 H           2.8612    4.5980   -5.3041 H.spc      1 <1>        0.000
     22 H           0.9790    6.5133   -4.0150 H.spc      1 <1>        0.000
     23 H           0.6423    5.2016   -5.1132 H.spc      1 <1>        0.000
     24 H           0.0614    3.8650   -3.2638 H.spc      1 <1>        0.000
     25 H           0.4547    5.1180   -2.1932 H.spc      1 <1>        0.000
     26 H           1.4546    2.1448   -1.9262 H.spc      1 <1>        0.000
@<TRIPOS>BOND
     1    8    9 1  
     2    2    3 1  
     3    1    2 1  
     4    3    4 1  
     5    1    9 1  
     6    5    6 1  
     7    6    7 1  
     8    2    7 1  
     9    1   10 am 
    10    4    5 1  
    11    7    8 1  
    12   10   11 2  
    13    2   12 1  
    14    3   13 1  
    15    3   14 1  
    16    4   15 1  
    17    4   16 1  
    18    5   17 1  
    19    5   18 1  
    20    6   19 1  
    21    6   20 1  
    22    7   21 1  
    23    8   22 1  
    24    8   23 1  
    25    9   24 1  
    26    9   25 1  
    27   10   26 1  
