#      Rotatable Fragment
#      Build by yxyuan
#
# Name:          frag3-118-75/96164
# Creation time: Sat Jun  5 12:52:50 2010


@<TRIPOS>MOLECULE
frag3-118-75/96164
    9     8     1     1     1
SMALL
USER_CHARGES


@<TRIPOS>ATOM
      1 C18         1.7763   -0.6915    0.0147 C.2        1 <1>        0.000
      2 N1          3.0045   -0.1231   -0.0566 N.am       1 <1>        0.000
      3 O3          1.5769   -1.8592   -0.2590 O.2        1 <1>        0.000
      4 S1          3.4603    1.4257   -0.0045 S.o2       1 <1>        0.000
      5 O4          4.1425    1.8658   -1.2073 O.2        1 <1>        0.000
      6 O5          3.6993    1.9000    1.3392 O.2        1 <1>        0.000
      7 H           0.9331   -0.0770    0.3302 H.spc      1 <1>        0.000
      8 H           3.7722   -0.7866   -0.1610 H.spc      1 <1>        0.000
      9 H           2.4944    2.3204   -0.1928 H.spc      1 <1>        0.000
@<TRIPOS>BOND
     1    1    2 am 
     2    1    3 2  
     3    2    4 1  
     4    4    5 2  
     5    4    6 2  
     6    1    7 1  
     7    2    8 1  
     8    4    9 1  
# Name:          frag3-118-75/96164
# Creation time: Sat Jun  5 12:52:50 2010


@<TRIPOS>MOLECULE
frag3-118-75/96164
    9     8     1     1     1
SMALL
USER_CHARGES


@<TRIPOS>ATOM
      1 C18         2.4146   -1.1851    0.0592 C.2        1 <1>        0.000
      2 N1          3.3577   -0.2944   -0.2801 N.am       1 <1>        0.000
      3 O3          1.2358   -0.8428    0.0366 O.2        1 <1>        0.000
      4 S1          3.3319    1.2844   -0.1197 S.o2       1 <1>        0.000
      5 O4          4.0957    1.9366   -1.1430 O.2        1 <1>        0.000
      6 O5          3.2240    1.6189    1.2734 O.2        1 <1>        0.000
      7 H           2.6905   -2.1984    0.3509 H.spc      1 <1>        0.000
      8 H           4.2039   -0.6830   -0.6965 H.spc      1 <1>        0.000
      9 H           2.2555    1.9819   -0.4715 H.spc      1 <1>        0.000
@<TRIPOS>BOND
     1    1    2 am 
     2    1    3 2  
     3    2    4 1  
     4    4    5 2  
     5    4    6 2  
     6    1    7 1  
     7    2    8 1  
     8    4    9 1  
# Name:          frag3-118-75/96164
# Creation time: Sat Jun  5 12:52:50 2010


@<TRIPOS>MOLECULE
frag3-118-75/96164
    9     8     1     1     1
SMALL
USER_CHARGES


@<TRIPOS>ATOM
      1 C18         2.2272   -1.1382    0.1504 C.2        1 <1>        0.000
      2 N1          3.1919   -0.2510    0.4753 N.am       1 <1>        0.000
      3 O3          1.5036   -0.9216   -0.7862 O.2        1 <1>        0.000
      4 S1          3.3290    1.2908    0.0585 S.o2       1 <1>        0.000
      5 O4          3.7520    1.4439   -1.3070 O.2        1 <1>        0.000
      6 O5          3.6560    2.0938    1.2354 O.2        1 <1>        0.000
      7 H           2.1041   -2.0494    0.7358 H.spc      1 <1>        0.000
      8 H           3.9381   -0.6126    1.0693 H.spc      1 <1>        0.000
      9 H           2.2682    2.0415   -0.2244 H.spc      1 <1>        0.000
@<TRIPOS>BOND
     1    1    2 am 
     2    1    3 2  
     3    2    4 1  
     4    4    5 2  
     5    4    6 2  
     6    1    7 1  
     7    2    8 1  
     8    4    9 1  
# Name:          frag3-118-75/96164 -- energy: -0.415332
# Creation time: Sat Jun  5 12:52:50 2010


@<TRIPOS>MOLECULE
frag3-118-75/96164 -- energy: -0.415332
    9     8     1     1     1
SMALL
USER_CHARGES


@<TRIPOS>ATOM
      1 C18         1.7763   -0.6915    0.0147 C.2        1 <1>        0.000
      2 N1          3.0045   -0.1231   -0.0566 N.am       1 <1>        0.000
      3 O3          1.5769   -1.8592   -0.2590 O.2        1 <1>        0.000
      4 S1          3.4603    1.4257   -0.0045 S.o2       1 <1>        0.000
      5 O4          4.1425    1.8658   -1.2073 O.2        1 <1>        0.000
      6 O5          3.6993    1.9000    1.3392 O.2        1 <1>        0.000
      7 H           0.9331   -0.0770    0.3302 H.spc      1 <1>        0.000
      8 H           3.7722   -0.7866   -0.1610 H.spc      1 <1>        0.000
      9 H           2.4944    2.3204   -0.1928 H.spc      1 <1>        0.000
@<TRIPOS>BOND
     1    1    2 am 
     2    1    3 2  
     3    2    4 1  
     4    4    5 2  
     5    4    6 2  
     6    1    7 1  
     7    2    8 1  
     8    4    9 1  
# Name:          frag3-118-75/96164 -- energy: -0.515835
# Creation time: Sat Jun  5 12:52:50 2010


@<TRIPOS>MOLECULE
frag3-118-75/96164 -- energy: -0.515835
    9     8     1     1     1
SMALL
USER_CHARGES


@<TRIPOS>ATOM
      1 C18         2.4146   -1.1851    0.0592 C.2        1 <1>        0.000
      2 N1          3.3577   -0.2944   -0.2801 N.am       1 <1>        0.000
      3 O3          1.2358   -0.8428    0.0366 O.2        1 <1>        0.000
      4 S1          3.3319    1.2844   -0.1197 S.o2       1 <1>        0.000
      5 O4          4.0957    1.9366   -1.1430 O.2        1 <1>        0.000
      6 O5          3.2240    1.6189    1.2734 O.2        1 <1>        0.000
      7 H           2.6905   -2.1984    0.3509 H.spc      1 <1>        0.000
      8 H           4.2039   -0.6830   -0.6965 H.spc      1 <1>        0.000
      9 H           2.2555    1.9819   -0.4715 H.spc      1 <1>        0.000
@<TRIPOS>BOND
     1    1    2 am 
     2    1    3 2  
     3    2    4 1  
     4    4    5 2  
     5    4    6 2  
     6    1    7 1  
     7    2    8 1  
     8    4    9 1  
# Name:          frag3-118-75/96164 -- energy: -0.513564
# Creation time: Sat Jun  5 12:52:50 2010


@<TRIPOS>MOLECULE
frag3-118-75/96164 -- energy: -0.513564
    9     8     1     1     1
SMALL
USER_CHARGES


@<TRIPOS>ATOM
      1 C18         2.2272   -1.1382    0.1504 C.2        1 <1>        0.000
      2 N1          3.1919   -0.2510    0.4753 N.am       1 <1>        0.000
      3 O3          1.5036   -0.9216   -0.7862 O.2        1 <1>        0.000
      4 S1          3.3290    1.2908    0.0585 S.o2       1 <1>        0.000
      5 O4          3.7520    1.4439   -1.3070 O.2        1 <1>        0.000
      6 O5          3.6560    2.0938    1.2354 O.2        1 <1>        0.000
      7 H           2.1041   -2.0494    0.7358 H.spc      1 <1>        0.000
      8 H           3.9381   -0.6126    1.0693 H.spc      1 <1>        0.000
      9 H           2.2682    2.0415   -0.2244 H.spc      1 <1>        0.000
@<TRIPOS>BOND
     1    1    2 am 
     2    1    3 2  
     3    2    4 1  
     4    4    5 2  
     5    4    6 2  
     6    1    7 1  
     7    2    8 1  
     8    4    9 1  
