#      Rotatable Fragment
#      Build by yxyuan
#
# Name:          frag5-498-349/41815
# Creation time: Sat Jun  5 12:52:50 2010


@<TRIPOS>MOLECULE
frag5-498-349/41815
   12    12     1     1     1
SMALL
USER_CHARGES


@<TRIPOS>ATOM
      1 F1         -0.0704    2.6710   -0.5100 F          1 <1>        0.000
      2 C1         -0.0360    1.3492   -0.2576 C.ar       1 <1>        0.000
      3 C2          1.1690    0.6508   -0.3415 C.ar       1 <1>        0.000
      4 C3          1.2085   -0.7149   -0.0817 C.ar       1 <1>        0.000
      5 C4          0.0373   -1.3907    0.2650 C.ar       1 <1>        0.000
      6 C5         -1.1720   -0.6955    0.3512 C.ar       1 <1>        0.000
      7 C6         -1.2046    0.6710    0.0894 C.ar       1 <1>        0.000
      8 H           2.0838    1.1781   -0.6120 H.spc      1 <1>        0.000
      9 H           2.1521   -1.2565   -0.1487 H.spc      1 <1>        0.000
     10 H           0.0660   -2.4611    0.4686 H.spc      1 <1>        0.000
     11 H          -2.0870   -1.2220    0.6227 H.spc      1 <1>        0.000
     12 H          -2.1475    1.2138    0.1558 H.spc      1 <1>        0.000
@<TRIPOS>BOND
     1    2    3 ar 
     2    1    2 1  
     3    2    7 ar 
     4    3    4 ar 
     5    4    5 ar 
     6    5    6 ar 
     7    6    7 ar 
     8    3    8 1  
     9    4    9 1  
    10    5   10 1  
    11    6   11 1  
    12    7   12 1  
# Name:          frag5-498-349/41815 -- energy: 0.076256
# Creation time: Sat Jun  5 12:52:50 2010


@<TRIPOS>MOLECULE
frag5-498-349/41815 -- energy: 0.076256
   12    12     1     1     1
SMALL
USER_CHARGES


@<TRIPOS>ATOM
      1 F1         -0.0704    2.6710   -0.5100 F          1 <1>        0.000
      2 C1         -0.0360    1.3492   -0.2576 C.ar       1 <1>        0.000
      3 C2          1.1690    0.6508   -0.3415 C.ar       1 <1>        0.000
      4 C3          1.2085   -0.7149   -0.0817 C.ar       1 <1>        0.000
      5 C4          0.0373   -1.3907    0.2650 C.ar       1 <1>        0.000
      6 C5         -1.1720   -0.6955    0.3512 C.ar       1 <1>        0.000
      7 C6         -1.2046    0.6710    0.0894 C.ar       1 <1>        0.000
      8 H           2.0838    1.1781   -0.6120 H.spc      1 <1>        0.000
      9 H           2.1521   -1.2565   -0.1487 H.spc      1 <1>        0.000
     10 H           0.0660   -2.4611    0.4686 H.spc      1 <1>        0.000
     11 H          -2.0870   -1.2220    0.6227 H.spc      1 <1>        0.000
     12 H          -2.1475    1.2138    0.1558 H.spc      1 <1>        0.000
@<TRIPOS>BOND
     1    2    3 ar 
     2    1    2 1  
     3    2    7 ar 
     4    3    4 ar 
     5    4    5 ar 
     6    5    6 ar 
     7    6    7 ar 
     8    3    8 1  
     9    4    9 1  
    10    5   10 1  
    11    6   11 1  
    12    7   12 1  
