#      Rotatable Fragment
#      Build by yxyuan
#
# Name:          frag4-335-172/48856
# Creation time: Sat Jun  5 12:52:53 2010


@<TRIPOS>MOLECULE
frag4-335-172/48856
   11    11     1     1     1
SMALL
USER_CHARGES


@<TRIPOS>ATOM
      1 O1          0.2367    1.5216    0.3816 O.3        1 <1>        0.000
      2 C1         -0.9411    1.1221    0.0021 C.ar       1 <1>        0.000
      3 C2         -1.2318   -0.3149   -0.2105 C.ar       1 <1>        0.000
      4 C3         -0.2513   -1.1668   -0.1848 C.ar       1 <1>        0.000
      5 C4          1.0546   -0.6127    0.0845 C.ar       1 <1>        0.000
      6 C5          1.2703    0.6926    0.3635 C.ar       1 <1>        0.000
      7 H          -1.7285    1.8576   -0.1625 H.spc      1 <1>        0.000
      8 H          -2.2533   -0.6525   -0.3859 H.spc      1 <1>        0.000
      9 H          -0.4047   -2.2323   -0.3557 H.spc      1 <1>        0.000
     10 H           1.9135   -1.2834    0.0616 H.spc      1 <1>        0.000
     11 H           2.2768    1.0566    0.5699 H.spc      1 <1>        0.000
@<TRIPOS>BOND
     1    1    2 ar 
     2    1    6 ar 
     3    2    3 ar 
     4    3    4 ar 
     5    4    5 ar 
     6    5    6 ar 
     7    2    7 1  
     8    3    8 1  
     9    4    9 1  
    10    5   10 1  
    11    6   11 1  
# Name:          frag4-335-172/48856 -- energy: 0.517794
# Creation time: Sat Jun  5 12:52:53 2010


@<TRIPOS>MOLECULE
frag4-335-172/48856 -- energy: 0.517794
   11    11     1     1     1
SMALL
USER_CHARGES


@<TRIPOS>ATOM
      1 O1          0.2367    1.5216    0.3816 O.3        1 <1>        0.000
      2 C1         -0.9411    1.1221    0.0021 C.ar       1 <1>        0.000
      3 C2         -1.2318   -0.3149   -0.2105 C.ar       1 <1>        0.000
      4 C3         -0.2513   -1.1668   -0.1848 C.ar       1 <1>        0.000
      5 C4          1.0546   -0.6127    0.0845 C.ar       1 <1>        0.000
      6 C5          1.2703    0.6926    0.3635 C.ar       1 <1>        0.000
      7 H          -1.7285    1.8576   -0.1625 H.spc      1 <1>        0.000
      8 H          -2.2533   -0.6525   -0.3859 H.spc      1 <1>        0.000
      9 H          -0.4047   -2.2323   -0.3557 H.spc      1 <1>        0.000
     10 H           1.9135   -1.2834    0.0616 H.spc      1 <1>        0.000
     11 H           2.2768    1.0566    0.5699 H.spc      1 <1>        0.000
@<TRIPOS>BOND
     1    1    2 ar 
     2    1    6 ar 
     3    2    3 ar 
     4    3    4 ar 
     5    4    5 ar 
     6    5    6 ar 
     7    2    7 1  
     8    3    8 1  
     9    4    9 1  
    10    5   10 1  
    11    6   11 1  
