#      Rotatable Fragment
#      Build by yxyuan
#
# Name:          frag3-272-2/31924
# Creation time: Sat Jun  5 12:52:44 2010


@<TRIPOS>MOLECULE
frag3-272-2/31924
   10     9     1     1     1
SMALL
USER_CHARGES


@<TRIPOS>ATOM
      1 P1          0.6867    0.1591   -0.1779 P.3        1 <1>        0.000
      2 O1          0.8270   -0.3341   -1.5538 O.2        1 <1>        0.000
      3 O2         -0.7691   -0.2321    0.2935 O.3        1 <1>        0.000
      4 O3          0.6538    1.7409   -0.2963 O.3        1 <1>        0.000
      5 C3          1.9111   -0.4755    0.8740 C.2        1 <1>        0.000
      6 O4          2.1691    0.0866    1.9280 O.2        1 <1>        0.000
      7 O5          2.5760   -1.6088    0.5306 O.3        1 <1>        0.000
      8 H          -0.9055    0.0727    1.1935 H.spc      1 <1>        0.000
      9 H           0.5626    2.1244    0.5791 H.spc      1 <1>        0.000
     10 H           2.2566   -1.9208   -0.3193 H.spc      1 <1>        0.000
@<TRIPOS>BOND
     1    1    2 2  
     2    1    3 1  
     3    1    4 1  
     4    1    5 1  
     5    5    6 2  
     6    5    7 1  
     7    3    8 1  
     8    4    9 1  
     9    7   10 1  
# Name:          frag3-272-2/31924
# Creation time: Sat Jun  5 12:52:44 2010


@<TRIPOS>MOLECULE
frag3-272-2/31924
   10     9     1     1     1
SMALL
USER_CHARGES


@<TRIPOS>ATOM
      1 P1          0.6457    0.1494   -0.1945 P.3        1 <1>        0.000
      2 O1          0.5507   -0.5998   -1.4438 O.2        1 <1>        0.000
      3 O2         -0.7612    0.1427    0.5272 O.3        1 <1>        0.000
      4 O3          0.9538    1.6499   -0.6315 O.3        1 <1>        0.000
      5 C3          1.8815   -0.5061    0.8644 C.2        1 <1>        0.000
      6 O4          1.6740   -0.6357    2.0628 O.2        1 <1>        0.000
      7 O5          3.1099   -0.8642    0.4136 O.3        1 <1>        0.000
      8 H          -0.7003    0.6351    1.3491 H.spc      1 <1>        0.000
      9 H           1.0291    2.2009    0.1510 H.spc      1 <1>        0.000
     10 H           3.1562   -0.7200   -0.5344 H.spc      1 <1>        0.000
@<TRIPOS>BOND
     1    1    2 2  
     2    1    3 1  
     3    1    4 1  
     4    1    5 1  
     5    5    6 2  
     6    5    7 1  
     7    3    8 1  
     8    4    9 1  
     9    7   10 1  
# Name:          frag3-272-2/31924
# Creation time: Sat Jun  5 12:52:44 2010


@<TRIPOS>MOLECULE
frag3-272-2/31924
   10     9     1     1     1
SMALL
USER_CHARGES


@<TRIPOS>ATOM
      1 P1          0.6697    0.1587   -0.1891 P.3        1 <1>        0.000
      2 O1          1.0323    0.1021   -1.6041 O.2        1 <1>        0.000
      3 O2         -0.6898   -0.6246   -0.0269 O.3        1 <1>        0.000
      4 O3          0.3668    1.6948    0.0824 O.3        1 <1>        0.000
      5 C3          1.9289   -0.4786    0.8369 C.2        1 <1>        0.000
      6 O4          2.8705    0.2170    1.1624 O.2        1 <1>        0.000
      7 O5          1.8762   -1.7331    1.3365 O.3        1 <1>        0.000
      8 H          -0.9595   -0.6079    0.8943 H.spc      1 <1>        0.000
      9 H           0.1186    1.8132    1.0022 H.spc      1 <1>        0.000
     10 H           1.0907   -2.1752    1.0061 H.spc      1 <1>        0.000
@<TRIPOS>BOND
     1    1    2 2  
     2    1    3 1  
     3    1    4 1  
     4    1    5 1  
     5    5    6 2  
     6    5    7 1  
     7    3    8 1  
     8    4    9 1  
     9    7   10 1  
# Name:          frag3-272-2/31924
# Creation time: Sat Jun  5 12:52:44 2010


@<TRIPOS>MOLECULE
frag3-272-2/31924
   10     9     1     1     1
SMALL
USER_CHARGES


@<TRIPOS>ATOM
      1 P1          0.6931    0.1688   -0.1878 P.3        1 <1>        0.000
      2 O1          0.8958   -0.1168   -1.6089 O.2        1 <1>        0.000
      3 O2         -0.7345   -0.4268    0.1705 O.3        1 <1>        0.000
      4 O3          0.5369    1.7417   -0.0884 O.3        1 <1>        0.000
      5 C3          1.9309   -0.5161    0.8097 C.2        1 <1>        0.000
      6 O4          2.7874   -1.2584    0.3506 O.2        1 <1>        0.000
      7 O5          1.9449   -0.2560    2.1524 O.3        1 <1>        0.000
      8 H          -0.9228   -0.2675    1.0983 H.spc      1 <1>        0.000
      9 H           0.4002    1.9913    0.8285 H.spc      1 <1>        0.000
     10 H           1.2216    0.3365    2.3700 H.spc      1 <1>        0.000
@<TRIPOS>BOND
     1    1    2 2  
     2    1    3 1  
     3    1    4 1  
     4    1    5 1  
     5    5    6 2  
     6    5    7 1  
     7    3    8 1  
     8    4    9 1  
     9    7   10 1  
# Name:          frag3-272-2/31924 -- energy: -0.640624
# Creation time: Sat Jun  5 12:52:44 2010


@<TRIPOS>MOLECULE
frag3-272-2/31924 -- energy: -0.640624
   10     9     1     1     1
SMALL
USER_CHARGES


@<TRIPOS>ATOM
      1 P1          0.6867    0.1591   -0.1779 P.3        1 <1>        0.000
      2 O1          0.8270   -0.3341   -1.5538 O.2        1 <1>        0.000
      3 O2         -0.7691   -0.2321    0.2935 O.3        1 <1>        0.000
      4 O3          0.6538    1.7409   -0.2963 O.3        1 <1>        0.000
      5 C3          1.9111   -0.4755    0.8740 C.2        1 <1>        0.000
      6 O4          2.1691    0.0866    1.9280 O.2        1 <1>        0.000
      7 O5          2.5760   -1.6088    0.5306 O.3        1 <1>        0.000
      8 H          -0.9055    0.0727    1.1935 H.spc      1 <1>        0.000
      9 H           0.5626    2.1244    0.5791 H.spc      1 <1>        0.000
     10 H           2.2566   -1.9208   -0.3193 H.spc      1 <1>        0.000
@<TRIPOS>BOND
     1    1    2 2  
     2    1    3 1  
     3    1    4 1  
     4    1    5 1  
     5    5    6 2  
     6    5    7 1  
     7    3    8 1  
     8    4    9 1  
     9    7   10 1  
# Name:          frag3-272-2/31924 -- energy: -0.732963
# Creation time: Sat Jun  5 12:52:44 2010


@<TRIPOS>MOLECULE
frag3-272-2/31924 -- energy: -0.732963
   10     9     1     1     1
SMALL
USER_CHARGES


@<TRIPOS>ATOM
      1 P1          0.6457    0.1494   -0.1945 P.3        1 <1>        0.000
      2 O1          0.5507   -0.5998   -1.4438 O.2        1 <1>        0.000
      3 O2         -0.7612    0.1427    0.5272 O.3        1 <1>        0.000
      4 O3          0.9538    1.6499   -0.6315 O.3        1 <1>        0.000
      5 C3          1.8815   -0.5061    0.8644 C.2        1 <1>        0.000
      6 O4          1.6740   -0.6357    2.0628 O.2        1 <1>        0.000
      7 O5          3.1099   -0.8642    0.4136 O.3        1 <1>        0.000
      8 H          -0.7003    0.6351    1.3491 H.spc      1 <1>        0.000
      9 H           1.0291    2.2009    0.1510 H.spc      1 <1>        0.000
     10 H           3.1562   -0.7200   -0.5344 H.spc      1 <1>        0.000
@<TRIPOS>BOND
     1    1    2 2  
     2    1    3 1  
     3    1    4 1  
     4    1    5 1  
     5    5    6 2  
     6    5    7 1  
     7    3    8 1  
     8    4    9 1  
     9    7   10 1  
# Name:          frag3-272-2/31924 -- energy: -0.735244
# Creation time: Sat Jun  5 12:52:44 2010


@<TRIPOS>MOLECULE
frag3-272-2/31924 -- energy: -0.735244
   10     9     1     1     1
SMALL
USER_CHARGES


@<TRIPOS>ATOM
      1 P1          0.6697    0.1587   -0.1891 P.3        1 <1>        0.000
      2 O1          1.0323    0.1021   -1.6041 O.2        1 <1>        0.000
      3 O2         -0.6898   -0.6246   -0.0269 O.3        1 <1>        0.000
      4 O3          0.3668    1.6948    0.0824 O.3        1 <1>        0.000
      5 C3          1.9289   -0.4786    0.8369 C.2        1 <1>        0.000
      6 O4          2.8705    0.2170    1.1624 O.2        1 <1>        0.000
      7 O5          1.8762   -1.7331    1.3365 O.3        1 <1>        0.000
      8 H          -0.9595   -0.6079    0.8943 H.spc      1 <1>        0.000
      9 H           0.1186    1.8132    1.0022 H.spc      1 <1>        0.000
     10 H           1.0907   -2.1752    1.0061 H.spc      1 <1>        0.000
@<TRIPOS>BOND
     1    1    2 2  
     2    1    3 1  
     3    1    4 1  
     4    1    5 1  
     5    5    6 2  
     6    5    7 1  
     7    3    8 1  
     8    4    9 1  
     9    7   10 1  
# Name:          frag3-272-2/31924 -- energy: -0.777823
# Creation time: Sat Jun  5 12:52:44 2010


@<TRIPOS>MOLECULE
frag3-272-2/31924 -- energy: -0.777823
   10     9     1     1     1
SMALL
USER_CHARGES


@<TRIPOS>ATOM
      1 P1          0.6931    0.1688   -0.1878 P.3        1 <1>        0.000
      2 O1          0.8958   -0.1168   -1.6089 O.2        1 <1>        0.000
      3 O2         -0.7345   -0.4268    0.1705 O.3        1 <1>        0.000
      4 O3          0.5369    1.7417   -0.0884 O.3        1 <1>        0.000
      5 C3          1.9309   -0.5161    0.8097 C.2        1 <1>        0.000
      6 O4          2.7874   -1.2584    0.3506 O.2        1 <1>        0.000
      7 O5          1.9449   -0.2560    2.1524 O.3        1 <1>        0.000
      8 H          -0.9228   -0.2675    1.0983 H.spc      1 <1>        0.000
      9 H           0.4002    1.9913    0.8285 H.spc      1 <1>        0.000
     10 H           1.2216    0.3365    2.3700 H.spc      1 <1>        0.000
@<TRIPOS>BOND
     1    1    2 2  
     2    1    3 1  
     3    1    4 1  
     4    1    5 1  
     5    5    6 2  
     6    5    7 1  
     7    3    8 1  
     8    4    9 1  
     9    7   10 1  
