#      Rotatable Fragment
#      Build by yxyuan
#
# Name:          frag3-172-13/96164
# Creation time: Sat Jun  5 12:53:07 2010


@<TRIPOS>MOLECULE
frag3-172-13/96164
    7     6     1     1     1
SMALL
USER_CHARGES


@<TRIPOS>ATOM
      1 C13         2.4055   -0.3744   -0.0318 C.2        1 <1>        0.000
      2 O3          3.5420   -1.0475   -0.0887 O.3        1 <1>        0.000
      3 O4          2.2556    0.8274    0.0056 O.2        1 <1>        0.000
      4 N2          4.5758   -0.3614    0.6090 N.3        1 <1>        0.000
      5 H           1.4942   -0.9722   -0.0167 H.spc      1 <1>        0.000
      6 H           5.4398   -0.9003    0.5500 H.spc      1 <1>        0.000
      7 H           4.7170    0.5569    0.1880 H.spc      1 <1>        0.000
@<TRIPOS>BOND
     1    1    3 2  
     2    1    2 1  
     3    2    4 1  
     4    1    5 1  
     5    4    6 1  
     6    4    7 1  
# Name:          frag3-172-13/96164
# Creation time: Sat Jun  5 12:53:07 2010


@<TRIPOS>MOLECULE
frag3-172-13/96164
    7     6     1     1     1
SMALL
USER_CHARGES


@<TRIPOS>ATOM
      1 C13         2.7029    0.1223    0.3107 C.2        1 <1>        0.000
      2 O3          3.6121   -0.7059   -0.1419 O.3        1 <1>        0.000
      3 O4          1.7388    0.4979   -0.3222 O.2        1 <1>        0.000
      4 N2          4.7252   -0.8701    0.6475 N.3        1 <1>        0.000
      5 H           2.8213    0.4998    1.3264 H.spc      1 <1>        0.000
      6 H           5.3618   -1.5311    0.2023 H.spc      1 <1>        0.000
      7 H           5.1933    0.0286    0.7642 H.spc      1 <1>        0.000
@<TRIPOS>BOND
     1    1    3 2  
     2    1    2 1  
     3    2    4 1  
     4    1    5 1  
     5    4    6 1  
     6    4    7 1  
# Name:          frag3-172-13/96164 -- energy: -0.046364
# Creation time: Sat Jun  5 12:53:07 2010


@<TRIPOS>MOLECULE
frag3-172-13/96164 -- energy: -0.046364
    7     6     1     1     1
SMALL
USER_CHARGES


@<TRIPOS>ATOM
      1 C13         2.4055   -0.3744   -0.0318 C.2        1 <1>        0.000
      2 O3          3.5420   -1.0475   -0.0887 O.3        1 <1>        0.000
      3 O4          2.2556    0.8274    0.0056 O.2        1 <1>        0.000
      4 N2          4.5758   -0.3614    0.6090 N.3        1 <1>        0.000
      5 H           1.4942   -0.9722   -0.0167 H.spc      1 <1>        0.000
      6 H           5.4398   -0.9003    0.5500 H.spc      1 <1>        0.000
      7 H           4.7170    0.5569    0.1880 H.spc      1 <1>        0.000
@<TRIPOS>BOND
     1    1    3 2  
     2    1    2 1  
     3    2    4 1  
     4    1    5 1  
     5    4    6 1  
     6    4    7 1  
# Name:          frag3-172-13/96164 -- energy: -0.129250
# Creation time: Sat Jun  5 12:53:07 2010


@<TRIPOS>MOLECULE
frag3-172-13/96164 -- energy: -0.129250
    7     6     1     1     1
SMALL
USER_CHARGES


@<TRIPOS>ATOM
      1 C13         2.7029    0.1223    0.3107 C.2        1 <1>        0.000
      2 O3          3.6121   -0.7059   -0.1419 O.3        1 <1>        0.000
      3 O4          1.7388    0.4979   -0.3222 O.2        1 <1>        0.000
      4 N2          4.7252   -0.8701    0.6475 N.3        1 <1>        0.000
      5 H           2.8213    0.4998    1.3264 H.spc      1 <1>        0.000
      6 H           5.3618   -1.5311    0.2023 H.spc      1 <1>        0.000
      7 H           5.1933    0.0286    0.7642 H.spc      1 <1>        0.000
@<TRIPOS>BOND
     1    1    3 2  
     2    1    2 1  
     3    2    4 1  
     4    1    5 1  
     5    4    6 1  
     6    4    7 1  
