#      Rotatable Fragment
#      Build by yxyuan
#
# Name:          frag4-327-693/150395
# Creation time: Sat Jun  5 12:53:31 2010


@<TRIPOS>MOLECULE
frag4-327-693/150395
   14    14     1     1     1
SMALL
USER_CHARGES


@<TRIPOS>ATOM
      1 N3         -1.9550   -0.2966    1.1294 N.3        1 <1>        0.000
      2 C14        -3.1398    0.3624    0.6639 C.3        1 <1>        0.000
      3 C15        -1.8815   -1.6907    0.8256 C.3        1 <1>        0.000
      4 C16        -3.5814   -0.5691   -0.4222 C.3        1 <1>        0.000
      5 C17        -3.2116   -1.9156    0.1584 C.3        1 <1>        0.000
      6 H          -1.9531   -0.2160    2.1462 H.spc      1 <1>        0.000
      7 H          -2.9700    1.3843    0.3246 H.spc      1 <1>        0.000
      8 H          -3.8890    0.5197    1.4398 H.spc      1 <1>        0.000
      9 H          -1.7160   -2.3220    1.6986 H.spc      1 <1>        0.000
     10 H          -1.0275   -1.9601    0.2041 H.spc      1 <1>        0.000
     11 H          -3.1115   -0.3675   -1.3848 H.spc      1 <1>        0.000
     12 H          -4.6393   -0.4782   -0.6686 H.spc      1 <1>        0.000
     13 H          -3.9633   -2.2764    0.8605 H.spc      1 <1>        0.000
     14 H          -3.1567   -2.6883   -0.6085 H.spc      1 <1>        0.000
@<TRIPOS>BOND
     1    1    2 1  
     2    1    3 1  
     3    2    4 1  
     4    3    5 1  
     5    4    5 1  
     6    1    6 1  
     7    2    7 1  
     8    2    8 1  
     9    3    9 1  
    10    3   10 1  
    11    4   11 1  
    12    4   12 1  
    13    5   13 1  
    14    5   14 1  
# Name:          frag4-327-693/150395 -- energy: -0.854874
# Creation time: Sat Jun  5 12:53:31 2010


@<TRIPOS>MOLECULE
frag4-327-693/150395 -- energy: -0.854874
   14    14     1     1     1
SMALL
USER_CHARGES


@<TRIPOS>ATOM
      1 N3         -1.9550   -0.2966    1.1294 N.3        1 <1>        0.000
      2 C14        -3.1398    0.3624    0.6639 C.3        1 <1>        0.000
      3 C15        -1.8815   -1.6907    0.8256 C.3        1 <1>        0.000
      4 C16        -3.5814   -0.5691   -0.4222 C.3        1 <1>        0.000
      5 C17        -3.2116   -1.9156    0.1584 C.3        1 <1>        0.000
      6 H          -1.9531   -0.2160    2.1462 H.spc      1 <1>        0.000
      7 H          -2.9700    1.3843    0.3246 H.spc      1 <1>        0.000
      8 H          -3.8890    0.5197    1.4398 H.spc      1 <1>        0.000
      9 H          -1.7160   -2.3220    1.6986 H.spc      1 <1>        0.000
     10 H          -1.0275   -1.9601    0.2041 H.spc      1 <1>        0.000
     11 H          -3.1115   -0.3675   -1.3848 H.spc      1 <1>        0.000
     12 H          -4.6393   -0.4782   -0.6686 H.spc      1 <1>        0.000
     13 H          -3.9633   -2.2764    0.8605 H.spc      1 <1>        0.000
     14 H          -3.1567   -2.6883   -0.6085 H.spc      1 <1>        0.000
@<TRIPOS>BOND
     1    1    2 1  
     2    1    3 1  
     3    2    4 1  
     4    3    5 1  
     5    4    5 1  
     6    1    6 1  
     7    2    7 1  
     8    2    8 1  
     9    3    9 1  
    10    3   10 1  
    11    4   11 1  
    12    4   12 1  
    13    5   13 1  
    14    5   14 1  
