#      Rotatable Fragment
#      Build by yxyuan
#
# Name:          frag5-601-35/41815
# Creation time: Sat Jun  5 12:52:58 2010


@<TRIPOS>MOLECULE
frag5-601-35/41815
   17    17     1     1     1
SMALL
USER_CHARGES


@<TRIPOS>ATOM
      1 S1          5.3707    0.2550   -4.2518 S.o2       1 <1>        0.000
      2 O1          4.5424    1.0608   -5.1312 O.2        1 <1>        0.000
      3 O2          6.8107    0.2420   -4.4416 O.2        1 <1>        0.000
      4 N1          4.7900   -1.3703   -4.2676 N.am       1 <1>        0.000
      5 C1          5.0028    0.6840   -2.5820 C.ar       1 <1>        0.000
      6 C2          5.9288    0.4036   -1.5651 C.ar       1 <1>        0.000
      7 C3          5.6619    0.7367   -0.2402 C.ar       1 <1>        0.000
      8 C4          4.4558    1.3603    0.0899 C.ar       1 <1>        0.000
      9 C5          3.5232    1.6495   -0.9098 C.ar       1 <1>        0.000
     10 C6          3.7975    1.3140   -2.2331 C.ar       1 <1>        0.000
     11 H           5.4423   -2.1437   -4.3970 H.spc      1 <1>        0.000
     12 H           3.7945   -1.5574   -4.1475 H.spc      1 <1>        0.000
     13 H           6.8714   -0.0825   -1.8168 H.spc      1 <1>        0.000
     14 H           6.3917    0.5117    0.5376 H.spc      1 <1>        0.000
     15 H           4.2425    1.6210    1.1266 H.spc      1 <1>        0.000
     16 H           2.5824    2.1370   -0.6541 H.spc      1 <1>        0.000
     17 H           3.0667    1.5435   -3.0085 H.spc      1 <1>        0.000
@<TRIPOS>BOND
     1    9   10 ar 
     2    7    8 ar 
     3    8    9 ar 
     4    1    3 2  
     5    1    2 2  
     6    1    4 1  
     7    1    5 1  
     8    5    6 ar 
     9    5   10 ar 
    10    6    7 ar 
    11    4   11 1  
    12    4   12 1  
    13    6   13 1  
    14    7   14 1  
    15    8   15 1  
    16    9   16 1  
    17   10   17 1  
# Name:          frag5-601-35/41815
# Creation time: Sat Jun  5 12:52:58 2010


@<TRIPOS>MOLECULE
frag5-601-35/41815
   17    17     1     1     1
SMALL
USER_CHARGES


@<TRIPOS>ATOM
      1 S1          5.4041    0.2285   -4.2371 S.o2       1 <1>        0.000
      2 O1          5.0939    1.3602   -5.0920 O.2        1 <1>        0.000
      3 O2          6.7288   -0.3667   -4.2949 O.2        1 <1>        0.000
      4 N1          4.2276   -1.0049   -4.4901 N.am       1 <1>        0.000
      5 C1          5.0297    0.6629   -2.5720 C.ar       1 <1>        0.000
      6 C2          6.0566    0.9788   -1.6718 C.ar       1 <1>        0.000
      7 C3          5.7771    1.3302   -0.3548 C.ar       1 <1>        0.000
      8 C4          4.4521    1.3713    0.0865 C.ar       1 <1>        0.000
      9 C5          3.4130    1.0624   -0.7953 C.ar       1 <1>        0.000
     10 C6          3.7009    0.7128   -2.1110 C.ar       1 <1>        0.000
     11 H           4.5242   -1.9682   -4.6464 H.spc      1 <1>        0.000
     12 H           3.2347   -0.7716   -4.4835 H.spc      1 <1>        0.000
     13 H           7.0925    0.9486   -2.0095 H.spc      1 <1>        0.000
     14 H           6.5893    1.5727    0.3305 H.spc      1 <1>        0.000
     15 H           4.2291    1.6441    1.1180 H.spc      1 <1>        0.000
     16 H           2.3787    1.0953   -0.4530 H.spc      1 <1>        0.000
     17 H           2.8858    0.4742   -2.7942 H.spc      1 <1>        0.000
@<TRIPOS>BOND
     1    9   10 ar 
     2    7    8 ar 
     3    8    9 ar 
     4    1    3 2  
     5    1    2 2  
     6    1    4 1  
     7    1    5 1  
     8    5    6 ar 
     9    5   10 ar 
    10    6    7 ar 
    11    4   11 1  
    12    4   12 1  
    13    6   13 1  
    14    7   14 1  
    15    8   15 1  
    16    9   16 1  
    17   10   17 1  
# Name:          frag5-601-35/41815
# Creation time: Sat Jun  5 12:52:58 2010


@<TRIPOS>MOLECULE
frag5-601-35/41815
   17    17     1     1     1
SMALL
USER_CHARGES


@<TRIPOS>ATOM
      1 S1          5.3234    0.2579   -4.2620 S.o2       1 <1>        0.000
      2 O1          4.1347    0.4944   -5.0627 O.2        1 <1>        0.000
      3 O2          6.5834    0.8587   -4.6640 O.2        1 <1>        0.000
      4 N1          5.5477   -1.4364   -4.0820 N.am       1 <1>        0.000
      5 C1          4.9742    0.6959   -2.5957 C.ar       1 <1>        0.000
      6 C2          5.4667   -0.1010   -1.5436 C.ar       1 <1>        0.000
      7 C3          5.2142    0.2203   -0.2158 C.ar       1 <1>        0.000
      8 C4          4.4581    1.3542    0.0911 C.ar       1 <1>        0.000
      9 C5          3.9613    2.1608   -0.9358 C.ar       1 <1>        0.000
     10 C6          4.2199    1.8309   -2.2620 C.ar       1 <1>        0.000
     11 H           6.4634   -1.8509   -4.2553 H.spc      1 <1>        0.000
     12 H           4.7651   -2.0275   -3.8019 H.spc      1 <1>        0.000
     13 H           6.0575   -0.9871   -1.7759 H.spc      1 <1>        0.000
     14 H           5.6045   -0.4098    0.5834 H.spc      1 <1>        0.000
     15 H           4.2558    1.6095    1.1313 H.spc      1 <1>        0.000
     16 H           3.3723    3.0467   -0.6982 H.spc      1 <1>        0.000
     17 H           3.8292    2.4661   -3.0570 H.spc      1 <1>        0.000
@<TRIPOS>BOND
     1    9   10 ar 
     2    7    8 ar 
     3    8    9 ar 
     4    1    3 2  
     5    1    2 2  
     6    1    4 1  
     7    1    5 1  
     8    5    6 ar 
     9    5   10 ar 
    10    6    7 ar 
    11    4   11 1  
    12    4   12 1  
    13    6   13 1  
    14    7   14 1  
    15    8   15 1  
    16    9   16 1  
    17   10   17 1  
# Name:          frag5-601-35/41815 -- energy: -0.983470
# Creation time: Sat Jun  5 12:52:58 2010


@<TRIPOS>MOLECULE
frag5-601-35/41815 -- energy: -0.983470
   17    17     1     1     1
SMALL
USER_CHARGES


@<TRIPOS>ATOM
      1 S1          5.3707    0.2550   -4.2518 S.o2       1 <1>        0.000
      2 O1          4.5424    1.0608   -5.1312 O.2        1 <1>        0.000
      3 O2          6.8107    0.2420   -4.4416 O.2        1 <1>        0.000
      4 N1          4.7900   -1.3703   -4.2676 N.am       1 <1>        0.000
      5 C1          5.0028    0.6840   -2.5820 C.ar       1 <1>        0.000
      6 C2          5.9288    0.4036   -1.5651 C.ar       1 <1>        0.000
      7 C3          5.6619    0.7367   -0.2402 C.ar       1 <1>        0.000
      8 C4          4.4558    1.3603    0.0899 C.ar       1 <1>        0.000
      9 C5          3.5232    1.6495   -0.9098 C.ar       1 <1>        0.000
     10 C6          3.7975    1.3140   -2.2331 C.ar       1 <1>        0.000
     11 H           5.4423   -2.1437   -4.3970 H.spc      1 <1>        0.000
     12 H           3.7945   -1.5574   -4.1475 H.spc      1 <1>        0.000
     13 H           6.8714   -0.0825   -1.8168 H.spc      1 <1>        0.000
     14 H           6.3917    0.5117    0.5376 H.spc      1 <1>        0.000
     15 H           4.2425    1.6210    1.1266 H.spc      1 <1>        0.000
     16 H           2.5824    2.1370   -0.6541 H.spc      1 <1>        0.000
     17 H           3.0667    1.5435   -3.0085 H.spc      1 <1>        0.000
@<TRIPOS>BOND
     1    9   10 ar 
     2    7    8 ar 
     3    8    9 ar 
     4    1    3 2  
     5    1    2 2  
     6    1    4 1  
     7    1    5 1  
     8    5    6 ar 
     9    5   10 ar 
    10    6    7 ar 
    11    4   11 1  
    12    4   12 1  
    13    6   13 1  
    14    7   14 1  
    15    8   15 1  
    16    9   16 1  
    17   10   17 1  
# Name:          frag5-601-35/41815 -- energy: -0.980722
# Creation time: Sat Jun  5 12:52:58 2010


@<TRIPOS>MOLECULE
frag5-601-35/41815 -- energy: -0.980722
   17    17     1     1     1
SMALL
USER_CHARGES


@<TRIPOS>ATOM
      1 S1          5.4041    0.2285   -4.2371 S.o2       1 <1>        0.000
      2 O1          5.0939    1.3602   -5.0920 O.2        1 <1>        0.000
      3 O2          6.7288   -0.3667   -4.2949 O.2        1 <1>        0.000
      4 N1          4.2276   -1.0049   -4.4901 N.am       1 <1>        0.000
      5 C1          5.0297    0.6629   -2.5720 C.ar       1 <1>        0.000
      6 C2          6.0566    0.9788   -1.6718 C.ar       1 <1>        0.000
      7 C3          5.7771    1.3302   -0.3548 C.ar       1 <1>        0.000
      8 C4          4.4521    1.3713    0.0865 C.ar       1 <1>        0.000
      9 C5          3.4130    1.0624   -0.7953 C.ar       1 <1>        0.000
     10 C6          3.7009    0.7128   -2.1110 C.ar       1 <1>        0.000
     11 H           4.5242   -1.9682   -4.6464 H.spc      1 <1>        0.000
     12 H           3.2347   -0.7716   -4.4835 H.spc      1 <1>        0.000
     13 H           7.0925    0.9486   -2.0095 H.spc      1 <1>        0.000
     14 H           6.5893    1.5727    0.3305 H.spc      1 <1>        0.000
     15 H           4.2291    1.6441    1.1180 H.spc      1 <1>        0.000
     16 H           2.3787    1.0953   -0.4530 H.spc      1 <1>        0.000
     17 H           2.8858    0.4742   -2.7942 H.spc      1 <1>        0.000
@<TRIPOS>BOND
     1    9   10 ar 
     2    7    8 ar 
     3    8    9 ar 
     4    1    3 2  
     5    1    2 2  
     6    1    4 1  
     7    1    5 1  
     8    5    6 ar 
     9    5   10 ar 
    10    6    7 ar 
    11    4   11 1  
    12    4   12 1  
    13    6   13 1  
    14    7   14 1  
    15    8   15 1  
    16    9   16 1  
    17   10   17 1  
# Name:          frag5-601-35/41815 -- energy: -0.935282
# Creation time: Sat Jun  5 12:52:58 2010


@<TRIPOS>MOLECULE
frag5-601-35/41815 -- energy: -0.935282
   17    17     1     1     1
SMALL
USER_CHARGES


@<TRIPOS>ATOM
      1 S1          5.3234    0.2579   -4.2620 S.o2       1 <1>        0.000
      2 O1          4.1347    0.4944   -5.0627 O.2        1 <1>        0.000
      3 O2          6.5834    0.8587   -4.6640 O.2        1 <1>        0.000
      4 N1          5.5477   -1.4364   -4.0820 N.am       1 <1>        0.000
      5 C1          4.9742    0.6959   -2.5957 C.ar       1 <1>        0.000
      6 C2          5.4667   -0.1010   -1.5436 C.ar       1 <1>        0.000
      7 C3          5.2142    0.2203   -0.2158 C.ar       1 <1>        0.000
      8 C4          4.4581    1.3542    0.0911 C.ar       1 <1>        0.000
      9 C5          3.9613    2.1608   -0.9358 C.ar       1 <1>        0.000
     10 C6          4.2199    1.8309   -2.2620 C.ar       1 <1>        0.000
     11 H           6.4634   -1.8509   -4.2553 H.spc      1 <1>        0.000
     12 H           4.7651   -2.0275   -3.8019 H.spc      1 <1>        0.000
     13 H           6.0575   -0.9871   -1.7759 H.spc      1 <1>        0.000
     14 H           5.6045   -0.4098    0.5834 H.spc      1 <1>        0.000
     15 H           4.2558    1.6095    1.1313 H.spc      1 <1>        0.000
     16 H           3.3723    3.0467   -0.6982 H.spc      1 <1>        0.000
     17 H           3.8292    2.4661   -3.0570 H.spc      1 <1>        0.000
@<TRIPOS>BOND
     1    9   10 ar 
     2    7    8 ar 
     3    8    9 ar 
     4    1    3 2  
     5    1    2 2  
     6    1    4 1  
     7    1    5 1  
     8    5    6 ar 
     9    5   10 ar 
    10    6    7 ar 
    11    4   11 1  
    12    4   12 1  
    13    6   13 1  
    14    7   14 1  
    15    8   15 1  
    16    9   16 1  
    17   10   17 1  
