#      Rotatable Fragment
#      Build by yxyuan
#
# Name:          frag4-373-82/48856
# Creation time: Sat Jun  5 12:53:32 2010


@<TRIPOS>MOLECULE
frag4-373-82/48856
   14    14     1     1     1
SMALL
USER_CHARGES


@<TRIPOS>ATOM
      1 O1         -2.6502    0.0479   -0.0202 O.3        1 <1>        0.000
      2 C1         -1.9980   -1.2337   -0.1109 C.3        1 <1>        0.000
      3 C2         -2.9926   -2.3881   -0.3846 C.3        1 <1>        0.000
      4 C3         -3.7480   -2.0464   -1.6389 C.2        1 <1>        0.000
      5 C4         -3.9663   -0.7616   -1.9359 C.2        1 <1>        0.000
      6 C5         -3.4938    0.3050   -1.0316 C.3        1 <1>        0.000
      7 H          -1.5095   -1.4303    0.8434 H.spc      1 <1>        0.000
      8 H          -1.2929   -1.1938   -0.9412 H.spc      1 <1>        0.000
      9 H          -3.6793   -2.5062    0.4536 H.spc      1 <1>        0.000
     10 H          -2.4585   -3.3305   -0.5062 H.spc      1 <1>        0.000
     11 H          -4.1125   -2.8353   -2.2968 H.spc      1 <1>        0.000
     12 H          -4.4965   -0.4999   -2.8516 H.spc      1 <1>        0.000
     13 H          -2.9219    0.9641   -1.6848 H.spc      1 <1>        0.000
     14 H          -4.4020    0.6424   -0.5321 H.spc      1 <1>        0.000
@<TRIPOS>BOND
     1    1    2 1  
     2    1    6 1  
     3    2    3 1  
     4    3    4 1  
     5    4    5 2  
     6    5    6 1  
     7    2    7 1  
     8    2    8 1  
     9    3    9 1  
    10    3   10 1  
    11    4   11 1  
    12    5   12 1  
    13    6   13 1  
    14    6   14 1  
# Name:          frag4-373-82/48856 -- energy: -0.392677
# Creation time: Sat Jun  5 12:53:32 2010


@<TRIPOS>MOLECULE
frag4-373-82/48856 -- energy: -0.392677
   14    14     1     1     1
SMALL
USER_CHARGES


@<TRIPOS>ATOM
      1 O1         -2.6502    0.0479   -0.0202 O.3        1 <1>        0.000
      2 C1         -1.9980   -1.2337   -0.1109 C.3        1 <1>        0.000
      3 C2         -2.9926   -2.3881   -0.3846 C.3        1 <1>        0.000
      4 C3         -3.7480   -2.0464   -1.6389 C.2        1 <1>        0.000
      5 C4         -3.9663   -0.7616   -1.9359 C.2        1 <1>        0.000
      6 C5         -3.4938    0.3050   -1.0316 C.3        1 <1>        0.000
      7 H          -1.5095   -1.4303    0.8434 H.spc      1 <1>        0.000
      8 H          -1.2929   -1.1938   -0.9412 H.spc      1 <1>        0.000
      9 H          -3.6793   -2.5062    0.4536 H.spc      1 <1>        0.000
     10 H          -2.4585   -3.3305   -0.5062 H.spc      1 <1>        0.000
     11 H          -4.1125   -2.8353   -2.2968 H.spc      1 <1>        0.000
     12 H          -4.4965   -0.4999   -2.8516 H.spc      1 <1>        0.000
     13 H          -2.9219    0.9641   -1.6848 H.spc      1 <1>        0.000
     14 H          -4.4020    0.6424   -0.5321 H.spc      1 <1>        0.000
@<TRIPOS>BOND
     1    1    2 1  
     2    1    6 1  
     3    2    3 1  
     4    3    4 1  
     5    4    5 2  
     6    5    6 1  
     7    2    7 1  
     8    2    8 1  
     9    3    9 1  
    10    3   10 1  
    11    4   11 1  
    12    5   12 1  
    13    6   13 1  
    14    6   14 1  
