#      Rotatable Fragment
#      Build by yxyuan
#
# Name:          frag5-645-77/138278
# Creation time: Sat Jun  5 12:53:50 2010


@<TRIPOS>MOLECULE
frag5-645-77/138278
   17    18     1     1     1
SMALL
USER_CHARGES


@<TRIPOS>ATOM
      1 C1         -1.2894    0.4209   -0.2501 C.3        1 <1>        0.000
      2 C2         -2.7284   -0.0995   -0.1317 C.ar       1 <1>        0.000
      3 N1         -0.5307   -0.8298   -0.1611 N.am       1 <1>        0.000
      4 C4         -2.7520   -1.4810    0.0050 C.ar       1 <1>        0.000
      5 C5         -3.9224    0.6232   -0.1465 C.ar       1 <1>        0.000
      6 C6         -1.3136   -1.9144   -0.0181 C.2        1 <1>        0.000
      7 C10        -3.9393   -2.2017    0.1299 C.ar       1 <1>        0.000
      8 C11        -5.1270   -0.0810   -0.0228 C.ar       1 <1>        0.000
      9 O1         -0.9478   -3.0744    0.0800 O.2        1 <1>        0.000
     10 C15        -5.1368   -1.4768    0.1138 C.ar       1 <1>        0.000
     11 H          -1.0993    0.9878   -1.1615 H.spc      1 <1>        0.000
     12 H          -1.0218    1.1538    0.5110 H.spc      1 <1>        0.000
     13 H           0.4875   -0.8735   -0.2033 H.spc      1 <1>        0.000
     14 H          -3.9176    1.7081   -0.2517 H.spc      1 <1>        0.000
     15 H          -3.9351   -3.2865    0.2359 H.spc      1 <1>        0.000
     16 H          -6.0709    0.4640   -0.0329 H.spc      1 <1>        0.000
     17 H          -6.0868   -2.0027    0.2084 H.spc      1 <1>        0.000
@<TRIPOS>BOND
     1    5    8 ar 
     2    7   10 ar 
     3    8   10 ar 
     4    6    9 2  
     5    1    3 1  
     6    1    2 1  
     7    2    4 ar 
     8    2    5 ar 
     9    3    6 am 
    10    4    7 ar 
    11    4    6 1  
    12    1   11 1  
    13    1   12 1  
    14    3   13 1  
    15    5   14 1  
    16    7   15 1  
    17    8   16 1  
    18   10   17 1  
# Name:          frag5-645-77/138278 -- energy: -0.846559
# Creation time: Sat Jun  5 12:53:50 2010


@<TRIPOS>MOLECULE
frag5-645-77/138278 -- energy: -0.846559
   17    18     1     1     1
SMALL
USER_CHARGES


@<TRIPOS>ATOM
      1 C1         -1.2894    0.4209   -0.2501 C.3        1 <1>        0.000
      2 C2         -2.7284   -0.0995   -0.1317 C.ar       1 <1>        0.000
      3 N1         -0.5307   -0.8298   -0.1611 N.am       1 <1>        0.000
      4 C4         -2.7520   -1.4810    0.0050 C.ar       1 <1>        0.000
      5 C5         -3.9224    0.6232   -0.1465 C.ar       1 <1>        0.000
      6 C6         -1.3136   -1.9144   -0.0181 C.2        1 <1>        0.000
      7 C10        -3.9393   -2.2017    0.1299 C.ar       1 <1>        0.000
      8 C11        -5.1270   -0.0810   -0.0228 C.ar       1 <1>        0.000
      9 O1         -0.9478   -3.0744    0.0800 O.2        1 <1>        0.000
     10 C15        -5.1368   -1.4768    0.1138 C.ar       1 <1>        0.000
     11 H          -1.0993    0.9878   -1.1615 H.spc      1 <1>        0.000
     12 H          -1.0218    1.1538    0.5110 H.spc      1 <1>        0.000
     13 H           0.4875   -0.8735   -0.2033 H.spc      1 <1>        0.000
     14 H          -3.9176    1.7081   -0.2517 H.spc      1 <1>        0.000
     15 H          -3.9351   -3.2865    0.2359 H.spc      1 <1>        0.000
     16 H          -6.0709    0.4640   -0.0329 H.spc      1 <1>        0.000
     17 H          -6.0868   -2.0027    0.2084 H.spc      1 <1>        0.000
@<TRIPOS>BOND
     1    5    8 ar 
     2    7   10 ar 
     3    8   10 ar 
     4    6    9 2  
     5    1    3 1  
     6    1    2 1  
     7    2    4 ar 
     8    2    5 ar 
     9    3    6 am 
    10    4    7 ar 
    11    4    6 1  
    12    1   11 1  
    13    1   12 1  
    14    3   13 1  
    15    5   14 1  
    16    7   15 1  
    17    8   16 1  
    18   10   17 1  
