#      Rotatable Fragment
#      Build by yxyuan
#
# Name:          frag2-039-101/92655
# Creation time: Sat Jun  5 12:51:57 2010


@<TRIPOS>MOLECULE
frag2-039-101/92655
   16    17     1     1     1
SMALL
USER_CHARGES


@<TRIPOS>ATOM
      1 C4          2.7503    0.1100   -0.1156 C.ar       1 <1>        0.000
      2 N4          1.7693    1.0295   -0.1507 N.ar       1 <1>        0.000
      3 C5          0.4672    0.6771   -0.0721 C.ar       1 <1>        0.000
      4 C6          0.1383   -0.6858    0.0483 C.ar       1 <1>        0.000
      5 C7          1.1806   -1.6111    0.0848 C.ar       1 <1>        0.000
      6 N5          2.4590   -1.2008   -0.0007 N.ar       1 <1>        0.000
      7 C13        -1.2104   -1.0560    0.1282 C.ar       1 <1>        0.000
      8 C14        -2.2130   -0.0922    0.0908 C.ar       1 <1>        0.000
      9 C15        -1.8779    1.2564   -0.0262 C.ar       1 <1>        0.000
     10 C16        -0.5447    1.6310   -0.1082 C.ar       1 <1>        0.000
     11 H           3.7908    0.4280   -0.1807 H.spc      1 <1>        0.000
     12 H           0.9583   -2.6736    0.1832 H.spc      1 <1>        0.000
     13 H          -1.4768   -2.1089    0.2205 H.spc      1 <1>        0.000
     14 H          -3.2594   -0.3909    0.1529 H.spc      1 <1>        0.000
     15 H          -2.6612    2.0139   -0.0531 H.spc      1 <1>        0.000
     16 H          -0.2868    2.6859   -0.2021 H.spc      1 <1>        0.000
@<TRIPOS>BOND
     1    8    9 ar 
     2    9   10 ar 
     3    1    2 ar 
     4    2    3 ar 
     5    1    6 ar 
     6    3    4 ar 
     7    3   10 ar 
     8    4    5 ar 
     9    4    7 ar 
    10    5    6 ar 
    11    7    8 ar 
    12    1   11 1  
    13    5   12 1  
    14    7   13 1  
    15    8   14 1  
    16    9   15 1  
    17   10   16 1  
# Name:          frag2-039-101/92655 -- energy: 0.024777
# Creation time: Sat Jun  5 12:51:57 2010


@<TRIPOS>MOLECULE
frag2-039-101/92655 -- energy: 0.024777
   16    17     1     1     1
SMALL
USER_CHARGES


@<TRIPOS>ATOM
      1 C4          2.7503    0.1100   -0.1156 C.ar       1 <1>        0.000
      2 N4          1.7693    1.0295   -0.1507 N.ar       1 <1>        0.000
      3 C5          0.4672    0.6771   -0.0721 C.ar       1 <1>        0.000
      4 C6          0.1383   -0.6858    0.0483 C.ar       1 <1>        0.000
      5 C7          1.1806   -1.6111    0.0848 C.ar       1 <1>        0.000
      6 N5          2.4590   -1.2008   -0.0007 N.ar       1 <1>        0.000
      7 C13        -1.2104   -1.0560    0.1282 C.ar       1 <1>        0.000
      8 C14        -2.2130   -0.0922    0.0908 C.ar       1 <1>        0.000
      9 C15        -1.8779    1.2564   -0.0262 C.ar       1 <1>        0.000
     10 C16        -0.5447    1.6310   -0.1082 C.ar       1 <1>        0.000
     11 H           3.7908    0.4280   -0.1807 H.spc      1 <1>        0.000
     12 H           0.9583   -2.6736    0.1832 H.spc      1 <1>        0.000
     13 H          -1.4768   -2.1089    0.2205 H.spc      1 <1>        0.000
     14 H          -3.2594   -0.3909    0.1529 H.spc      1 <1>        0.000
     15 H          -2.6612    2.0139   -0.0531 H.spc      1 <1>        0.000
     16 H          -0.2868    2.6859   -0.2021 H.spc      1 <1>        0.000
@<TRIPOS>BOND
     1    8    9 ar 
     2    9   10 ar 
     3    1    2 ar 
     4    2    3 ar 
     5    1    6 ar 
     6    3    4 ar 
     7    3   10 ar 
     8    4    5 ar 
     9    4    7 ar 
    10    5    6 ar 
    11    7    8 ar 
    12    1   11 1  
    13    5   12 1  
    14    7   13 1  
    15    8   14 1  
    16    9   15 1  
    17   10   16 1  
