#      Rotatable Fragment
#      Build by yxyuan
#
# Name:          frag4-423-139/150395
# Creation time: Sat Jun  5 12:53:35 2010


@<TRIPOS>MOLECULE
frag4-423-139/150395
   71    73     1     1     1
SMALL
USER_CHARGES


@<TRIPOS>ATOM
      1 N1         -3.9506    4.2005    4.8133 N.3        1 <1>        0.000
      2 C1         -3.0730    4.6150    3.7442 C.3        1 <1>        0.000
      3 C2         -4.3445    2.8772    5.1237 C.3        1 <1>        0.000
      4 C3         -4.1518    5.2657    5.7432 C.3        1 <1>        0.000
      5 C4         -2.0302    5.3606    4.5667 C.3        1 <1>        0.000
      6 C5         -2.5724    3.6624    2.7218 C.3        1 <1>        0.000
      7 C6         -3.4882    1.6813    5.4417 C.3        1 <1>        0.000
      8 C11        -3.0817   -0.7428    4.7700 C.3        1 <1>        0.000
      9 C7         -2.8091    5.9706    5.7198 C.3        1 <1>        0.000
     10 N2         -2.9793    3.4382    1.3683 N.3        1 <1>        0.000
     11 N3         -3.7137    0.5362    4.6427 N.3        1 <1>        0.000
     12 C10        -4.0169    4.1208    0.6645 C.3        1 <1>        0.000
     13 N8          0.9704    0.1813    0.8457 N.3        1 <1>        0.000
     14 C25         1.6548    0.2583    3.0073 C.3        1 <1>        0.000
     15 C13        -4.2758    3.7304   -0.7915 C.3        1 <1>        0.000
     16 C14        -2.5116   -1.5390    3.6442 C.3        1 <1>        0.000
     17 C16        -3.3280    4.1262   -1.9127 C.3        1 <1>        0.000
     18 N4         -1.2154   -1.2161    3.1778 N.3        1 <1>        0.000
     19 C18        -2.3038    3.1260   -2.4012 C.3        1 <1>        0.000
     20 C19        -0.8441    0.0176    2.6141 C.3        1 <1>        0.000
     21 C21        -1.1294    3.0309   -1.4774 C.3        1 <1>        0.000
     22 C22         0.4534    0.5551    2.1316 C.3        1 <1>        0.000
     23 N7         -0.8010    2.0138   -0.6053 N.3        1 <1>        0.000
     24 C28        -0.9682    0.5970   -0.8037 C.3        1 <1>        0.000
     25 C30         0.1304   -0.2152   -0.2045 C.3        1 <1>        0.000
     26 C31         2.3770    0.4779    0.7120 C.3        1 <1>        0.000
     27 C32         2.8377    0.6478    2.1520 C.3        1 <1>        0.000
     28 H          -3.6070    5.1815    2.9813 H.spc      1 <1>        0.000
     29 H          -4.8359    3.0337    6.0840 H.spc      1 <1>        0.000
     30 H          -4.7768    2.5677    4.1722 H.spc      1 <1>        0.000
     31 H          -4.9838    5.9174    5.4764 H.spc      1 <1>        0.000
     32 H          -4.4384    4.9203    6.7365 H.spc      1 <1>        0.000
     33 H          -1.2395    4.6972    4.9171 H.spc      1 <1>        0.000
     34 H          -1.5159    6.1200    3.9777 H.spc      1 <1>        0.000
     35 H          -1.5777    4.0747    2.5526 H.spc      1 <1>        0.000
     36 H          -2.8896    2.7214    3.1712 H.spc      1 <1>        0.000
     37 H          -2.4564    1.9840    5.2633 H.spc      1 <1>        0.000
     38 H          -3.7260    1.3948    6.4661 H.spc      1 <1>        0.000
     39 H          -3.9051   -1.3740    5.1042 H.spc      1 <1>        0.000
     40 H          -2.1938   -0.5033    5.3551 H.spc      1 <1>        0.000
     41 H          -2.9318    7.0454    5.5861 H.spc      1 <1>        0.000
     42 H          -2.2802    5.8400    6.6639 H.spc      1 <1>        0.000
     43 H          -2.1512    3.7371    0.8531 H.spc      1 <1>        0.000
     44 H          -4.6794    0.3098    4.8807 H.spc      1 <1>        0.000
     45 H          -4.9361    3.8761    1.1968 H.spc      1 <1>        0.000
     46 H          -3.7055    5.1649    0.6324 H.spc      1 <1>        0.000
     47 H           1.6262    0.8092    3.9474 H.spc      1 <1>        0.000
     48 H           1.6937   -0.7870    3.3139 H.spc      1 <1>        0.000
     49 H          -5.1979    4.2568   -1.0378 H.spc      1 <1>        0.000
     50 H          -4.2176    2.6420   -0.7791 H.spc      1 <1>        0.000
     51 H          -3.1736   -1.3518    2.7987 H.spc      1 <1>        0.000
     52 H          -2.4317   -2.5566    4.0265 H.spc      1 <1>        0.000
     53 H          -2.7415    4.9494   -1.5047 H.spc      1 <1>        0.000
     54 H          -3.9731    4.3075   -2.7724 H.spc      1 <1>        0.000
     55 H          -1.1014   -1.8568    2.3924 H.spc      1 <1>        0.000
     56 H          -1.9449    3.4539   -3.3768 H.spc      1 <1>        0.000
     57 H          -2.7796    2.1466   -2.4502 H.spc      1 <1>        0.000
     58 H          -0.9862    0.6579    3.4847 H.spc      1 <1>        0.000
     59 H          -1.3666   -0.0610    1.6607 H.spc      1 <1>        0.000
     60 H          -1.3528    3.8366   -0.7781 H.spc      1 <1>        0.000
     61 H          -0.3105    2.9596   -2.1933 H.spc      1 <1>        0.000
     62 H           0.1017    1.5868    2.1231 H.spc      1 <1>        0.000
     63 H          -1.4565    2.1863    0.1569 H.spc      1 <1>        0.000
     64 H          -1.8985    0.3033   -0.3175 H.spc      1 <1>        0.000
     65 H          -0.9671    0.4119   -1.8779 H.spc      1 <1>        0.000
     66 H           0.8313   -0.2926   -1.0356 H.spc      1 <1>        0.000
     67 H          -0.4209   -1.0395    0.2480 H.spc      1 <1>        0.000
     68 H           2.9229   -0.3058    0.1866 H.spc      1 <1>        0.000
     69 H           2.5630    1.3638    0.1048 H.spc      1 <1>        0.000
     70 H           3.1523    1.6723    2.3508 H.spc      1 <1>        0.000
     71 H           3.7066    0.0260    2.3677 H.spc      1 <1>        0.000
@<TRIPOS>BOND
     1   26   27 1  
     2   24   25 1  
     3   14   27 1  
     4   12   15 1  
     5   11    8 1  
     6   10   12 1  
     7    7   11 1  
     8    6   10 1  
     9    5    9 1  
    10    4    9 1  
    11    3    7 1  
    12    1    2 1  
    13    2    6 1  
    14    2    5 1  
    15    1    4 1  
    16    1    3 1  
    17    8   16 1  
    18   15   17 1  
    19   16   18 1  
    20   17   19 1  
    21   18   20 1  
    22   19   21 1  
    23   20   22 1  
    24   22   13 1  
    25   22   14 1  
    26   21   23 1  
    27   23   24 1  
    28   13   25 1  
    29   13   26 1  
    30    2   28 1  
    31    3   29 1  
    32    3   30 1  
    33    4   31 1  
    34    4   32 1  
    35    5   33 1  
    36    5   34 1  
    37    6   35 1  
    38    6   36 1  
    39    7   37 1  
    40    7   38 1  
    41    8   39 1  
    42    8   40 1  
    43    9   41 1  
    44    9   42 1  
    45   10   43 1  
    46   11   44 1  
    47   12   45 1  
    48   12   46 1  
    49   14   47 1  
    50   14   48 1  
    51   15   49 1  
    52   15   50 1  
    53   16   51 1  
    54   16   52 1  
    55   17   53 1  
    56   17   54 1  
    57   18   55 1  
    58   19   56 1  
    59   19   57 1  
    60   20   58 1  
    61   20   59 1  
    62   21   60 1  
    63   21   61 1  
    64   22   62 1  
    65   23   63 1  
    66   24   64 1  
    67   24   65 1  
    68   25   66 1  
    69   25   67 1  
    70   26   68 1  
    71   26   69 1  
    72   27   70 1  
    73   27   71 1  
# Name:          frag4-423-139/150395 -- energy: -11.611754
# Creation time: Sat Jun  5 12:53:35 2010


@<TRIPOS>MOLECULE
frag4-423-139/150395 -- energy: -11.611754
   71    73     1     1     1
SMALL
USER_CHARGES


@<TRIPOS>ATOM
      1 N1         -3.9506    4.2005    4.8133 N.3        1 <1>        0.000
      2 C1         -3.0730    4.6150    3.7442 C.3        1 <1>        0.000
      3 C2         -4.3445    2.8772    5.1237 C.3        1 <1>        0.000
      4 C3         -4.1518    5.2657    5.7432 C.3        1 <1>        0.000
      5 C4         -2.0302    5.3606    4.5667 C.3        1 <1>        0.000
      6 C5         -2.5724    3.6624    2.7218 C.3        1 <1>        0.000
      7 C6         -3.4882    1.6813    5.4417 C.3        1 <1>        0.000
      8 C11        -3.0817   -0.7428    4.7700 C.3        1 <1>        0.000
      9 C7         -2.8091    5.9706    5.7198 C.3        1 <1>        0.000
     10 N2         -2.9793    3.4382    1.3683 N.3        1 <1>        0.000
     11 N3         -3.7137    0.5362    4.6427 N.3        1 <1>        0.000
     12 C10        -4.0169    4.1208    0.6645 C.3        1 <1>        0.000
     13 N8          0.9704    0.1813    0.8457 N.3        1 <1>        0.000
     14 C25         1.6548    0.2583    3.0073 C.3        1 <1>        0.000
     15 C13        -4.2758    3.7304   -0.7915 C.3        1 <1>        0.000
     16 C14        -2.5116   -1.5390    3.6442 C.3        1 <1>        0.000
     17 C16        -3.3280    4.1262   -1.9127 C.3        1 <1>        0.000
     18 N4         -1.2154   -1.2161    3.1778 N.3        1 <1>        0.000
     19 C18        -2.3038    3.1260   -2.4012 C.3        1 <1>        0.000
     20 C19        -0.8441    0.0176    2.6141 C.3        1 <1>        0.000
     21 C21        -1.1294    3.0309   -1.4774 C.3        1 <1>        0.000
     22 C22         0.4534    0.5551    2.1316 C.3        1 <1>        0.000
     23 N7         -0.8010    2.0138   -0.6053 N.3        1 <1>        0.000
     24 C28        -0.9682    0.5970   -0.8037 C.3        1 <1>        0.000
     25 C30         0.1304   -0.2152   -0.2045 C.3        1 <1>        0.000
     26 C31         2.3770    0.4779    0.7120 C.3        1 <1>        0.000
     27 C32         2.8377    0.6478    2.1520 C.3        1 <1>        0.000
     28 H          -3.6070    5.1815    2.9813 H.spc      1 <1>        0.000
     29 H          -4.8359    3.0337    6.0840 H.spc      1 <1>        0.000
     30 H          -4.7768    2.5677    4.1722 H.spc      1 <1>        0.000
     31 H          -4.9838    5.9174    5.4764 H.spc      1 <1>        0.000
     32 H          -4.4384    4.9203    6.7365 H.spc      1 <1>        0.000
     33 H          -1.2395    4.6972    4.9171 H.spc      1 <1>        0.000
     34 H          -1.5159    6.1200    3.9777 H.spc      1 <1>        0.000
     35 H          -1.5777    4.0747    2.5526 H.spc      1 <1>        0.000
     36 H          -2.8896    2.7214    3.1712 H.spc      1 <1>        0.000
     37 H          -2.4564    1.9840    5.2633 H.spc      1 <1>        0.000
     38 H          -3.7260    1.3948    6.4661 H.spc      1 <1>        0.000
     39 H          -3.9051   -1.3740    5.1042 H.spc      1 <1>        0.000
     40 H          -2.1938   -0.5033    5.3551 H.spc      1 <1>        0.000
     41 H          -2.9318    7.0454    5.5861 H.spc      1 <1>        0.000
     42 H          -2.2802    5.8400    6.6639 H.spc      1 <1>        0.000
     43 H          -2.1512    3.7371    0.8531 H.spc      1 <1>        0.000
     44 H          -4.6794    0.3098    4.8807 H.spc      1 <1>        0.000
     45 H          -4.9361    3.8761    1.1968 H.spc      1 <1>        0.000
     46 H          -3.7055    5.1649    0.6324 H.spc      1 <1>        0.000
     47 H           1.6262    0.8092    3.9474 H.spc      1 <1>        0.000
     48 H           1.6937   -0.7870    3.3139 H.spc      1 <1>        0.000
     49 H          -5.1979    4.2568   -1.0378 H.spc      1 <1>        0.000
     50 H          -4.2176    2.6420   -0.7791 H.spc      1 <1>        0.000
     51 H          -3.1736   -1.3518    2.7987 H.spc      1 <1>        0.000
     52 H          -2.4317   -2.5566    4.0265 H.spc      1 <1>        0.000
     53 H          -2.7415    4.9494   -1.5047 H.spc      1 <1>        0.000
     54 H          -3.9731    4.3075   -2.7724 H.spc      1 <1>        0.000
     55 H          -1.1014   -1.8568    2.3924 H.spc      1 <1>        0.000
     56 H          -1.9449    3.4539   -3.3768 H.spc      1 <1>        0.000
     57 H          -2.7796    2.1466   -2.4502 H.spc      1 <1>        0.000
     58 H          -0.9862    0.6579    3.4847 H.spc      1 <1>        0.000
     59 H          -1.3666   -0.0610    1.6607 H.spc      1 <1>        0.000
     60 H          -1.3528    3.8366   -0.7781 H.spc      1 <1>        0.000
     61 H          -0.3105    2.9596   -2.1933 H.spc      1 <1>        0.000
     62 H           0.1017    1.5868    2.1231 H.spc      1 <1>        0.000
     63 H          -1.4565    2.1863    0.1569 H.spc      1 <1>        0.000
     64 H          -1.8985    0.3033   -0.3175 H.spc      1 <1>        0.000
     65 H          -0.9671    0.4119   -1.8779 H.spc      1 <1>        0.000
     66 H           0.8313   -0.2926   -1.0356 H.spc      1 <1>        0.000
     67 H          -0.4209   -1.0395    0.2480 H.spc      1 <1>        0.000
     68 H           2.9229   -0.3058    0.1866 H.spc      1 <1>        0.000
     69 H           2.5630    1.3638    0.1048 H.spc      1 <1>        0.000
     70 H           3.1523    1.6723    2.3508 H.spc      1 <1>        0.000
     71 H           3.7066    0.0260    2.3677 H.spc      1 <1>        0.000
@<TRIPOS>BOND
     1   26   27 1  
     2   24   25 1  
     3   14   27 1  
     4   12   15 1  
     5   11    8 1  
     6   10   12 1  
     7    7   11 1  
     8    6   10 1  
     9    5    9 1  
    10    4    9 1  
    11    3    7 1  
    12    1    2 1  
    13    2    6 1  
    14    2    5 1  
    15    1    4 1  
    16    1    3 1  
    17    8   16 1  
    18   15   17 1  
    19   16   18 1  
    20   17   19 1  
    21   18   20 1  
    22   19   21 1  
    23   20   22 1  
    24   22   13 1  
    25   22   14 1  
    26   21   23 1  
    27   23   24 1  
    28   13   25 1  
    29   13   26 1  
    30    2   28 1  
    31    3   29 1  
    32    3   30 1  
    33    4   31 1  
    34    4   32 1  
    35    5   33 1  
    36    5   34 1  
    37    6   35 1  
    38    6   36 1  
    39    7   37 1  
    40    7   38 1  
    41    8   39 1  
    42    8   40 1  
    43    9   41 1  
    44    9   42 1  
    45   10   43 1  
    46   11   44 1  
    47   12   45 1  
    48   12   46 1  
    49   14   47 1  
    50   14   48 1  
    51   15   49 1  
    52   15   50 1  
    53   16   51 1  
    54   16   52 1  
    55   17   53 1  
    56   17   54 1  
    57   18   55 1  
    58   19   56 1  
    59   19   57 1  
    60   20   58 1  
    61   20   59 1  
    62   21   60 1  
    63   21   61 1  
    64   22   62 1  
    65   23   63 1  
    66   24   64 1  
    67   24   65 1  
    68   25   66 1  
    69   25   67 1  
    70   26   68 1  
    71   26   69 1  
    72   27   70 1  
    73   27   71 1  
