#      Rotatable Fragment
#      Build by yxyuan
#
# Name:          frag3-284-3/96164
# Creation time: Sat Jun  5 12:53:28 2010


@<TRIPOS>MOLECULE
frag3-284-3/96164
   11    10     1     1     1
SMALL
USER_CHARGES


@<TRIPOS>ATOM
      1 N6          0.4254   -1.1617   -0.0343 N.am       1 <1>        0.000
      2 S1         -0.9535   -0.3920   -0.0504 S.o2       1 <1>        0.000
      3 N7         -0.6497    0.8816   -0.9042 N.am       1 <1>        0.000
      4 O4         -1.8256   -1.2187   -0.8196 O.2        1 <1>        0.000
      5 O5         -1.2144    0.0253    1.3029 O.2        1 <1>        0.000
      6 C11        -0.6468    0.9214   -2.2769 C.2        1 <1>        0.000
      7 O6         -0.8230    1.9748   -2.8369 O.2        1 <1>        0.000
      8 H           0.5170   -2.0542   -0.5195 H.spc      1 <1>        0.000
      9 H           1.2244   -0.7663    0.4613 H.spc      1 <1>        0.000
     10 H          -0.4382    1.7459   -0.4055 H.spc      1 <1>        0.000
     11 H          -0.4870    0.0107   -2.8541 H.spc      1 <1>        0.000
@<TRIPOS>BOND
     1    1    2 1  
     2    2    3 1  
     3    2    4 2  
     4    2    5 2  
     5    3    6 am 
     6    6    7 2  
     7    1    8 1  
     8    1    9 1  
     9    3   10 1  
    10    6   11 1  
# Name:          frag3-284-3/96164
# Creation time: Sat Jun  5 12:53:28 2010


@<TRIPOS>MOLECULE
frag3-284-3/96164
   11    10     1     1     1
SMALL
USER_CHARGES


@<TRIPOS>ATOM
      1 N6          0.4287   -1.1457   -0.0488 N.am       1 <1>        0.000
      2 S1         -1.0148   -0.5184   -0.1815 S.o2       1 <1>        0.000
      3 N7         -0.9344    0.2302   -1.5514 N.am       1 <1>        0.000
      4 O4         -1.9179   -1.6348   -0.3141 O.2        1 <1>        0.000
      5 O5         -1.1178    0.4774    0.8413 O.2        1 <1>        0.000
      6 C11        -0.3684    1.4638   -1.7271 C.2        1 <1>        0.000
      7 O6         -0.7629    2.1582   -2.6378 O.2        1 <1>        0.000
      8 H           0.5485   -2.1584   -0.0693 H.spc      1 <1>        0.000
      9 H           1.2410   -0.5381    0.0574 H.spc      1 <1>        0.000
     10 H          -1.3306   -0.2320   -2.3698 H.spc      1 <1>        0.000
     11 H           0.4207    1.8140   -1.0616 H.spc      1 <1>        0.000
@<TRIPOS>BOND
     1    1    2 1  
     2    2    3 1  
     3    2    4 2  
     4    2    5 2  
     5    3    6 am 
     6    6    7 2  
     7    1    8 1  
     8    1    9 1  
     9    3   10 1  
    10    6   11 1  
# Name:          frag3-284-3/96164
# Creation time: Sat Jun  5 12:53:28 2010


@<TRIPOS>MOLECULE
frag3-284-3/96164
   11    10     1     1     1
SMALL
USER_CHARGES


@<TRIPOS>ATOM
      1 N6          0.4770   -0.7576   -0.5179 N.am       1 <1>        0.000
      2 S1         -1.0058   -0.3476   -0.1175 S.o2       1 <1>        0.000
      3 N7         -1.1081    1.1286   -0.6957 N.am       1 <1>        0.000
      4 O4         -1.9341   -1.1336   -0.8645 O.2        1 <1>        0.000
      5 O5         -1.0348   -0.2239    1.3286 O.2        1 <1>        0.000
      6 C11        -0.8420    1.5542   -1.9800 C.2        1 <1>        0.000
      7 O6         -0.2398    0.8105   -2.7724 O.2        1 <1>        0.000
      8 H           0.6343   -1.4853   -1.2151 H.spc      1 <1>        0.000
      9 H           1.2711   -0.2929   -0.0776 H.spc      1 <1>        0.000
     10 H          -1.4066    1.8484   -0.0375 H.spc      1 <1>        0.000
     11 H          -1.1609    2.5459   -2.3009 H.spc      1 <1>        0.000
@<TRIPOS>BOND
     1    1    2 1  
     2    2    3 1  
     3    2    4 2  
     4    2    5 2  
     5    3    6 am 
     6    6    7 2  
     7    1    8 1  
     8    1    9 1  
     9    3   10 1  
    10    6   11 1  
# Name:          frag3-284-3/96164
# Creation time: Sat Jun  5 12:53:28 2010


@<TRIPOS>MOLECULE
frag3-284-3/96164
   11    10     1     1     1
SMALL
USER_CHARGES


@<TRIPOS>ATOM
      1 N6          0.4917   -0.8189   -0.4196 N.am       1 <1>        0.000
      2 S1         -1.0378   -0.4343   -0.2137 S.o2       1 <1>        0.000
      3 N7         -1.4130    0.1527   -1.6454 N.am       1 <1>        0.000
      4 O4         -1.7512   -1.6924   -0.0844 O.2        1 <1>        0.000
      5 O5         -1.1238    0.6526    0.7032 O.2        1 <1>        0.000
      6 C11        -0.8137    1.2123   -2.2882 C.2        1 <1>        0.000
      7 O6         -0.0398    1.9587   -1.6713 O.2        1 <1>        0.000
      8 H           0.7733   -1.7991   -0.4365 H.spc      1 <1>        0.000
      9 H           1.1910   -0.0853   -0.5348 H.spc      1 <1>        0.000
     10 H          -2.1792   -0.3052   -2.1390 H.spc      1 <1>        0.000
     11 H          -1.0203    1.3955   -3.3427 H.spc      1 <1>        0.000
@<TRIPOS>BOND
     1    1    2 1  
     2    2    3 1  
     3    2    4 2  
     4    2    5 2  
     5    3    6 am 
     6    6    7 2  
     7    1    8 1  
     8    1    9 1  
     9    3   10 1  
    10    6   11 1  
# Name:          frag3-284-3/96164 -- energy: -0.747629
# Creation time: Sat Jun  5 12:53:28 2010


@<TRIPOS>MOLECULE
frag3-284-3/96164 -- energy: -0.747629
   11    10     1     1     1
SMALL
USER_CHARGES


@<TRIPOS>ATOM
      1 N6          0.4254   -1.1617   -0.0343 N.am       1 <1>        0.000
      2 S1         -0.9535   -0.3920   -0.0504 S.o2       1 <1>        0.000
      3 N7         -0.6497    0.8816   -0.9042 N.am       1 <1>        0.000
      4 O4         -1.8256   -1.2187   -0.8196 O.2        1 <1>        0.000
      5 O5         -1.2144    0.0253    1.3029 O.2        1 <1>        0.000
      6 C11        -0.6468    0.9214   -2.2769 C.2        1 <1>        0.000
      7 O6         -0.8230    1.9748   -2.8369 O.2        1 <1>        0.000
      8 H           0.5170   -2.0542   -0.5195 H.spc      1 <1>        0.000
      9 H           1.2244   -0.7663    0.4613 H.spc      1 <1>        0.000
     10 H          -0.4382    1.7459   -0.4055 H.spc      1 <1>        0.000
     11 H          -0.4870    0.0107   -2.8541 H.spc      1 <1>        0.000
@<TRIPOS>BOND
     1    1    2 1  
     2    2    3 1  
     3    2    4 2  
     4    2    5 2  
     5    3    6 am 
     6    6    7 2  
     7    1    8 1  
     8    1    9 1  
     9    3   10 1  
    10    6   11 1  
# Name:          frag3-284-3/96164 -- energy: -0.794218
# Creation time: Sat Jun  5 12:53:28 2010


@<TRIPOS>MOLECULE
frag3-284-3/96164 -- energy: -0.794218
   11    10     1     1     1
SMALL
USER_CHARGES


@<TRIPOS>ATOM
      1 N6          0.4287   -1.1457   -0.0488 N.am       1 <1>        0.000
      2 S1         -1.0148   -0.5184   -0.1815 S.o2       1 <1>        0.000
      3 N7         -0.9344    0.2302   -1.5514 N.am       1 <1>        0.000
      4 O4         -1.9179   -1.6348   -0.3141 O.2        1 <1>        0.000
      5 O5         -1.1178    0.4774    0.8413 O.2        1 <1>        0.000
      6 C11        -0.3684    1.4638   -1.7271 C.2        1 <1>        0.000
      7 O6         -0.7629    2.1582   -2.6378 O.2        1 <1>        0.000
      8 H           0.5485   -2.1584   -0.0693 H.spc      1 <1>        0.000
      9 H           1.2410   -0.5381    0.0574 H.spc      1 <1>        0.000
     10 H          -1.3306   -0.2320   -2.3698 H.spc      1 <1>        0.000
     11 H           0.4207    1.8140   -1.0616 H.spc      1 <1>        0.000
@<TRIPOS>BOND
     1    1    2 1  
     2    2    3 1  
     3    2    4 2  
     4    2    5 2  
     5    3    6 am 
     6    6    7 2  
     7    1    8 1  
     8    1    9 1  
     9    3   10 1  
    10    6   11 1  
# Name:          frag3-284-3/96164 -- energy: -0.908077
# Creation time: Sat Jun  5 12:53:28 2010


@<TRIPOS>MOLECULE
frag3-284-3/96164 -- energy: -0.908077
   11    10     1     1     1
SMALL
USER_CHARGES


@<TRIPOS>ATOM
      1 N6          0.4770   -0.7576   -0.5179 N.am       1 <1>        0.000
      2 S1         -1.0058   -0.3476   -0.1175 S.o2       1 <1>        0.000
      3 N7         -1.1081    1.1286   -0.6957 N.am       1 <1>        0.000
      4 O4         -1.9341   -1.1336   -0.8645 O.2        1 <1>        0.000
      5 O5         -1.0348   -0.2239    1.3286 O.2        1 <1>        0.000
      6 C11        -0.8420    1.5542   -1.9800 C.2        1 <1>        0.000
      7 O6         -0.2398    0.8105   -2.7724 O.2        1 <1>        0.000
      8 H           0.6343   -1.4853   -1.2151 H.spc      1 <1>        0.000
      9 H           1.2711   -0.2929   -0.0776 H.spc      1 <1>        0.000
     10 H          -1.4066    1.8484   -0.0375 H.spc      1 <1>        0.000
     11 H          -1.1609    2.5459   -2.3009 H.spc      1 <1>        0.000
@<TRIPOS>BOND
     1    1    2 1  
     2    2    3 1  
     3    2    4 2  
     4    2    5 2  
     5    3    6 am 
     6    6    7 2  
     7    1    8 1  
     8    1    9 1  
     9    3   10 1  
    10    6   11 1  
# Name:          frag3-284-3/96164 -- energy: -0.919943
# Creation time: Sat Jun  5 12:53:28 2010


@<TRIPOS>MOLECULE
frag3-284-3/96164 -- energy: -0.919943
   11    10     1     1     1
SMALL
USER_CHARGES


@<TRIPOS>ATOM
      1 N6          0.4917   -0.8189   -0.4196 N.am       1 <1>        0.000
      2 S1         -1.0378   -0.4343   -0.2137 S.o2       1 <1>        0.000
      3 N7         -1.4130    0.1527   -1.6454 N.am       1 <1>        0.000
      4 O4         -1.7512   -1.6924   -0.0844 O.2        1 <1>        0.000
      5 O5         -1.1238    0.6526    0.7032 O.2        1 <1>        0.000
      6 C11        -0.8137    1.2123   -2.2882 C.2        1 <1>        0.000
      7 O6         -0.0398    1.9587   -1.6713 O.2        1 <1>        0.000
      8 H           0.7733   -1.7991   -0.4365 H.spc      1 <1>        0.000
      9 H           1.1910   -0.0853   -0.5348 H.spc      1 <1>        0.000
     10 H          -2.1792   -0.3052   -2.1390 H.spc      1 <1>        0.000
     11 H          -1.0203    1.3955   -3.3427 H.spc      1 <1>        0.000
@<TRIPOS>BOND
     1    1    2 1  
     2    2    3 1  
     3    2    4 2  
     4    2    5 2  
     5    3    6 am 
     6    6    7 2  
     7    1    8 1  
     8    1    9 1  
     9    3   10 1  
    10    6   11 1  
