#      Rotatable Fragment
#      Build by yxyuan
#
# Name:          frag5-617-92/138278
# Creation time: Sat Jun  5 12:53:48 2010


@<TRIPOS>MOLECULE
frag5-617-92/138278
   17    18     1     1     1
SMALL
USER_CHARGES


@<TRIPOS>ATOM
      1 C1         -2.4199    0.1495   -0.0649 C.ar       1 <1>        0.000
      2 C2         -2.4351   -1.2498    0.0413 C.ar       1 <1>        0.000
      3 C3         -0.9739    0.5795   -0.0712 C.3        1 <1>        0.000
      4 C4         -3.6247    0.8469   -0.1397 C.ar       1 <1>        0.000
      5 N1         -1.1382   -1.7537    0.1041 N.am       1 <1>        0.000
      6 C5         -3.6082   -1.9825    0.0747 C.ar       1 <1>        0.000
      7 C6         -0.2244   -0.7473    0.0441 C.2        1 <1>        0.000
      8 C8         -4.8188    0.1250   -0.1049 C.ar       1 <1>        0.000
      9 C10        -4.8117   -1.2764    0.0010 C.ar       1 <1>        0.000
     10 O1          0.9823   -0.8577    0.0747 O.2        1 <1>        0.000
     11 H          -0.7344    1.2730    0.7349 H.spc      1 <1>        0.000
     12 H          -0.7032    1.1430   -0.9641 H.spc      1 <1>        0.000
     13 H          -3.6340    1.9336   -0.2236 H.spc      1 <1>        0.000
     14 H          -0.9049   -2.7434    0.1842 H.spc      1 <1>        0.000
     15 H          -3.5941   -3.0694    0.1554 H.spc      1 <1>        0.000
     16 H          -5.7695    0.6552   -0.1606 H.spc      1 <1>        0.000
     17 H          -5.7566   -1.8191    0.0259 H.spc      1 <1>        0.000
@<TRIPOS>BOND
     1    5    7 am 
     2    7   10 2  
     3    8    9 ar 
     4    6    9 ar 
     5    1    3 1  
     6    1    2 ar 
     7    1    4 ar 
     8    2    5 1  
     9    2    6 ar 
    10    3    7 1  
    11    4    8 ar 
    12    3   11 1  
    13    3   12 1  
    14    4   13 1  
    15    5   14 1  
    16    6   15 1  
    17    8   16 1  
    18    9   17 1  
# Name:          frag5-617-92/138278 -- energy: -0.831974
# Creation time: Sat Jun  5 12:53:48 2010


@<TRIPOS>MOLECULE
frag5-617-92/138278 -- energy: -0.831974
   17    18     1     1     1
SMALL
USER_CHARGES


@<TRIPOS>ATOM
      1 C1         -2.4199    0.1495   -0.0649 C.ar       1 <1>        0.000
      2 C2         -2.4351   -1.2498    0.0413 C.ar       1 <1>        0.000
      3 C3         -0.9739    0.5795   -0.0712 C.3        1 <1>        0.000
      4 C4         -3.6247    0.8469   -0.1397 C.ar       1 <1>        0.000
      5 N1         -1.1382   -1.7537    0.1041 N.am       1 <1>        0.000
      6 C5         -3.6082   -1.9825    0.0747 C.ar       1 <1>        0.000
      7 C6         -0.2244   -0.7473    0.0441 C.2        1 <1>        0.000
      8 C8         -4.8188    0.1250   -0.1049 C.ar       1 <1>        0.000
      9 C10        -4.8117   -1.2764    0.0010 C.ar       1 <1>        0.000
     10 O1          0.9823   -0.8577    0.0747 O.2        1 <1>        0.000
     11 H          -0.7344    1.2730    0.7349 H.spc      1 <1>        0.000
     12 H          -0.7032    1.1430   -0.9641 H.spc      1 <1>        0.000
     13 H          -3.6340    1.9336   -0.2236 H.spc      1 <1>        0.000
     14 H          -0.9049   -2.7434    0.1842 H.spc      1 <1>        0.000
     15 H          -3.5941   -3.0694    0.1554 H.spc      1 <1>        0.000
     16 H          -5.7695    0.6552   -0.1606 H.spc      1 <1>        0.000
     17 H          -5.7566   -1.8191    0.0259 H.spc      1 <1>        0.000
@<TRIPOS>BOND
     1    5    7 am 
     2    7   10 2  
     3    8    9 ar 
     4    6    9 ar 
     5    1    3 1  
     6    1    2 ar 
     7    1    4 ar 
     8    2    5 1  
     9    2    6 ar 
    10    3    7 1  
    11    4    8 ar 
    12    3   11 1  
    13    3   12 1  
    14    4   13 1  
    15    5   14 1  
    16    6   15 1  
    17    8   16 1  
    18    9   17 1  
