#      Rotatable Fragment
#      Build by yxyuan
#
# Name:          frag4-388-249/150395
# Creation time: Sat Jun  5 12:53:33 2010


@<TRIPOS>MOLECULE
frag4-388-249/150395
   16    16     1     1     1
SMALL
USER_CHARGES


@<TRIPOS>ATOM
      1 N1         -0.6338    0.5840   -0.4155 N.3        1 <1>        0.000
      2 C15         0.1235    1.1696    0.6384 C.3        1 <1>        0.000
      3 C16        -0.5719   -0.8143   -0.6679 C.3        1 <1>        0.000
      4 C17         0.8279    0.1063    1.4837 C.3        1 <1>        0.000
      5 C18         0.8791   -1.2764   -0.4414 C.3        1 <1>        0.000
      6 N2          1.6343   -0.6568    0.5990 N.3        1 <1>        0.000
      7 H          -0.2508    1.0064   -1.2612 H.spc      1 <1>        0.000
      8 H          -0.5565    1.7270    1.2826 H.spc      1 <1>        0.000
      9 H           0.8815    1.8180    0.1988 H.spc      1 <1>        0.000
     10 H          -0.8782   -1.0254   -1.6925 H.spc      1 <1>        0.000
     11 H          -1.2455   -1.3477    0.0029 H.spc      1 <1>        0.000
     12 H           0.1011   -0.5292    1.9896 H.spc      1 <1>        0.000
     13 H           1.4373    0.5703    2.2592 H.spc      1 <1>        0.000
     14 H           0.8034   -2.3251   -0.1539 H.spc      1 <1>        0.000
     15 H           1.4052   -1.0281   -1.3632 H.spc      1 <1>        0.000
     16 H           2.3056   -0.0242    0.1637 H.spc      1 <1>        0.000
@<TRIPOS>BOND
     1    5    6 1  
     2    1    2 1  
     3    1    3 1  
     4    2    4 1  
     5    3    5 1  
     6    4    6 1  
     7    1    7 1  
     8    2    8 1  
     9    2    9 1  
    10    3   10 1  
    11    3   11 1  
    12    4   12 1  
    13    4   13 1  
    14    5   14 1  
    15    5   15 1  
    16    6   16 1  
# Name:          frag4-388-249/150395 -- energy: -0.684080
# Creation time: Sat Jun  5 12:53:33 2010


@<TRIPOS>MOLECULE
frag4-388-249/150395 -- energy: -0.684080
   16    16     1     1     1
SMALL
USER_CHARGES


@<TRIPOS>ATOM
      1 N1         -0.6338    0.5840   -0.4155 N.3        1 <1>        0.000
      2 C15         0.1235    1.1696    0.6384 C.3        1 <1>        0.000
      3 C16        -0.5719   -0.8143   -0.6679 C.3        1 <1>        0.000
      4 C17         0.8279    0.1063    1.4837 C.3        1 <1>        0.000
      5 C18         0.8791   -1.2764   -0.4414 C.3        1 <1>        0.000
      6 N2          1.6343   -0.6568    0.5990 N.3        1 <1>        0.000
      7 H          -0.2508    1.0064   -1.2612 H.spc      1 <1>        0.000
      8 H          -0.5565    1.7270    1.2826 H.spc      1 <1>        0.000
      9 H           0.8815    1.8180    0.1988 H.spc      1 <1>        0.000
     10 H          -0.8782   -1.0254   -1.6925 H.spc      1 <1>        0.000
     11 H          -1.2455   -1.3477    0.0029 H.spc      1 <1>        0.000
     12 H           0.1011   -0.5292    1.9896 H.spc      1 <1>        0.000
     13 H           1.4373    0.5703    2.2592 H.spc      1 <1>        0.000
     14 H           0.8034   -2.3251   -0.1539 H.spc      1 <1>        0.000
     15 H           1.4052   -1.0281   -1.3632 H.spc      1 <1>        0.000
     16 H           2.3056   -0.0242    0.1637 H.spc      1 <1>        0.000
@<TRIPOS>BOND
     1    5    6 1  
     2    1    2 1  
     3    1    3 1  
     4    2    4 1  
     5    3    5 1  
     6    4    6 1  
     7    1    7 1  
     8    2    8 1  
     9    2    9 1  
    10    3   10 1  
    11    3   11 1  
    12    4   12 1  
    13    4   13 1  
    14    5   14 1  
    15    5   15 1  
    16    6   16 1  
