#      Rotatable Fragment
#      Build by yxyuan
#
# Name:          frag4-334-172/48856
# Creation time: Sat Jun  5 12:52:52 2010


@<TRIPOS>MOLECULE
frag4-334-172/48856
   21    22     1     1     1
SMALL
USER_CHARGES


@<TRIPOS>ATOM
      1 C7          2.0545    1.3992   -0.8985 C.2        1 <1>        0.000
      2 N1          3.1153    2.0123   -1.2290 N.2        1 <1>        0.000
      3 C8          3.1868    3.3843   -0.9293 C.3        1 <1>        0.000
      4 C9          3.3112    3.5842    0.5669 C.3        1 <1>        0.000
      5 N2          2.2611    3.3561    1.3620 N.pl3      1 <1>        0.000
      6 C10         1.0606    2.9686    0.9027 C.ar       1 <1>        0.000
      7 C11         0.8699    2.0445   -0.1687 C.ar       1 <1>        0.000
      8 C12        -0.3976    1.6685   -0.5686 C.ar       1 <1>        0.000
      9 C13        -1.5263    2.2005    0.0512 C.ar       1 <1>        0.000
     10 C14        -1.3819    3.1217    1.0821 C.ar       1 <1>        0.000
     11 C15        -0.1135    3.4927    1.4787 C.ar       1 <1>        0.000
     12 H           1.9801    0.3414   -1.1506 H.spc      1 <1>        0.000
     13 H           2.2797    3.8753   -1.2817 H.spc      1 <1>        0.000
     14 H           4.0598    3.8130   -1.4214 H.spc      1 <1>        0.000
     15 H           4.0535    2.8496    0.8789 H.spc      1 <1>        0.000
     16 H           3.5146    4.6487    0.6833 H.spc      1 <1>        0.000
     17 H           2.3777    3.4827    2.3674 H.spc      1 <1>        0.000
     18 H          -0.5161    0.9478   -1.3778 H.spc      1 <1>        0.000
     19 H          -2.5214    1.8947   -0.2719 H.spc      1 <1>        0.000
     20 H          -2.2592    3.5454    1.5708 H.spc      1 <1>        0.000
     21 H          -0.0149    4.2279    2.2774 H.spc      1 <1>        0.000
@<TRIPOS>BOND
     1    8    9 ar 
     2    4    5 1  
     3    5    6 1  
     4    7    8 ar 
     5    6   11 ar 
     6    6    7 ar 
     7    9   10 ar 
     8   10   11 ar 
     9    1    2 2  
    10    1    7 1  
    11    2    3 1  
    12    3    4 1  
    13    1   12 1  
    14    3   13 1  
    15    3   14 1  
    16    4   15 1  
    17    4   16 1  
    18    5   17 1  
    19    8   18 1  
    20    9   19 1  
    21   10   20 1  
    22   11   21 1  
# Name:          frag4-334-172/48856 -- energy: -1.093895
# Creation time: Sat Jun  5 12:52:52 2010


@<TRIPOS>MOLECULE
frag4-334-172/48856 -- energy: -1.093895
   21    22     1     1     1
SMALL
USER_CHARGES


@<TRIPOS>ATOM
      1 C7          2.0545    1.3992   -0.8985 C.2        1 <1>        0.000
      2 N1          3.1153    2.0123   -1.2290 N.2        1 <1>        0.000
      3 C8          3.1868    3.3843   -0.9293 C.3        1 <1>        0.000
      4 C9          3.3112    3.5842    0.5669 C.3        1 <1>        0.000
      5 N2          2.2611    3.3561    1.3620 N.pl3      1 <1>        0.000
      6 C10         1.0606    2.9686    0.9027 C.ar       1 <1>        0.000
      7 C11         0.8699    2.0445   -0.1687 C.ar       1 <1>        0.000
      8 C12        -0.3976    1.6685   -0.5686 C.ar       1 <1>        0.000
      9 C13        -1.5263    2.2005    0.0512 C.ar       1 <1>        0.000
     10 C14        -1.3819    3.1217    1.0821 C.ar       1 <1>        0.000
     11 C15        -0.1135    3.4927    1.4787 C.ar       1 <1>        0.000
     12 H           1.9801    0.3414   -1.1506 H.spc      1 <1>        0.000
     13 H           2.2797    3.8753   -1.2817 H.spc      1 <1>        0.000
     14 H           4.0598    3.8130   -1.4214 H.spc      1 <1>        0.000
     15 H           4.0535    2.8496    0.8789 H.spc      1 <1>        0.000
     16 H           3.5146    4.6487    0.6833 H.spc      1 <1>        0.000
     17 H           2.3777    3.4827    2.3674 H.spc      1 <1>        0.000
     18 H          -0.5161    0.9478   -1.3778 H.spc      1 <1>        0.000
     19 H          -2.5214    1.8947   -0.2719 H.spc      1 <1>        0.000
     20 H          -2.2592    3.5454    1.5708 H.spc      1 <1>        0.000
     21 H          -0.0149    4.2279    2.2774 H.spc      1 <1>        0.000
@<TRIPOS>BOND
     1    8    9 ar 
     2    4    5 1  
     3    5    6 1  
     4    7    8 ar 
     5    6   11 ar 
     6    6    7 ar 
     7    9   10 ar 
     8   10   11 ar 
     9    1    2 2  
    10    1    7 1  
    11    2    3 1  
    12    3    4 1  
    13    1   12 1  
    14    3   13 1  
    15    3   14 1  
    16    4   15 1  
    17    4   16 1  
    18    5   17 1  
    19    8   18 1  
    20    9   19 1  
    21   10   20 1  
    22   11   21 1  
