#      Rotatable Fragment
#      Build by yxyuan
#
# Name:          frag5-496-897/41815
# Creation time: Sat Jun  5 12:52:50 2010


@<TRIPOS>MOLECULE
frag5-496-897/41815
   14    14     1     1     1
SMALL
USER_CHARGES


@<TRIPOS>ATOM
      1 C17         1.8264   -0.1242    0.0744 C.ar       1 <1>        0.000
      2 C18         1.1166    1.0769    0.0863 C.ar       1 <1>        0.000
      3 C19        -0.2807    1.0890    0.0058 C.ar       1 <1>        0.000
      4 C20        -0.9801   -0.1307   -0.0876 C.ar       1 <1>        0.000
      5 C21        -0.2563   -1.3383   -0.1024 C.ar       1 <1>        0.000
      6 C22         1.1411   -1.3345   -0.0185 C.ar       1 <1>        0.000
      7 O3         -2.3620   -0.1334   -0.1632 O.3        1 <1>        0.000
      8 O4         -0.9626    2.2896    0.0186 O.3        1 <1>        0.000
      9 H           2.9145   -0.1162    0.1376 H.spc      1 <1>        0.000
     10 H           1.6583    2.0199    0.1594 H.spc      1 <1>        0.000
     11 H          -0.7895   -2.2858   -0.1800 H.spc      1 <1>        0.000
     12 H           1.6917   -2.2752   -0.0258 H.spc      1 <1>        0.000
     13 H          -2.6764   -1.0386   -0.2213 H.spc      1 <1>        0.000
     14 H          -1.9057    2.1213   -0.0434 H.spc      1 <1>        0.000
@<TRIPOS>BOND
     1    1    2 ar 
     2    1    6 ar 
     3    2    3 ar 
     4    3    8 1  
     5    3    4 ar 
     6    4    5 ar 
     7    4    7 1  
     8    5    6 ar 
     9    1    9 1  
    10    2   10 1  
    11    5   11 1  
    12    6   12 1  
    13    7   13 1  
    14    8   14 1  
# Name:          frag5-496-897/41815 -- energy: 0.006661
# Creation time: Sat Jun  5 12:52:50 2010


@<TRIPOS>MOLECULE
frag5-496-897/41815 -- energy: 0.006661
   14    14     1     1     1
SMALL
USER_CHARGES


@<TRIPOS>ATOM
      1 C17         1.8264   -0.1242    0.0744 C.ar       1 <1>        0.000
      2 C18         1.1166    1.0769    0.0863 C.ar       1 <1>        0.000
      3 C19        -0.2807    1.0890    0.0058 C.ar       1 <1>        0.000
      4 C20        -0.9801   -0.1307   -0.0876 C.ar       1 <1>        0.000
      5 C21        -0.2563   -1.3383   -0.1024 C.ar       1 <1>        0.000
      6 C22         1.1411   -1.3345   -0.0185 C.ar       1 <1>        0.000
      7 O3         -2.3620   -0.1334   -0.1632 O.3        1 <1>        0.000
      8 O4         -0.9626    2.2896    0.0186 O.3        1 <1>        0.000
      9 H           2.9145   -0.1162    0.1376 H.spc      1 <1>        0.000
     10 H           1.6583    2.0199    0.1594 H.spc      1 <1>        0.000
     11 H          -0.7895   -2.2858   -0.1800 H.spc      1 <1>        0.000
     12 H           1.6917   -2.2752   -0.0258 H.spc      1 <1>        0.000
     13 H          -2.6764   -1.0386   -0.2213 H.spc      1 <1>        0.000
     14 H          -1.9057    2.1213   -0.0434 H.spc      1 <1>        0.000
@<TRIPOS>BOND
     1    1    2 ar 
     2    1    6 ar 
     3    2    3 ar 
     4    3    8 1  
     5    3    4 ar 
     6    4    5 ar 
     7    4    7 1  
     8    5    6 ar 
     9    1    9 1  
    10    2   10 1  
    11    5   11 1  
    12    6   12 1  
    13    7   13 1  
    14    8   14 1  
