#      Rotatable Fragment
#      Build by yxyuan
#
# Name:          frag4-416-155/150395
# Creation time: Sat Jun  5 12:53:35 2010


@<TRIPOS>MOLECULE
frag4-416-155/150395
   22    23     1     1     1
SMALL
USER_CHARGES


@<TRIPOS>ATOM
      1 C19        -0.1331    0.1288    0.2616 C.3        1 <1>        0.000
      2 O9          0.5899    1.3331    0.2034 O.3        1 <1>        0.000
      3 C22        -1.5467    0.3361    0.8289 C.3        1 <1>        0.000
      4 C24        -0.0071    2.3834   -0.5285 C.3        1 <1>        0.000
      5 C25        -2.2842    1.4172    0.0482 C.3        1 <1>        0.000
      6 C27        -1.4597    2.6867   -0.0317 C.3        1 <1>        0.000
      7 C28         0.7934    3.6963   -0.4494 C.3        1 <1>        0.000
      8 O12        -2.0541    3.7058   -0.7911 O.3        1 <1>        0.000
      9 O13         0.0200    4.7687    0.0140 O.3        1 <1>        0.000
     10 C33        -1.3224    4.8729   -0.4358 C.3        1 <1>        0.000
     11 H          -0.2253   -0.2639   -0.7510 H.spc      1 <1>        0.000
     12 H           0.4009   -0.5592    0.9171 H.spc      1 <1>        0.000
     13 H          -1.4674    0.6449    1.8712 H.spc      1 <1>        0.000
     14 H          -2.1009   -0.5990    0.7472 H.spc      1 <1>        0.000
     15 H          -0.0237    2.0312   -1.5599 H.spc      1 <1>        0.000
     16 H          -2.4677    1.0549   -0.9633 H.spc      1 <1>        0.000
     17 H          -3.2211    1.6400    0.5587 H.spc      1 <1>        0.000
     18 H          -1.4100    3.0720    0.9867 H.spc      1 <1>        0.000
     19 H           1.1395    3.9404   -1.4538 H.spc      1 <1>        0.000
     20 H           1.6157    3.5474    0.2504 H.spc      1 <1>        0.000
     21 H          -1.8624    5.2798    0.4191 H.spc      1 <1>        0.000
     22 H          -1.2525    5.4402   -1.3639 H.spc      1 <1>        0.000
@<TRIPOS>BOND
     1    4    7 1  
     2    7    9 1  
     3    2    4 1  
     4    8   10 1  
     5    1    3 1  
     6    4    6 1  
     7    5    6 1  
     8    9   10 1  
     9    3    5 1  
    10    1    2 1  
    11    6    8 1  
    12    1   11 1  
    13    1   12 1  
    14    3   13 1  
    15    3   14 1  
    16    4   15 1  
    17    5   16 1  
    18    5   17 1  
    19    6   18 1  
    20    7   19 1  
    21    7   20 1  
    22   10   21 1  
    23   10   22 1  
# Name:          frag4-416-155/150395 -- energy: -1.542922
# Creation time: Sat Jun  5 12:53:35 2010


@<TRIPOS>MOLECULE
frag4-416-155/150395 -- energy: -1.542922
   22    23     1     1     1
SMALL
USER_CHARGES


@<TRIPOS>ATOM
      1 C19        -0.1331    0.1288    0.2616 C.3        1 <1>        0.000
      2 O9          0.5899    1.3331    0.2034 O.3        1 <1>        0.000
      3 C22        -1.5467    0.3361    0.8289 C.3        1 <1>        0.000
      4 C24        -0.0071    2.3834   -0.5285 C.3        1 <1>        0.000
      5 C25        -2.2842    1.4172    0.0482 C.3        1 <1>        0.000
      6 C27        -1.4597    2.6867   -0.0317 C.3        1 <1>        0.000
      7 C28         0.7934    3.6963   -0.4494 C.3        1 <1>        0.000
      8 O12        -2.0541    3.7058   -0.7911 O.3        1 <1>        0.000
      9 O13         0.0200    4.7687    0.0140 O.3        1 <1>        0.000
     10 C33        -1.3224    4.8729   -0.4358 C.3        1 <1>        0.000
     11 H          -0.2253   -0.2639   -0.7510 H.spc      1 <1>        0.000
     12 H           0.4009   -0.5592    0.9171 H.spc      1 <1>        0.000
     13 H          -1.4674    0.6449    1.8712 H.spc      1 <1>        0.000
     14 H          -2.1009   -0.5990    0.7472 H.spc      1 <1>        0.000
     15 H          -0.0237    2.0312   -1.5599 H.spc      1 <1>        0.000
     16 H          -2.4677    1.0549   -0.9633 H.spc      1 <1>        0.000
     17 H          -3.2211    1.6400    0.5587 H.spc      1 <1>        0.000
     18 H          -1.4100    3.0720    0.9867 H.spc      1 <1>        0.000
     19 H           1.1395    3.9404   -1.4538 H.spc      1 <1>        0.000
     20 H           1.6157    3.5474    0.2504 H.spc      1 <1>        0.000
     21 H          -1.8624    5.2798    0.4191 H.spc      1 <1>        0.000
     22 H          -1.2525    5.4402   -1.3639 H.spc      1 <1>        0.000
@<TRIPOS>BOND
     1    4    7 1  
     2    7    9 1  
     3    2    4 1  
     4    8   10 1  
     5    1    3 1  
     6    4    6 1  
     7    5    6 1  
     8    9   10 1  
     9    3    5 1  
    10    1    2 1  
    11    6    8 1  
    12    1   11 1  
    13    1   12 1  
    14    3   13 1  
    15    3   14 1  
    16    4   15 1  
    17    5   16 1  
    18    5   17 1  
    19    6   18 1  
    20    7   19 1  
    21    7   20 1  
    22   10   21 1  
    23   10   22 1  
