#      Rotatable Fragment
#      Build by yxyuan
#
# Name:          frag5-526-106/41815
# Creation time: Sat Jun  5 12:52:51 2010


@<TRIPOS>MOLECULE
frag5-526-106/41815
   18    18     1     1     1
SMALL
USER_CHARGES


@<TRIPOS>ATOM
      1 N3          1.5700    0.2278   -0.9979 N.pl3      1 <1>        0.000
      2 C13         0.3773   -0.3948   -0.8109 C.ar       1 <1>        0.000
      3 C14        -0.5344   -0.5165   -1.8653 C.ar       1 <1>        0.000
      4 C15        -1.7645   -1.1546   -1.6724 C.ar       1 <1>        0.000
      5 C16        -2.0886   -1.7174   -0.4324 C.ar       1 <1>        0.000
      6 C17        -1.1817   -1.5801    0.6245 C.ar       1 <1>        0.000
      7 C18         0.0397   -0.9237    0.4395 C.ar       1 <1>        0.000
      8 C19        -3.3892   -2.4617   -0.1972 C.2        1 <1>        0.000
      9 O1         -4.3558   -2.1402   -0.8708 O.2        1 <1>        0.000
     10 N4         -3.4895   -3.4423    0.7292 N.am       1 <1>        0.000
     11 H           1.8072    0.6113   -1.9128 H.spc      1 <1>        0.000
     12 H           2.2284    0.3118   -0.2234 H.spc      1 <1>        0.000
     13 H          -0.2841   -0.1107   -2.8455 H.spc      1 <1>        0.000
     14 H          -2.4769   -1.2140   -2.4952 H.spc      1 <1>        0.000
     15 H          -1.4300   -1.9896    1.6037 H.spc      1 <1>        0.000
     16 H           0.7327   -0.8237    1.2748 H.spc      1 <1>        0.000
     17 H          -4.3789   -3.9212    0.8707 H.spc      1 <1>        0.000
     18 H          -2.6757   -3.7028    1.2863 H.spc      1 <1>        0.000
@<TRIPOS>BOND
     1    5    6 ar 
     2    8   10 am 
     3    5    8 1  
     4    8    9 2  
     5    6    7 ar 
     6    1    2 1  
     7    2    3 ar 
     8    2    7 ar 
     9    3    4 ar 
    10    4    5 ar 
    11    1   11 1  
    12    1   12 1  
    13    3   13 1  
    14    4   14 1  
    15    6   15 1  
    16    7   16 1  
    17   10   17 1  
    18   10   18 1  
# Name:          frag5-526-106/41815
# Creation time: Sat Jun  5 12:52:51 2010


@<TRIPOS>MOLECULE
frag5-526-106/41815
   18    18     1     1     1
SMALL
USER_CHARGES


@<TRIPOS>ATOM
      1 N3          1.5276    0.3054   -0.9961 N.pl3      1 <1>        0.000
      2 C13         0.3654   -0.3739   -0.8109 C.ar       1 <1>        0.000
      3 C14         0.2292   -1.2720    0.2531 C.ar       1 <1>        0.000
      4 C15        -0.9662   -1.9744    0.4420 C.ar       1 <1>        0.000
      5 C16        -2.0595   -1.7617   -0.4059 C.ar       1 <1>        0.000
      6 C17        -1.9144   -0.8747   -1.4784 C.ar       1 <1>        0.000
      7 C18        -0.7130   -0.1872   -1.6822 C.ar       1 <1>        0.000
      8 C19        -3.3884   -2.4649   -0.2039 C.2        1 <1>        0.000
      9 O1         -3.9257   -2.9540   -1.1853 O.2        1 <1>        0.000
     10 N4         -3.9719   -2.5460    1.0140 N.am       1 <1>        0.000
     11 H           2.3094    0.1624   -0.3567 H.spc      1 <1>        0.000
     12 H           1.6182    0.9583   -1.7745 H.spc      1 <1>        0.000
     13 H           1.0610   -1.4258    0.9405 H.spc      1 <1>        0.000
     14 H          -1.0468   -2.6938    1.2569 H.spc      1 <1>        0.000
     15 H          -2.7475   -0.7174   -2.1634 H.spc      1 <1>        0.000
     16 H          -0.6168    0.4977   -2.5246 H.spc      1 <1>        0.000
     17 H          -4.8694   -3.0192    1.1190 H.spc      1 <1>        0.000
     18 H          -3.5144   -2.1339    1.8272 H.spc      1 <1>        0.000
@<TRIPOS>BOND
     1    5    6 ar 
     2    8   10 am 
     3    5    8 1  
     4    8    9 2  
     5    6    7 ar 
     6    1    2 1  
     7    2    3 ar 
     8    2    7 ar 
     9    3    4 ar 
    10    4    5 ar 
    11    1   11 1  
    12    1   12 1  
    13    3   13 1  
    14    4   14 1  
    15    6   15 1  
    16    7   16 1  
    17   10   17 1  
    18   10   18 1  
# Name:          frag5-526-106/41815 -- energy: -0.916603
# Creation time: Sat Jun  5 12:52:51 2010


@<TRIPOS>MOLECULE
frag5-526-106/41815 -- energy: -0.916603
   18    18     1     1     1
SMALL
USER_CHARGES


@<TRIPOS>ATOM
      1 N3          1.5700    0.2278   -0.9979 N.pl3      1 <1>        0.000
      2 C13         0.3773   -0.3948   -0.8109 C.ar       1 <1>        0.000
      3 C14        -0.5344   -0.5165   -1.8653 C.ar       1 <1>        0.000
      4 C15        -1.7645   -1.1546   -1.6724 C.ar       1 <1>        0.000
      5 C16        -2.0886   -1.7174   -0.4324 C.ar       1 <1>        0.000
      6 C17        -1.1817   -1.5801    0.6245 C.ar       1 <1>        0.000
      7 C18         0.0397   -0.9237    0.4395 C.ar       1 <1>        0.000
      8 C19        -3.3892   -2.4617   -0.1972 C.2        1 <1>        0.000
      9 O1         -4.3558   -2.1402   -0.8708 O.2        1 <1>        0.000
     10 N4         -3.4895   -3.4423    0.7292 N.am       1 <1>        0.000
     11 H           1.8072    0.6113   -1.9128 H.spc      1 <1>        0.000
     12 H           2.2284    0.3118   -0.2234 H.spc      1 <1>        0.000
     13 H          -0.2841   -0.1107   -2.8455 H.spc      1 <1>        0.000
     14 H          -2.4769   -1.2140   -2.4952 H.spc      1 <1>        0.000
     15 H          -1.4300   -1.9896    1.6037 H.spc      1 <1>        0.000
     16 H           0.7327   -0.8237    1.2748 H.spc      1 <1>        0.000
     17 H          -4.3789   -3.9212    0.8707 H.spc      1 <1>        0.000
     18 H          -2.6757   -3.7028    1.2863 H.spc      1 <1>        0.000
@<TRIPOS>BOND
     1    5    6 ar 
     2    8   10 am 
     3    5    8 1  
     4    8    9 2  
     5    6    7 ar 
     6    1    2 1  
     7    2    3 ar 
     8    2    7 ar 
     9    3    4 ar 
    10    4    5 ar 
    11    1   11 1  
    12    1   12 1  
    13    3   13 1  
    14    4   14 1  
    15    6   15 1  
    16    7   16 1  
    17   10   17 1  
    18   10   18 1  
# Name:          frag5-526-106/41815 -- energy: -1.008382
# Creation time: Sat Jun  5 12:52:51 2010


@<TRIPOS>MOLECULE
frag5-526-106/41815 -- energy: -1.008382
   18    18     1     1     1
SMALL
USER_CHARGES


@<TRIPOS>ATOM
      1 N3          1.5276    0.3054   -0.9961 N.pl3      1 <1>        0.000
      2 C13         0.3654   -0.3739   -0.8109 C.ar       1 <1>        0.000
      3 C14         0.2292   -1.2720    0.2531 C.ar       1 <1>        0.000
      4 C15        -0.9662   -1.9744    0.4420 C.ar       1 <1>        0.000
      5 C16        -2.0595   -1.7617   -0.4059 C.ar       1 <1>        0.000
      6 C17        -1.9144   -0.8747   -1.4784 C.ar       1 <1>        0.000
      7 C18        -0.7130   -0.1872   -1.6822 C.ar       1 <1>        0.000
      8 C19        -3.3884   -2.4649   -0.2039 C.2        1 <1>        0.000
      9 O1         -3.9257   -2.9540   -1.1853 O.2        1 <1>        0.000
     10 N4         -3.9719   -2.5460    1.0140 N.am       1 <1>        0.000
     11 H           2.3094    0.1624   -0.3567 H.spc      1 <1>        0.000
     12 H           1.6182    0.9583   -1.7745 H.spc      1 <1>        0.000
     13 H           1.0610   -1.4258    0.9405 H.spc      1 <1>        0.000
     14 H          -1.0468   -2.6938    1.2569 H.spc      1 <1>        0.000
     15 H          -2.7475   -0.7174   -2.1634 H.spc      1 <1>        0.000
     16 H          -0.6168    0.4977   -2.5246 H.spc      1 <1>        0.000
     17 H          -4.8694   -3.0192    1.1190 H.spc      1 <1>        0.000
     18 H          -3.5144   -2.1339    1.8272 H.spc      1 <1>        0.000
@<TRIPOS>BOND
     1    5    6 ar 
     2    8   10 am 
     3    5    8 1  
     4    8    9 2  
     5    6    7 ar 
     6    1    2 1  
     7    2    3 ar 
     8    2    7 ar 
     9    3    4 ar 
    10    4    5 ar 
    11    1   11 1  
    12    1   12 1  
    13    3   13 1  
    14    4   14 1  
    15    6   15 1  
    16    7   16 1  
    17   10   17 1  
    18   10   18 1  
