#      Rotatable Fragment
#      Build by yxyuan
#
# Name:          frag5-685-60/138278
# Creation time: Sat Jun  5 12:51:56 2010


@<TRIPOS>MOLECULE
frag5-685-60/138278
   20    20     1     1     1
SMALL
USER_CHARGES


@<TRIPOS>ATOM
      1 N1         -2.9059   -1.8267   -1.0507 N.am       1 <1>        0.000
      2 S1         -1.8867   -0.7394   -0.5531 S.o2       1 <1>        0.000
      3 N3         -2.8019    0.4983   -0.2234 N.am       1 <1>        0.000
      4 O2         -1.3648   -1.2413    0.6866 O.2        1 <1>        0.000
      5 O3         -1.0628   -0.4366   -1.6893 O.2        1 <1>        0.000
      6 C12        -3.4058    1.3251   -1.2432 C.3        1 <1>        0.000
      7 C13        -3.4192    0.6435    1.0739 C.3        1 <1>        0.000
      8 C16        -4.1819    2.5196   -0.7748 C.3        1 <1>        0.000
      9 C17        -4.8498    1.0901    1.0232 C.3        1 <1>        0.000
     10 O5         -5.0225    2.2719    0.3139 O.3        1 <1>        0.000
     11 H          -2.8698   -2.1560   -2.0154 H.spc      1 <1>        0.000
     12 H          -3.6037   -2.2032   -0.4090 H.spc      1 <1>        0.000
     13 H          -4.1226    0.6868   -1.7598 H.spc      1 <1>        0.000
     14 H          -2.5804    1.7188   -1.8363 H.spc      1 <1>        0.000
     15 H          -2.8609    1.4086    1.6134 H.spc      1 <1>        0.000
     16 H          -3.4035   -0.3366    1.5505 H.spc      1 <1>        0.000
     17 H          -3.4560    3.2670   -0.4546 H.spc      1 <1>        0.000
     18 H          -4.8164    2.8337   -1.6036 H.spc      1 <1>        0.000
     19 H          -5.1804    1.2650    2.0470 H.spc      1 <1>        0.000
     20 H          -5.4236    0.3125    0.5191 H.spc      1 <1>        0.000
@<TRIPOS>BOND
     1    3    6 1  
     2    3    7 1  
     3    8   10 1  
     4    7    9 1  
     5    2    5 2  
     6    6    8 1  
     7    1    2 1  
     8    2    3 1  
     9    2    4 2  
    10    9   10 1  
    11    1   11 1  
    12    1   12 1  
    13    6   13 1  
    14    6   14 1  
    15    7   15 1  
    16    7   16 1  
    17    8   17 1  
    18    8   18 1  
    19    9   19 1  
    20    9   20 1  
# Name:          frag5-685-60/138278
# Creation time: Sat Jun  5 12:51:56 2010


@<TRIPOS>MOLECULE
frag5-685-60/138278
   20    20     1     1     1
SMALL
USER_CHARGES


@<TRIPOS>ATOM
      1 N1         -2.5882   -1.4507   -1.8354 N.am       1 <1>        0.000
      2 S1         -2.0551   -0.7388   -0.5175 S.o2       1 <1>        0.000
      3 N3         -2.7540    0.6508   -0.4480 N.am       1 <1>        0.000
      4 O2         -2.5605   -1.5656    0.5364 O.2        1 <1>        0.000
      5 O3         -0.6480   -0.4858   -0.6670 O.2        1 <1>        0.000
      6 C12        -2.6629    1.3144    0.7980 C.3        1 <1>        0.000
      7 C13        -3.6266    1.2918   -1.3806 C.3        1 <1>        0.000
      8 C16        -4.0177    1.5452    1.3981 C.3        1 <1>        0.000
      9 C17        -5.0125    1.4845   -0.8082 C.3        1 <1>        0.000
     10 O5         -4.9757    2.0588    0.4871 O.3        1 <1>        0.000
     11 H          -1.9466   -1.6489   -2.6032 H.spc      1 <1>        0.000
     12 H          -3.5718   -1.7092   -1.9131 H.spc      1 <1>        0.000
     13 H          -2.1859    2.2817    0.6400 H.spc      1 <1>        0.000
     14 H          -2.0849    0.6907    1.4799 H.spc      1 <1>        0.000
     15 H          -3.7055    0.6614   -2.2663 H.spc      1 <1>        0.000
     16 H          -3.2141    2.2722   -1.6189 H.spc      1 <1>        0.000
     17 H          -4.3863    0.5790    1.7425 H.spc      1 <1>        0.000
     18 H          -3.8975    2.2845    2.1900 H.spc      1 <1>        0.000
     19 H          -5.4903    0.5076   -0.7349 H.spc      1 <1>        0.000
     20 H          -5.5622    2.1587   -1.4649 H.spc      1 <1>        0.000
@<TRIPOS>BOND
     1    3    6 1  
     2    3    7 1  
     3    8   10 1  
     4    7    9 1  
     5    2    5 2  
     6    6    8 1  
     7    1    2 1  
     8    2    3 1  
     9    2    4 2  
    10    9   10 1  
    11    1   11 1  
    12    1   12 1  
    13    6   13 1  
    14    6   14 1  
    15    7   15 1  
    16    7   16 1  
    17    8   17 1  
    18    8   18 1  
    19    9   19 1  
    20    9   20 1  
# Name:          frag5-685-60/138278
# Creation time: Sat Jun  5 12:51:56 2010


@<TRIPOS>MOLECULE
frag5-685-60/138278
   20    20     1     1     1
SMALL
USER_CHARGES


@<TRIPOS>ATOM
      1 N1         -3.2565   -1.1666   -1.4217 N.am       1 <1>        0.000
      2 S1         -2.0183   -0.6947   -0.5358 S.o2       1 <1>        0.000
      3 N3         -2.5414    0.7273   -0.1222 N.am       1 <1>        0.000
      4 O2         -1.9779   -1.5386    0.6196 O.2        1 <1>        0.000
      5 O3         -0.9006   -0.4645   -1.4195 O.2        1 <1>        0.000
      6 C12        -3.1038    1.6929   -1.0173 C.3        1 <1>        0.000
      7 C13        -2.9325    1.0428    1.2065 C.3        1 <1>        0.000
      8 C16        -4.6251    1.5378   -1.1501 C.3        1 <1>        0.000
      9 C17        -4.3666    1.4891    1.2815 C.3        1 <1>        0.000
     10 O5         -5.1786    1.4791    0.1219 O.3        1 <1>        0.000
     11 H          -3.1561   -1.2543   -2.4329 H.spc      1 <1>        0.000
     12 H          -4.1493   -1.3809   -0.9774 H.spc      1 <1>        0.000
     13 H          -2.6592    1.5445   -2.0014 H.spc      1 <1>        0.000
     14 H          -2.8962    2.6866   -0.6204 H.spc      1 <1>        0.000
     15 H          -2.3030    1.8584    1.5622 H.spc      1 <1>        0.000
     16 H          -2.8227    0.1458    1.8159 H.spc      1 <1>        0.000
     17 H          -5.0379    2.3867   -1.6950 H.spc      1 <1>        0.000
     18 H          -4.8580    0.6248   -1.6981 H.spc      1 <1>        0.000
     19 H          -4.3081    2.5409    1.5614 H.spc      1 <1>        0.000
     20 H          -4.8394    0.7685    1.9488 H.spc      1 <1>        0.000
@<TRIPOS>BOND
     1    3    6 1  
     2    3    7 1  
     3    8   10 1  
     4    7    9 1  
     5    2    5 2  
     6    6    8 1  
     7    1    2 1  
     8    2    3 1  
     9    2    4 2  
    10    9   10 1  
    11    1   11 1  
    12    1   12 1  
    13    6   13 1  
    14    6   14 1  
    15    7   15 1  
    16    7   16 1  
    17    8   17 1  
    18    8   18 1  
    19    9   19 1  
    20    9   20 1  
# Name:          frag5-685-60/138278
# Creation time: Sat Jun  5 12:51:56 2010


@<TRIPOS>MOLECULE
frag5-685-60/138278
   20    20     1     1     1
SMALL
USER_CHARGES


@<TRIPOS>ATOM
      1 N1         -2.2782   -1.5638   -1.7168 N.am       1 <1>        0.000
      2 S1         -2.0046   -0.6401   -0.4666 S.o2       1 <1>        0.000
      3 N3         -3.4134    0.0172   -0.2366 N.am       1 <1>        0.000
      4 O2         -1.7178   -1.5220    0.6306 O.2        1 <1>        0.000
      5 O3         -1.0382    0.3461   -0.8346 O.2        1 <1>        0.000
      6 C12        -4.2535    0.6034   -1.2630 C.3        1 <1>        0.000
      7 C13        -3.9140    0.3903    1.0376 C.3        1 <1>        0.000
      8 C16        -4.6947    2.0140   -0.9557 C.3        1 <1>        0.000
      9 C17        -3.5667    1.8487    1.2317 C.3        1 <1>        0.000
     10 O5         -4.0202    2.6108    0.1363 O.3        1 <1>        0.000
     11 H          -1.7879   -1.3923   -2.5946 H.spc      1 <1>        0.000
     12 H          -2.9453   -2.3322   -1.6469 H.spc      1 <1>        0.000
     13 H          -5.1518   -0.0095   -1.3376 H.spc      1 <1>        0.000
     14 H          -3.6681    0.6384   -2.1818 H.spc      1 <1>        0.000
     15 H          -3.4710   -0.2220    1.8231 H.spc      1 <1>        0.000
     16 H          -4.9919    0.2376    1.0910 H.spc      1 <1>        0.000
     17 H          -4.4755    2.6175   -1.8365 H.spc      1 <1>        0.000
     18 H          -5.7519    1.9694   -0.6939 H.spc      1 <1>        0.000
     19 H          -2.4842    1.9488    1.3104 H.spc      1 <1>        0.000
     20 H          -4.0481    2.2108    2.1401 H.spc      1 <1>        0.000
@<TRIPOS>BOND
     1    3    6 1  
     2    3    7 1  
     3    8   10 1  
     4    7    9 1  
     5    2    5 2  
     6    6    8 1  
     7    1    2 1  
     8    2    3 1  
     9    2    4 2  
    10    9   10 1  
    11    1   11 1  
    12    1   12 1  
    13    6   13 1  
    14    6   14 1  
    15    7   15 1  
    16    7   16 1  
    17    8   17 1  
    18    8   18 1  
    19    9   19 1  
    20    9   20 1  
# Name:          frag5-685-60/138278
# Creation time: Sat Jun  5 12:51:56 2010


@<TRIPOS>MOLECULE
frag5-685-60/138278
   20    20     1     1     1
SMALL
USER_CHARGES


@<TRIPOS>ATOM
      1 N1         -2.3368   -1.9506   -1.1283 N.am       1 <1>        0.000
      2 S1         -1.9959   -0.5549   -0.5237 S.o2       1 <1>        0.000
      3 N3         -3.4292    0.0556   -0.3594 N.am       1 <1>        0.000
      4 O2         -1.4482   -0.7848    0.7802 O.2        1 <1>        0.000
      5 O3         -1.2647    0.1692   -1.5292 O.2        1 <1>        0.000
      6 C12        -4.0246    0.9058   -1.3344 C.3        1 <1>        0.000
      7 C13        -4.2198    0.0473    0.8274 C.3        1 <1>        0.000
      8 C16        -3.6532    2.2978   -0.8887 C.3        1 <1>        0.000
      9 C17        -4.5757    1.4582    1.2446 C.3        1 <1>        0.000
     10 O5         -3.9532    2.4609    0.4744 O.3        1 <1>        0.000
     11 H          -2.0378   -2.1829   -2.0754 H.spc      1 <1>        0.000
     12 H          -2.8588   -2.6316   -0.5768 H.spc      1 <1>        0.000
     13 H          -5.1041    0.7681   -1.3956 H.spc      1 <1>        0.000
     14 H          -3.6692    0.6881   -2.3416 H.spc      1 <1>        0.000
     15 H          -3.6482   -0.4227    1.6277 H.spc      1 <1>        0.000
     16 H          -5.1394   -0.5050    0.6338 H.spc      1 <1>        0.000
     17 H          -2.5849    2.4508   -1.0420 H.spc      1 <1>        0.000
     18 H          -4.2203    3.0244   -1.4706 H.spc      1 <1>        0.000
     19 H          -4.2375    1.5852    2.2730 H.spc      1 <1>        0.000
     20 H          -5.6517    1.5716    1.1123 H.spc      1 <1>        0.000
@<TRIPOS>BOND
     1    3    6 1  
     2    3    7 1  
     3    8   10 1  
     4    7    9 1  
     5    2    5 2  
     6    6    8 1  
     7    1    2 1  
     8    2    3 1  
     9    2    4 2  
    10    9   10 1  
    11    1   11 1  
    12    1   12 1  
    13    6   13 1  
    14    6   14 1  
    15    7   15 1  
    16    7   16 1  
    17    8   17 1  
    18    8   18 1  
    19    9   19 1  
    20    9   20 1  
# Name:          frag5-685-60/138278 -- energy: -1.974586
# Creation time: Sat Jun  5 12:51:56 2010


@<TRIPOS>MOLECULE
frag5-685-60/138278 -- energy: -1.974586
   20    20     1     1     1
SMALL
USER_CHARGES


@<TRIPOS>ATOM
      1 N1         -2.9059   -1.8267   -1.0507 N.am       1 <1>        0.000
      2 S1         -1.8867   -0.7394   -0.5531 S.o2       1 <1>        0.000
      3 N3         -2.8019    0.4983   -0.2234 N.am       1 <1>        0.000
      4 O2         -1.3648   -1.2413    0.6866 O.2        1 <1>        0.000
      5 O3         -1.0628   -0.4366   -1.6893 O.2        1 <1>        0.000
      6 C12        -3.4058    1.3251   -1.2432 C.3        1 <1>        0.000
      7 C13        -3.4192    0.6435    1.0739 C.3        1 <1>        0.000
      8 C16        -4.1819    2.5196   -0.7748 C.3        1 <1>        0.000
      9 C17        -4.8498    1.0901    1.0232 C.3        1 <1>        0.000
     10 O5         -5.0225    2.2719    0.3139 O.3        1 <1>        0.000
     11 H          -2.8698   -2.1560   -2.0154 H.spc      1 <1>        0.000
     12 H          -3.6037   -2.2032   -0.4090 H.spc      1 <1>        0.000
     13 H          -4.1226    0.6868   -1.7598 H.spc      1 <1>        0.000
     14 H          -2.5804    1.7188   -1.8363 H.spc      1 <1>        0.000
     15 H          -2.8609    1.4086    1.6134 H.spc      1 <1>        0.000
     16 H          -3.4035   -0.3366    1.5505 H.spc      1 <1>        0.000
     17 H          -3.4560    3.2670   -0.4546 H.spc      1 <1>        0.000
     18 H          -4.8164    2.8337   -1.6036 H.spc      1 <1>        0.000
     19 H          -5.1804    1.2650    2.0470 H.spc      1 <1>        0.000
     20 H          -5.4236    0.3125    0.5191 H.spc      1 <1>        0.000
@<TRIPOS>BOND
     1    3    6 1  
     2    3    7 1  
     3    8   10 1  
     4    7    9 1  
     5    2    5 2  
     6    6    8 1  
     7    1    2 1  
     8    2    3 1  
     9    2    4 2  
    10    9   10 1  
    11    1   11 1  
    12    1   12 1  
    13    6   13 1  
    14    6   14 1  
    15    7   15 1  
    16    7   16 1  
    17    8   17 1  
    18    8   18 1  
    19    9   19 1  
    20    9   20 1  
# Name:          frag5-685-60/138278 -- energy: -2.357202
# Creation time: Sat Jun  5 12:51:56 2010


@<TRIPOS>MOLECULE
frag5-685-60/138278 -- energy: -2.357202
   20    20     1     1     1
SMALL
USER_CHARGES


@<TRIPOS>ATOM
      1 N1         -2.5882   -1.4507   -1.8354 N.am       1 <1>        0.000
      2 S1         -2.0551   -0.7388   -0.5175 S.o2       1 <1>        0.000
      3 N3         -2.7540    0.6508   -0.4480 N.am       1 <1>        0.000
      4 O2         -2.5605   -1.5656    0.5364 O.2        1 <1>        0.000
      5 O3         -0.6480   -0.4858   -0.6670 O.2        1 <1>        0.000
      6 C12        -2.6629    1.3144    0.7980 C.3        1 <1>        0.000
      7 C13        -3.6266    1.2918   -1.3806 C.3        1 <1>        0.000
      8 C16        -4.0177    1.5452    1.3981 C.3        1 <1>        0.000
      9 C17        -5.0125    1.4845   -0.8082 C.3        1 <1>        0.000
     10 O5         -4.9757    2.0588    0.4871 O.3        1 <1>        0.000
     11 H          -1.9466   -1.6489   -2.6032 H.spc      1 <1>        0.000
     12 H          -3.5718   -1.7092   -1.9131 H.spc      1 <1>        0.000
     13 H          -2.1859    2.2817    0.6400 H.spc      1 <1>        0.000
     14 H          -2.0849    0.6907    1.4799 H.spc      1 <1>        0.000
     15 H          -3.7055    0.6614   -2.2663 H.spc      1 <1>        0.000
     16 H          -3.2141    2.2722   -1.6189 H.spc      1 <1>        0.000
     17 H          -4.3863    0.5790    1.7425 H.spc      1 <1>        0.000
     18 H          -3.8975    2.2845    2.1900 H.spc      1 <1>        0.000
     19 H          -5.4903    0.5076   -0.7349 H.spc      1 <1>        0.000
     20 H          -5.5622    2.1587   -1.4649 H.spc      1 <1>        0.000
@<TRIPOS>BOND
     1    3    6 1  
     2    3    7 1  
     3    8   10 1  
     4    7    9 1  
     5    2    5 2  
     6    6    8 1  
     7    1    2 1  
     8    2    3 1  
     9    2    4 2  
    10    9   10 1  
    11    1   11 1  
    12    1   12 1  
    13    6   13 1  
    14    6   14 1  
    15    7   15 1  
    16    7   16 1  
    17    8   17 1  
    18    8   18 1  
    19    9   19 1  
    20    9   20 1  
# Name:          frag5-685-60/138278 -- energy: -1.861446
# Creation time: Sat Jun  5 12:51:56 2010


@<TRIPOS>MOLECULE
frag5-685-60/138278 -- energy: -1.861446
   20    20     1     1     1
SMALL
USER_CHARGES


@<TRIPOS>ATOM
      1 N1         -3.2565   -1.1666   -1.4217 N.am       1 <1>        0.000
      2 S1         -2.0183   -0.6947   -0.5358 S.o2       1 <1>        0.000
      3 N3         -2.5414    0.7273   -0.1222 N.am       1 <1>        0.000
      4 O2         -1.9779   -1.5386    0.6196 O.2        1 <1>        0.000
      5 O3         -0.9006   -0.4645   -1.4195 O.2        1 <1>        0.000
      6 C12        -3.1038    1.6929   -1.0173 C.3        1 <1>        0.000
      7 C13        -2.9325    1.0428    1.2065 C.3        1 <1>        0.000
      8 C16        -4.6251    1.5378   -1.1501 C.3        1 <1>        0.000
      9 C17        -4.3666    1.4891    1.2815 C.3        1 <1>        0.000
     10 O5         -5.1786    1.4791    0.1219 O.3        1 <1>        0.000
     11 H          -3.1561   -1.2543   -2.4329 H.spc      1 <1>        0.000
     12 H          -4.1493   -1.3809   -0.9774 H.spc      1 <1>        0.000
     13 H          -2.6592    1.5445   -2.0014 H.spc      1 <1>        0.000
     14 H          -2.8962    2.6866   -0.6204 H.spc      1 <1>        0.000
     15 H          -2.3030    1.8584    1.5622 H.spc      1 <1>        0.000
     16 H          -2.8227    0.1458    1.8159 H.spc      1 <1>        0.000
     17 H          -5.0379    2.3867   -1.6950 H.spc      1 <1>        0.000
     18 H          -4.8580    0.6248   -1.6981 H.spc      1 <1>        0.000
     19 H          -4.3081    2.5409    1.5614 H.spc      1 <1>        0.000
     20 H          -4.8394    0.7685    1.9488 H.spc      1 <1>        0.000
@<TRIPOS>BOND
     1    3    6 1  
     2    3    7 1  
     3    8   10 1  
     4    7    9 1  
     5    2    5 2  
     6    6    8 1  
     7    1    2 1  
     8    2    3 1  
     9    2    4 2  
    10    9   10 1  
    11    1   11 1  
    12    1   12 1  
    13    6   13 1  
    14    6   14 1  
    15    7   15 1  
    16    7   16 1  
    17    8   17 1  
    18    8   18 1  
    19    9   19 1  
    20    9   20 1  
# Name:          frag5-685-60/138278 -- energy: -2.216876
# Creation time: Sat Jun  5 12:51:56 2010


@<TRIPOS>MOLECULE
frag5-685-60/138278 -- energy: -2.216876
   20    20     1     1     1
SMALL
USER_CHARGES


@<TRIPOS>ATOM
      1 N1         -2.2782   -1.5638   -1.7168 N.am       1 <1>        0.000
      2 S1         -2.0046   -0.6401   -0.4666 S.o2       1 <1>        0.000
      3 N3         -3.4134    0.0172   -0.2366 N.am       1 <1>        0.000
      4 O2         -1.7178   -1.5220    0.6306 O.2        1 <1>        0.000
      5 O3         -1.0382    0.3461   -0.8346 O.2        1 <1>        0.000
      6 C12        -4.2535    0.6034   -1.2630 C.3        1 <1>        0.000
      7 C13        -3.9140    0.3903    1.0376 C.3        1 <1>        0.000
      8 C16        -4.6947    2.0140   -0.9557 C.3        1 <1>        0.000
      9 C17        -3.5667    1.8487    1.2317 C.3        1 <1>        0.000
     10 O5         -4.0202    2.6108    0.1363 O.3        1 <1>        0.000
     11 H          -1.7879   -1.3923   -2.5946 H.spc      1 <1>        0.000
     12 H          -2.9453   -2.3322   -1.6469 H.spc      1 <1>        0.000
     13 H          -5.1518   -0.0095   -1.3376 H.spc      1 <1>        0.000
     14 H          -3.6681    0.6384   -2.1818 H.spc      1 <1>        0.000
     15 H          -3.4710   -0.2220    1.8231 H.spc      1 <1>        0.000
     16 H          -4.9919    0.2376    1.0910 H.spc      1 <1>        0.000
     17 H          -4.4755    2.6175   -1.8365 H.spc      1 <1>        0.000
     18 H          -5.7519    1.9694   -0.6939 H.spc      1 <1>        0.000
     19 H          -2.4842    1.9488    1.3104 H.spc      1 <1>        0.000
     20 H          -4.0481    2.2108    2.1401 H.spc      1 <1>        0.000
@<TRIPOS>BOND
     1    3    6 1  
     2    3    7 1  
     3    8   10 1  
     4    7    9 1  
     5    2    5 2  
     6    6    8 1  
     7    1    2 1  
     8    2    3 1  
     9    2    4 2  
    10    9   10 1  
    11    1   11 1  
    12    1   12 1  
    13    6   13 1  
    14    6   14 1  
    15    7   15 1  
    16    7   16 1  
    17    8   17 1  
    18    8   18 1  
    19    9   19 1  
    20    9   20 1  
# Name:          frag5-685-60/138278 -- energy: -2.111124
# Creation time: Sat Jun  5 12:51:56 2010


@<TRIPOS>MOLECULE
frag5-685-60/138278 -- energy: -2.111124
   20    20     1     1     1
SMALL
USER_CHARGES


@<TRIPOS>ATOM
      1 N1         -2.3368   -1.9506   -1.1283 N.am       1 <1>        0.000
      2 S1         -1.9959   -0.5549   -0.5237 S.o2       1 <1>        0.000
      3 N3         -3.4292    0.0556   -0.3594 N.am       1 <1>        0.000
      4 O2         -1.4482   -0.7848    0.7802 O.2        1 <1>        0.000
      5 O3         -1.2647    0.1692   -1.5292 O.2        1 <1>        0.000
      6 C12        -4.0246    0.9058   -1.3344 C.3        1 <1>        0.000
      7 C13        -4.2198    0.0473    0.8274 C.3        1 <1>        0.000
      8 C16        -3.6532    2.2978   -0.8887 C.3        1 <1>        0.000
      9 C17        -4.5757    1.4582    1.2446 C.3        1 <1>        0.000
     10 O5         -3.9532    2.4609    0.4744 O.3        1 <1>        0.000
     11 H          -2.0378   -2.1829   -2.0754 H.spc      1 <1>        0.000
     12 H          -2.8588   -2.6316   -0.5768 H.spc      1 <1>        0.000
     13 H          -5.1041    0.7681   -1.3956 H.spc      1 <1>        0.000
     14 H          -3.6692    0.6881   -2.3416 H.spc      1 <1>        0.000
     15 H          -3.6482   -0.4227    1.6277 H.spc      1 <1>        0.000
     16 H          -5.1394   -0.5050    0.6338 H.spc      1 <1>        0.000
     17 H          -2.5849    2.4508   -1.0420 H.spc      1 <1>        0.000
     18 H          -4.2203    3.0244   -1.4706 H.spc      1 <1>        0.000
     19 H          -4.2375    1.5852    2.2730 H.spc      1 <1>        0.000
     20 H          -5.6517    1.5716    1.1123 H.spc      1 <1>        0.000
@<TRIPOS>BOND
     1    3    6 1  
     2    3    7 1  
     3    8   10 1  
     4    7    9 1  
     5    2    5 2  
     6    6    8 1  
     7    1    2 1  
     8    2    3 1  
     9    2    4 2  
    10    9   10 1  
    11    1   11 1  
    12    1   12 1  
    13    6   13 1  
    14    6   14 1  
    15    7   15 1  
    16    7   16 1  
    17    8   17 1  
    18    8   18 1  
    19    9   19 1  
    20    9   20 1  
