#      Rotatable Fragment
#      Build by yxyuan
#
# Name:          frag4-387-72/48856
# Creation time: Sat Jun  5 12:53:40 2010


@<TRIPOS>MOLECULE
frag4-387-72/48856
    7     7     1     1     1
SMALL
USER_CHARGES


@<TRIPOS>ATOM
      1 N1          0.6452   -1.1226    0.0386 N.ar       1 <1>        0.000
      2 O1         -0.6808   -1.0790   -0.0029 O.3        1 <1>        0.000
      3 C1         -1.0703    0.1405   -0.0301 C.ar       1 <1>        0.000
      4 N2          0.0229    0.9851    0.0007 N.ar       1 <1>        0.000
      5 C2          1.0560    0.0911    0.0294 C.ar       1 <1>        0.000
      6 H          -2.1102    0.4644   -0.0714 H.spc      1 <1>        0.000
      7 H           2.1077    0.3773    0.0429 H.spc      1 <1>        0.000
@<TRIPOS>BOND
     1    1    2 ar 
     2    1    5 ar 
     3    2    3 ar 
     4    3    4 ar 
     5    4    5 ar 
     6    3    6 1  
     7    5    7 1  
# Name:          frag4-387-72/48856 -- energy: -0.101102
# Creation time: Sat Jun  5 12:53:40 2010


@<TRIPOS>MOLECULE
frag4-387-72/48856 -- energy: -0.101102
    7     7     1     1     1
SMALL
USER_CHARGES


@<TRIPOS>ATOM
      1 N1          0.6452   -1.1226    0.0386 N.ar       1 <1>        0.000
      2 O1         -0.6808   -1.0790   -0.0029 O.3        1 <1>        0.000
      3 C1         -1.0703    0.1405   -0.0301 C.ar       1 <1>        0.000
      4 N2          0.0229    0.9851    0.0007 N.ar       1 <1>        0.000
      5 C2          1.0560    0.0911    0.0294 C.ar       1 <1>        0.000
      6 H          -2.1102    0.4644   -0.0714 H.spc      1 <1>        0.000
      7 H           2.1077    0.3773    0.0429 H.spc      1 <1>        0.000
@<TRIPOS>BOND
     1    1    2 ar 
     2    1    5 ar 
     3    2    3 ar 
     4    3    4 ar 
     5    4    5 ar 
     6    3    6 1  
     7    5    7 1  
