#      Rotatable Fragment
#      Build by yxyuan
#
# Name:          frag2-069-2/92655
# Creation time: Sat Jun  5 12:51:58 2010


@<TRIPOS>MOLECULE
frag2-069-2/92655
   25    28     1     1     1
SMALL
USER_CHARGES


@<TRIPOS>ATOM
      1 N1         -0.7654    2.4325    0.3882 N.ar       1 <1>        0.000
      2 C1         -0.1843    1.2415    0.1961 C.ar       1 <1>        0.000
      3 C2         -0.9296    0.0913    0.0174 C.ar       1 <1>        0.000
      4 C3         -2.2729    0.0597    0.0197 C.ar       1 <1>        0.000
      5 C4         -2.9151   -1.1819   -0.1736 C.ar       1 <1>        0.000
      6 C5         -2.0833   -2.3432   -0.3636 C.ar       1 <1>        0.000
      7 C6         -0.6434   -2.2703   -0.3605 C.ar       1 <1>        0.000
      8 C7         -0.1111   -1.0075   -0.1611 C.ar       1 <1>        0.000
      9 C8          1.2354   -0.5381   -0.0915 C.ar       1 <1>        0.000
     10 C9          1.1859    0.8590    0.1300 C.ar       1 <1>        0.000
     11 C10         2.3303    1.6537    0.2521 C.ar       1 <1>        0.000
     12 C11         3.5851    0.9519    0.1368 C.ar       1 <1>        0.000
     13 C12         3.6327   -0.4490   -0.0857 C.ar       1 <1>        0.000
     14 C13         2.4350   -1.2362   -0.2063 C.ar       1 <1>        0.000
     15 C18        -2.9588    1.2795    0.2171 C.ar       1 <1>        0.000
     16 C19        -2.1600    2.4669    0.4012 C.ar       1 <1>        0.000
     17 H          -4.0023   -1.2598   -0.1790 H.spc      1 <1>        0.000
     18 H          -2.5599   -3.3117   -0.5151 H.spc      1 <1>        0.000
     19 H          -0.0161   -3.1498   -0.5053 H.spc      1 <1>        0.000
     20 H           2.2776    2.7290    0.4226 H.spc      1 <1>        0.000
     21 H           4.5175    1.5098    0.2225 H.spc      1 <1>        0.000
     22 H           4.6019   -0.9410   -0.1673 H.spc      1 <1>        0.000
     23 H           2.4644   -2.3124   -0.3770 H.spc      1 <1>        0.000
     24 H          -4.0479    1.3216    0.2298 H.spc      1 <1>        0.000
     25 H          -2.6625    3.4218    0.5554 H.spc      1 <1>        0.000
@<TRIPOS>BOND
     1   15   16 ar 
     2    4   15 ar 
     3    1   16 ar 
     4   13   14 ar 
     5    8    9 1  
     6    5    6 ar 
     7   11   12 ar 
     8    4    5 ar 
     9   12   13 ar 
    10   10   11 ar 
    11    3    8 ar 
    12    7    8 ar 
    13    9   10 ar 
    14    9   14 ar 
    15    2   10 1  
    16    2    3 ar 
    17    6    7 ar 
    18    1    2 ar 
    19    3    4 ar 
    20    5   17 1  
    21    6   18 1  
    22    7   19 1  
    23   11   20 1  
    24   12   21 1  
    25   13   22 1  
    26   14   23 1  
    27   15   24 1  
    28   16   25 1  
# Name:          frag2-069-2/92655 -- energy: -1.413618
# Creation time: Sat Jun  5 12:51:58 2010


@<TRIPOS>MOLECULE
frag2-069-2/92655 -- energy: -1.413618
   25    28     1     1     1
SMALL
USER_CHARGES


@<TRIPOS>ATOM
      1 N1         -0.7654    2.4325    0.3882 N.ar       1 <1>        0.000
      2 C1         -0.1843    1.2415    0.1961 C.ar       1 <1>        0.000
      3 C2         -0.9296    0.0913    0.0174 C.ar       1 <1>        0.000
      4 C3         -2.2729    0.0597    0.0197 C.ar       1 <1>        0.000
      5 C4         -2.9151   -1.1819   -0.1736 C.ar       1 <1>        0.000
      6 C5         -2.0833   -2.3432   -0.3636 C.ar       1 <1>        0.000
      7 C6         -0.6434   -2.2703   -0.3605 C.ar       1 <1>        0.000
      8 C7         -0.1111   -1.0075   -0.1611 C.ar       1 <1>        0.000
      9 C8          1.2354   -0.5381   -0.0915 C.ar       1 <1>        0.000
     10 C9          1.1859    0.8590    0.1300 C.ar       1 <1>        0.000
     11 C10         2.3303    1.6537    0.2521 C.ar       1 <1>        0.000
     12 C11         3.5851    0.9519    0.1368 C.ar       1 <1>        0.000
     13 C12         3.6327   -0.4490   -0.0857 C.ar       1 <1>        0.000
     14 C13         2.4350   -1.2362   -0.2063 C.ar       1 <1>        0.000
     15 C18        -2.9588    1.2795    0.2171 C.ar       1 <1>        0.000
     16 C19        -2.1600    2.4669    0.4012 C.ar       1 <1>        0.000
     17 H          -4.0023   -1.2598   -0.1790 H.spc      1 <1>        0.000
     18 H          -2.5599   -3.3117   -0.5151 H.spc      1 <1>        0.000
     19 H          -0.0161   -3.1498   -0.5053 H.spc      1 <1>        0.000
     20 H           2.2776    2.7290    0.4226 H.spc      1 <1>        0.000
     21 H           4.5175    1.5098    0.2225 H.spc      1 <1>        0.000
     22 H           4.6019   -0.9410   -0.1673 H.spc      1 <1>        0.000
     23 H           2.4644   -2.3124   -0.3770 H.spc      1 <1>        0.000
     24 H          -4.0479    1.3216    0.2298 H.spc      1 <1>        0.000
     25 H          -2.6625    3.4218    0.5554 H.spc      1 <1>        0.000
@<TRIPOS>BOND
     1   15   16 ar 
     2    4   15 ar 
     3    1   16 ar 
     4   13   14 ar 
     5    8    9 1  
     6    5    6 ar 
     7   11   12 ar 
     8    4    5 ar 
     9   12   13 ar 
    10   10   11 ar 
    11    3    8 ar 
    12    7    8 ar 
    13    9   10 ar 
    14    9   14 ar 
    15    2   10 1  
    16    2    3 ar 
    17    6    7 ar 
    18    1    2 ar 
    19    3    4 ar 
    20    5   17 1  
    21    6   18 1  
    22    7   19 1  
    23   11   20 1  
    24   12   21 1  
    25   13   22 1  
    26   14   23 1  
    27   15   24 1  
    28   16   25 1  
