#      Rotatable Fragment
#      Build by yxyuan
#
# Name:          frag5-631-85/138278
# Creation time: Sat Jun  5 12:53:49 2010


@<TRIPOS>MOLECULE
frag5-631-85/138278
   20    21     1     1     1
SMALL
USER_CHARGES


@<TRIPOS>ATOM
      1 C2          1.2169   -0.8046    0.0000 C.ar       1 <1>        0.000
      2 C5          0.0217   -0.0966    0.0000 C.ar       1 <1>        0.000
      3 C6          1.1902   -2.1986   -0.0000 C.ar       1 <1>        0.000
      4 C11        -1.2241   -0.7489    0.0000 C.ar       1 <1>        0.000
      5 C12        -0.0344   -2.8665   -0.0000 C.ar       1 <1>        0.000
      6 C16        -1.2390   -2.1638    0.0000 C.ar       1 <1>        0.000
      7 C17        -2.4901    0.0646   -0.0000 C.3        1 <1>        0.000
      8 N2         -2.4654   -2.8508    0.0000 N.am       1 <1>        0.000
      9 C20        -3.8031   -0.7423    0.0000 C.3        1 <1>        0.000
     10 C21        -3.6771   -2.2492   -0.0000 C.2        1 <1>        0.000
     11 O1         -4.7161   -2.8982   -0.0000 O.2        1 <1>        0.000
     12 H           2.1690   -0.2740    0.0000 H.spc      1 <1>        0.000
     13 H           0.0503    0.9930    0.0000 H.spc      1 <1>        0.000
     14 H           2.1221   -2.7640   -0.0000 H.spc      1 <1>        0.000
     15 H          -0.0501   -3.9564   -0.0000 H.spc      1 <1>        0.000
     16 H          -2.4843    0.6446   -0.9229 H.spc      1 <1>        0.000
     17 H          -2.4843    0.6446    0.9229 H.spc      1 <1>        0.000
     18 H          -2.4400   -3.8705    0.0000 H.spc      1 <1>        0.000
     19 H          -4.3128   -0.4845   -0.9283 H.spc      1 <1>        0.000
     20 H          -4.3128   -0.4845    0.9283 H.spc      1 <1>        0.000
@<TRIPOS>BOND
     1    4    7 1  
     2    3    5 ar 
     3    4    6 ar 
     4    8   10 am 
     5    5    6 ar 
     6    7    9 1  
     7   10   11 2  
     8    6    8 1  
     9    1    2 ar 
    10    1    3 ar 
    11    2    4 ar 
    12    9   10 1  
    13    1   12 1  
    14    2   13 1  
    15    3   14 1  
    16    5   15 1  
    17    7   16 1  
    18    7   17 1  
    19    8   18 1  
    20    9   19 1  
    21    9   20 1  
# Name:          frag5-631-85/138278 -- energy: -1.147703
# Creation time: Sat Jun  5 12:53:49 2010


@<TRIPOS>MOLECULE
frag5-631-85/138278 -- energy: -1.147703
   20    21     1     1     1
SMALL
USER_CHARGES


@<TRIPOS>ATOM
      1 C2          1.2169   -0.8046    0.0000 C.ar       1 <1>        0.000
      2 C5          0.0217   -0.0966    0.0000 C.ar       1 <1>        0.000
      3 C6          1.1902   -2.1986   -0.0000 C.ar       1 <1>        0.000
      4 C11        -1.2241   -0.7489    0.0000 C.ar       1 <1>        0.000
      5 C12        -0.0344   -2.8665   -0.0000 C.ar       1 <1>        0.000
      6 C16        -1.2390   -2.1638    0.0000 C.ar       1 <1>        0.000
      7 C17        -2.4901    0.0646   -0.0000 C.3        1 <1>        0.000
      8 N2         -2.4654   -2.8508    0.0000 N.am       1 <1>        0.000
      9 C20        -3.8031   -0.7423    0.0000 C.3        1 <1>        0.000
     10 C21        -3.6771   -2.2492   -0.0000 C.2        1 <1>        0.000
     11 O1         -4.7161   -2.8982   -0.0000 O.2        1 <1>        0.000
     12 H           2.1690   -0.2740    0.0000 H.spc      1 <1>        0.000
     13 H           0.0503    0.9930    0.0000 H.spc      1 <1>        0.000
     14 H           2.1221   -2.7640   -0.0000 H.spc      1 <1>        0.000
     15 H          -0.0501   -3.9564   -0.0000 H.spc      1 <1>        0.000
     16 H          -2.4843    0.6446   -0.9229 H.spc      1 <1>        0.000
     17 H          -2.4843    0.6446    0.9229 H.spc      1 <1>        0.000
     18 H          -2.4400   -3.8705    0.0000 H.spc      1 <1>        0.000
     19 H          -4.3128   -0.4845   -0.9283 H.spc      1 <1>        0.000
     20 H          -4.3128   -0.4845    0.9283 H.spc      1 <1>        0.000
@<TRIPOS>BOND
     1    4    7 1  
     2    3    5 ar 
     3    4    6 ar 
     4    8   10 am 
     5    5    6 ar 
     6    7    9 1  
     7   10   11 2  
     8    6    8 1  
     9    1    2 ar 
    10    1    3 ar 
    11    2    4 ar 
    12    9   10 1  
    13    1   12 1  
    14    2   13 1  
    15    3   14 1  
    16    5   15 1  
    17    7   16 1  
    18    7   17 1  
    19    8   18 1  
    20    9   19 1  
    21    9   20 1  
