#      Rotatable Fragment
#      Build by yxyuan
#
# Name:          frag5-593-37/41815
# Creation time: Sat Jun  5 12:52:57 2010


@<TRIPOS>MOLECULE
frag5-593-37/41815
   17    17     1     1     1
SMALL
USER_CHARGES


@<TRIPOS>ATOM
      1 N1         -3.1353   -0.0756    0.2705 N.pl3      1 <1>        0.000
      2 C8         -1.7400   -0.0608    0.1238 C.ar       1 <1>        0.000
      3 C9         -0.9198    0.9223    0.7334 C.ar       1 <1>        0.000
      4 C10         0.4824    0.9427    0.5909 C.ar       1 <1>        0.000
      5 C11         1.1421   -0.0335   -0.1808 C.ar       1 <1>        0.000
      6 C12         0.3551   -1.0229   -0.8003 C.ar       1 <1>        0.000
      7 C13        -1.0457   -1.0305   -0.6462 C.ar       1 <1>        0.000
      8 C14         2.6064   -0.0205   -0.3355 C.2        1 <1>        0.000
      9 O3          3.0993   -0.1109   -1.4460 O.2        1 <1>        0.000
     10 O4          3.3801    0.0855    0.7668 O.3        1 <1>        0.000
     11 H          -3.5966    0.6394    0.8331 H.spc      1 <1>        0.000
     12 H          -3.6884   -0.8013   -0.1854 H.spc      1 <1>        0.000
     13 H          -1.3940    1.6953    1.3381 H.spc      1 <1>        0.000
     14 H           1.0628    1.7228    1.0835 H.spc      1 <1>        0.000
     15 H           0.8347   -1.7918   -1.4060 H.spc      1 <1>        0.000
     16 H          -1.6206   -1.8144   -1.1393 H.spc      1 <1>        0.000
     17 H           2.8205    0.1460    1.5445 H.spc      1 <1>        0.000
@<TRIPOS>BOND
     1    6    7 ar 
     2    8    9 2  
     3    5    8 1  
     4    8   10 1  
     5    1    2 1  
     6    2    3 ar 
     7    2    7 ar 
     8    3    4 ar 
     9    4    5 ar 
    10    5    6 ar 
    11    1   11 1  
    12    1   12 1  
    13    3   13 1  
    14    4   14 1  
    15    6   15 1  
    16    7   16 1  
    17   10   17 1  
# Name:          frag5-593-37/41815
# Creation time: Sat Jun  5 12:52:57 2010


@<TRIPOS>MOLECULE
frag5-593-37/41815
   17    17     1     1     1
SMALL
USER_CHARGES


@<TRIPOS>ATOM
      1 N1         -3.1358   -0.0916    0.2629 N.pl3      1 <1>        0.000
      2 C8         -1.7403   -0.0661    0.1209 C.ar       1 <1>        0.000
      3 C9         -0.9752    1.1113    0.3192 C.ar       1 <1>        0.000
      4 C10         0.4270    1.1440    0.1791 C.ar       1 <1>        0.000
      5 C11         1.1427   -0.0171   -0.1725 C.ar       1 <1>        0.000
      6 C12         0.4114   -1.2024   -0.3775 C.ar       1 <1>        0.000
      7 C13        -0.9901   -1.2187   -0.2314 C.ar       1 <1>        0.000
      8 C14         2.6077    0.0071   -0.3211 C.2        1 <1>        0.000
      9 O3          3.1346    0.8802   -0.9876 O.2        1 <1>        0.000
     10 O4          3.3427   -0.9509    0.2845 O.3        1 <1>        0.000
     11 H          -3.6381    0.7587    0.5180 H.spc      1 <1>        0.000
     12 H          -3.6481   -0.9604    0.1110 H.spc      1 <1>        0.000
     13 H          -1.4937    2.0305    0.5917 H.spc      1 <1>        0.000
     14 H           0.9635    2.0783    0.3447 H.spc      1 <1>        0.000
     15 H           0.9352   -2.1179   -0.6524 H.spc      1 <1>        0.000
     16 H          -1.5209   -2.1564   -0.3959 H.spc      1 <1>        0.000
     17 H           2.7598   -1.5467    0.7607 H.spc      1 <1>        0.000
@<TRIPOS>BOND
     1    6    7 ar 
     2    8    9 2  
     3    5    8 1  
     4    8   10 1  
     5    1    2 1  
     6    2    3 ar 
     7    2    7 ar 
     8    3    4 ar 
     9    4    5 ar 
    10    5    6 ar 
    11    1   11 1  
    12    1   12 1  
    13    3   13 1  
    14    4   14 1  
    15    6   15 1  
    16    7   16 1  
    17   10   17 1  
# Name:          frag5-593-37/41815 -- energy: -0.931001
# Creation time: Sat Jun  5 12:52:57 2010


@<TRIPOS>MOLECULE
frag5-593-37/41815 -- energy: -0.931001
   17    17     1     1     1
SMALL
USER_CHARGES


@<TRIPOS>ATOM
      1 N1         -3.1353   -0.0756    0.2705 N.pl3      1 <1>        0.000
      2 C8         -1.7400   -0.0608    0.1238 C.ar       1 <1>        0.000
      3 C9         -0.9198    0.9223    0.7334 C.ar       1 <1>        0.000
      4 C10         0.4824    0.9427    0.5909 C.ar       1 <1>        0.000
      5 C11         1.1421   -0.0335   -0.1808 C.ar       1 <1>        0.000
      6 C12         0.3551   -1.0229   -0.8003 C.ar       1 <1>        0.000
      7 C13        -1.0457   -1.0305   -0.6462 C.ar       1 <1>        0.000
      8 C14         2.6064   -0.0205   -0.3355 C.2        1 <1>        0.000
      9 O3          3.0993   -0.1109   -1.4460 O.2        1 <1>        0.000
     10 O4          3.3801    0.0855    0.7668 O.3        1 <1>        0.000
     11 H          -3.5966    0.6394    0.8331 H.spc      1 <1>        0.000
     12 H          -3.6884   -0.8013   -0.1854 H.spc      1 <1>        0.000
     13 H          -1.3940    1.6953    1.3381 H.spc      1 <1>        0.000
     14 H           1.0628    1.7228    1.0835 H.spc      1 <1>        0.000
     15 H           0.8347   -1.7918   -1.4060 H.spc      1 <1>        0.000
     16 H          -1.6206   -1.8144   -1.1393 H.spc      1 <1>        0.000
     17 H           2.8205    0.1460    1.5445 H.spc      1 <1>        0.000
@<TRIPOS>BOND
     1    6    7 ar 
     2    8    9 2  
     3    5    8 1  
     4    8   10 1  
     5    1    2 1  
     6    2    3 ar 
     7    2    7 ar 
     8    3    4 ar 
     9    4    5 ar 
    10    5    6 ar 
    11    1   11 1  
    12    1   12 1  
    13    3   13 1  
    14    4   14 1  
    15    6   15 1  
    16    7   16 1  
    17   10   17 1  
# Name:          frag5-593-37/41815 -- energy: -0.922422
# Creation time: Sat Jun  5 12:52:57 2010


@<TRIPOS>MOLECULE
frag5-593-37/41815 -- energy: -0.922422
   17    17     1     1     1
SMALL
USER_CHARGES


@<TRIPOS>ATOM
      1 N1         -3.1358   -0.0916    0.2629 N.pl3      1 <1>        0.000
      2 C8         -1.7403   -0.0661    0.1209 C.ar       1 <1>        0.000
      3 C9         -0.9752    1.1113    0.3192 C.ar       1 <1>        0.000
      4 C10         0.4270    1.1440    0.1791 C.ar       1 <1>        0.000
      5 C11         1.1427   -0.0171   -0.1725 C.ar       1 <1>        0.000
      6 C12         0.4114   -1.2024   -0.3775 C.ar       1 <1>        0.000
      7 C13        -0.9901   -1.2187   -0.2314 C.ar       1 <1>        0.000
      8 C14         2.6077    0.0071   -0.3211 C.2        1 <1>        0.000
      9 O3          3.1346    0.8802   -0.9876 O.2        1 <1>        0.000
     10 O4          3.3427   -0.9509    0.2845 O.3        1 <1>        0.000
     11 H          -3.6381    0.7587    0.5180 H.spc      1 <1>        0.000
     12 H          -3.6481   -0.9604    0.1110 H.spc      1 <1>        0.000
     13 H          -1.4937    2.0305    0.5917 H.spc      1 <1>        0.000
     14 H           0.9635    2.0783    0.3447 H.spc      1 <1>        0.000
     15 H           0.9352   -2.1179   -0.6524 H.spc      1 <1>        0.000
     16 H          -1.5209   -2.1564   -0.3959 H.spc      1 <1>        0.000
     17 H           2.7598   -1.5467    0.7607 H.spc      1 <1>        0.000
@<TRIPOS>BOND
     1    6    7 ar 
     2    8    9 2  
     3    5    8 1  
     4    8   10 1  
     5    1    2 1  
     6    2    3 ar 
     7    2    7 ar 
     8    3    4 ar 
     9    4    5 ar 
    10    5    6 ar 
    11    1   11 1  
    12    1   12 1  
    13    3   13 1  
    14    4   14 1  
    15    6   15 1  
    16    7   16 1  
    17   10   17 1  
