#      Rotatable Fragment
#      Build by yxyuan
#
# Name:          frag4-473-96/150395
# Creation time: Sat Jun  5 12:53:37 2010


@<TRIPOS>MOLECULE
frag4-473-96/150395
   21    23     1     1     1
SMALL
USER_CHARGES


@<TRIPOS>ATOM
      1 C1          0.8307   -0.5358    0.0078 C.2        1 <1>        0.000
      2 C2         -0.5110   -0.4239   -0.0177 C.2        1 <1>        0.000
      3 C3          1.2525    0.9161   -0.0305 C.2        1 <1>        0.000
      4 C4          1.8784   -1.4898    0.0716 C.2        1 <1>        0.000
      5 C5         -0.8900    1.0002   -0.0136 C.2        1 <1>        0.000
      6 C6         -1.5305   -1.4554   -0.0217 C.2        1 <1>        0.000
      7 N1          0.2671    1.7246   -0.0121 N.2        1 <1>        0.000
      8 C7          2.7163    1.2081   -0.0683 C.2        1 <1>        0.000
      9 C8          3.1507   -1.0374    0.2331 C.2        1 <1>        0.000
     10 C9         -2.1794    1.3718    0.0186 C.2        1 <1>        0.000
     11 C10        -2.8374   -1.1043   -0.0187 C.2        1 <1>        0.000
     12 N2          3.5243    0.2824    0.3002 N.2        1 <1>        0.000
     13 C12        -3.2116    0.3267   -0.0312 C.3        1 <1>        0.000
     14 H           1.6694   -2.5567   -0.0067 H.spc      1 <1>        0.000
     15 H          -1.2457   -2.5075   -0.0271 H.spc      1 <1>        0.000
     16 H           3.0871    2.1783   -0.3989 H.spc      1 <1>        0.000
     17 H           3.9398   -1.7847    0.3162 H.spc      1 <1>        0.000
     18 H          -2.4547    2.4247    0.0803 H.spc      1 <1>        0.000
     19 H          -3.6107   -1.8724   -0.0071 H.spc      1 <1>        0.000
     20 H          -3.6895    0.4693   -1.0004 H.spc      1 <1>        0.000
     21 H          -3.7749    0.4635    0.8919 H.spc      1 <1>        0.000
@<TRIPOS>BOND
     1    3    8 1  
     2   10   13 1  
     3    9   12 1  
     4    8   12 2  
     5    2    6 1  
     6    5   10 2  
     7    4    9 2  
     8   11   13 1  
     9    6   11 2  
    10    3    7 2  
    11    2    5 1  
    12    5    7 1  
    13    1    2 2  
    14    1    3 1  
    15    1    4 1  
    16    4   14 1  
    17    6   15 1  
    18    8   16 1  
    19    9   17 1  
    20   10   18 1  
    21   11   19 1  
    22   13   20 1  
    23   13   21 1  
# Name:          frag4-473-96/150395 -- energy: -1.292054
# Creation time: Sat Jun  5 12:53:37 2010


@<TRIPOS>MOLECULE
frag4-473-96/150395 -- energy: -1.292054
   21    23     1     1     1
SMALL
USER_CHARGES


@<TRIPOS>ATOM
      1 C1          0.8307   -0.5358    0.0078 C.2        1 <1>        0.000
      2 C2         -0.5110   -0.4239   -0.0177 C.2        1 <1>        0.000
      3 C3          1.2525    0.9161   -0.0305 C.2        1 <1>        0.000
      4 C4          1.8784   -1.4898    0.0716 C.2        1 <1>        0.000
      5 C5         -0.8900    1.0002   -0.0136 C.2        1 <1>        0.000
      6 C6         -1.5305   -1.4554   -0.0217 C.2        1 <1>        0.000
      7 N1          0.2671    1.7246   -0.0121 N.2        1 <1>        0.000
      8 C7          2.7163    1.2081   -0.0683 C.2        1 <1>        0.000
      9 C8          3.1507   -1.0374    0.2331 C.2        1 <1>        0.000
     10 C9         -2.1794    1.3718    0.0186 C.2        1 <1>        0.000
     11 C10        -2.8374   -1.1043   -0.0187 C.2        1 <1>        0.000
     12 N2          3.5243    0.2824    0.3002 N.2        1 <1>        0.000
     13 C12        -3.2116    0.3267   -0.0312 C.3        1 <1>        0.000
     14 H           1.6694   -2.5567   -0.0067 H.spc      1 <1>        0.000
     15 H          -1.2457   -2.5075   -0.0271 H.spc      1 <1>        0.000
     16 H           3.0871    2.1783   -0.3989 H.spc      1 <1>        0.000
     17 H           3.9398   -1.7847    0.3162 H.spc      1 <1>        0.000
     18 H          -2.4547    2.4247    0.0803 H.spc      1 <1>        0.000
     19 H          -3.6107   -1.8724   -0.0071 H.spc      1 <1>        0.000
     20 H          -3.6895    0.4693   -1.0004 H.spc      1 <1>        0.000
     21 H          -3.7749    0.4635    0.8919 H.spc      1 <1>        0.000
@<TRIPOS>BOND
     1    3    8 1  
     2   10   13 1  
     3    9   12 1  
     4    8   12 2  
     5    2    6 1  
     6    5   10 2  
     7    4    9 2  
     8   11   13 1  
     9    6   11 2  
    10    3    7 2  
    11    2    5 1  
    12    5    7 1  
    13    1    2 2  
    14    1    3 1  
    15    1    4 1  
    16    4   14 1  
    17    6   15 1  
    18    8   16 1  
    19    9   17 1  
    20   10   18 1  
    21   11   19 1  
    22   13   20 1  
    23   13   21 1  
