#      Rotatable Fragment
#      Build by yxyuan
#
# Name:          frag5-507-465/138278
# Creation time: Sat Jun  5 12:53:40 2010


@<TRIPOS>MOLECULE
frag5-507-465/138278
   10    10     1     1     1
SMALL
USER_CHARGES


@<TRIPOS>ATOM
      1 N1         -0.0753    1.3101   -0.2043 N.ar       1 <1>        0.000
      2 C3          1.0957    0.7750   -0.1609 C.ar       1 <1>        0.000
      3 C4         -1.2085    0.5673   -0.0341 C.ar       1 <1>        0.000
      4 C7          1.1733   -0.6447    0.0951 C.ar       1 <1>        0.000
      5 N2         -1.0980   -0.6762    0.1546 N.ar       1 <1>        0.000
      6 O2         -2.2471    1.1093   -0.0861 O.2        1 <1>        0.000
      7 C9          0.0818   -1.3490    0.2454 C.ar       1 <1>        0.000
      8 O4          0.1772   -2.4987    0.4720 O.2        1 <1>        0.000
      9 H           1.9953    1.3717   -0.3118 H.spc      1 <1>        0.000
     10 H           2.1464   -1.1311    0.1633 H.spc      1 <1>        0.000
@<TRIPOS>BOND
     1    1    2 ar 
     2    1    3 ar 
     3    2    4 ar 
     4    3    5 ar 
     5    3    6 2  
     6    4    7 ar 
     7    5    7 ar 
     8    7    8 2  
     9    2    9 1  
    10    4   10 1  
# Name:          frag5-507-465/138278 -- energy: 0.398817
# Creation time: Sat Jun  5 12:53:40 2010


@<TRIPOS>MOLECULE
frag5-507-465/138278 -- energy: 0.398817
   10    10     1     1     1
SMALL
USER_CHARGES


@<TRIPOS>ATOM
      1 N1         -0.0753    1.3101   -0.2043 N.ar       1 <1>        0.000
      2 C3          1.0957    0.7750   -0.1609 C.ar       1 <1>        0.000
      3 C4         -1.2085    0.5673   -0.0341 C.ar       1 <1>        0.000
      4 C7          1.1733   -0.6447    0.0951 C.ar       1 <1>        0.000
      5 N2         -1.0980   -0.6762    0.1546 N.ar       1 <1>        0.000
      6 O2         -2.2471    1.1093   -0.0861 O.2        1 <1>        0.000
      7 C9          0.0818   -1.3490    0.2454 C.ar       1 <1>        0.000
      8 O4          0.1772   -2.4987    0.4720 O.2        1 <1>        0.000
      9 H           1.9953    1.3717   -0.3118 H.spc      1 <1>        0.000
     10 H           2.1464   -1.1311    0.1633 H.spc      1 <1>        0.000
@<TRIPOS>BOND
     1    1    2 ar 
     2    1    3 ar 
     3    2    4 ar 
     4    3    5 ar 
     5    3    6 2  
     6    4    7 ar 
     7    5    7 ar 
     8    7    8 2  
     9    2    9 1  
    10    4   10 1  
