#      Rotatable Fragment
#      Build by yxyuan
#
# Name:          frag5-634-83/138278
# Creation time: Sat Jun  5 12:53:49 2010


@<TRIPOS>MOLECULE
frag5-634-83/138278
   17    18     1     1     1
SMALL
USER_CHARGES


@<TRIPOS>ATOM
      1 N3          1.1212   -0.6413    0.0576 N.am       1 <1>        0.000
      2 S2          1.4118   -1.2886    0.1094 S.o2       1 <1>        0.000
      3 C11         1.8123    0.5404   -0.0727 C.2        1 <1>        0.000
      4 C13         3.1805   -1.0334    0.0339 C.ar       1 <1>        0.000
      5 O5          1.1080   -2.1015   -1.0714 O.2        1 <1>        0.000
      6 O6          1.1821   -1.8674    1.4359 O.2        1 <1>        0.000
      7 C14         3.2930    0.3223   -0.0953 C.ar       1 <1>        0.000
      8 O7          1.3267    1.6576   -0.1630 O.2        1 <1>        0.000
      9 C16         4.3155   -1.8410    0.0759 C.ar       1 <1>        0.000
     10 C17         4.4993    1.0098   -0.1940 C.ar       1 <1>        0.000
     11 C20         5.5550   -1.1909   -0.0215 C.ar       1 <1>        0.000
     12 C21         5.6471    0.2061   -0.1536 C.ar       1 <1>        0.000
     13 H           0.1031   -0.5848    0.0821 H.spc      1 <1>        0.000
     14 H           4.2438   -2.9237    0.1793 H.spc      1 <1>        0.000
     15 H           4.5479    2.0940   -0.2953 H.spc      1 <1>        0.000
     16 H           6.4694   -1.7835    0.0059 H.spc      1 <1>        0.000
     17 H           6.6295    0.6728   -0.2259 H.spc      1 <1>        0.000
@<TRIPOS>BOND
     1   11   12 ar 
     2   10   12 ar 
     3    7   10 ar 
     4    4    7 ar 
     5    9   11 ar 
     6    1    2 1  
     7    1    3 am 
     8    2    4 1  
     9    2    5 2  
    10    2    6 2  
    11    3    7 1  
    12    3    8 2  
    13    4    9 ar 
    14    1   13 1  
    15    9   14 1  
    16   10   15 1  
    17   11   16 1  
    18   12   17 1  
# Name:          frag5-634-83/138278 -- energy: -0.487923
# Creation time: Sat Jun  5 12:53:49 2010


@<TRIPOS>MOLECULE
frag5-634-83/138278 -- energy: -0.487923
   17    18     1     1     1
SMALL
USER_CHARGES


@<TRIPOS>ATOM
      1 N3          1.1212   -0.6413    0.0576 N.am       1 <1>        0.000
      2 S2          1.4118   -1.2886    0.1094 S.o2       1 <1>        0.000
      3 C11         1.8123    0.5404   -0.0727 C.2        1 <1>        0.000
      4 C13         3.1805   -1.0334    0.0339 C.ar       1 <1>        0.000
      5 O5          1.1080   -2.1015   -1.0714 O.2        1 <1>        0.000
      6 O6          1.1821   -1.8674    1.4359 O.2        1 <1>        0.000
      7 C14         3.2930    0.3223   -0.0953 C.ar       1 <1>        0.000
      8 O7          1.3267    1.6576   -0.1630 O.2        1 <1>        0.000
      9 C16         4.3155   -1.8410    0.0759 C.ar       1 <1>        0.000
     10 C17         4.4993    1.0098   -0.1940 C.ar       1 <1>        0.000
     11 C20         5.5550   -1.1909   -0.0215 C.ar       1 <1>        0.000
     12 C21         5.6471    0.2061   -0.1536 C.ar       1 <1>        0.000
     13 H           0.1031   -0.5848    0.0821 H.spc      1 <1>        0.000
     14 H           4.2438   -2.9237    0.1793 H.spc      1 <1>        0.000
     15 H           4.5479    2.0940   -0.2953 H.spc      1 <1>        0.000
     16 H           6.4694   -1.7835    0.0059 H.spc      1 <1>        0.000
     17 H           6.6295    0.6728   -0.2259 H.spc      1 <1>        0.000
@<TRIPOS>BOND
     1   11   12 ar 
     2   10   12 ar 
     3    7   10 ar 
     4    4    7 ar 
     5    9   11 ar 
     6    1    2 1  
     7    1    3 am 
     8    2    4 1  
     9    2    5 2  
    10    2    6 2  
    11    3    7 1  
    12    3    8 2  
    13    4    9 ar 
    14    1   13 1  
    15    9   14 1  
    16   10   15 1  
    17   11   16 1  
    18   12   17 1  
