#      Rotatable Fragment
#      Build by yxyuan
#
# Name:          frag5-530-92/41815
# Creation time: Sat Jun  5 12:52:51 2010


@<TRIPOS>MOLECULE
frag5-530-92/41815
   13    13     1     1     1
SMALL
USER_CHARGES


@<TRIPOS>ATOM
      1 Cl1         8.5400   -2.1286    1.2339 Cl         1 <1>        0.000
      2 C1          6.9820   -1.7406    0.5475 C.ar       1 <1>        0.000
      3 C2          5.8296   -2.4043    0.9860 C.ar       1 <1>        0.000
      4 C3          4.5824   -2.0789    0.4564 C.ar       1 <1>        0.000
      5 C4          4.4626   -1.0758   -0.5180 C.ar       1 <1>        0.000
      6 C5          5.6233   -0.4396   -0.9766 C.ar       1 <1>        0.000
      7 C6          6.8708   -0.7623   -0.4473 C.ar       1 <1>        0.000
      8 O1          3.2256   -0.7075   -1.0321 O.3        1 <1>        0.000
      9 H           5.9087   -3.1808    1.7468 H.spc      1 <1>        0.000
     10 H           3.6935   -2.6071    0.8013 H.spc      1 <1>        0.000
     11 H           5.5494    0.3174   -1.7574 H.spc      1 <1>        0.000
     12 H           7.7631   -0.2513   -0.8090 H.spc      1 <1>        0.000
     13 H           3.3449   -0.0111   -1.6820 H.spc      1 <1>        0.000
@<TRIPOS>BOND
     1    1    2 1  
     2    2    3 ar 
     3    2    7 ar 
     4    3    4 ar 
     5    4    5 ar 
     6    5    6 ar 
     7    5    8 1  
     8    6    7 ar 
     9    3    9 1  
    10    4   10 1  
    11    6   11 1  
    12    7   12 1  
    13    8   13 1  
# Name:          frag5-530-92/41815 -- energy: -0.196148
# Creation time: Sat Jun  5 12:52:51 2010


@<TRIPOS>MOLECULE
frag5-530-92/41815 -- energy: -0.196148
   13    13     1     1     1
SMALL
USER_CHARGES


@<TRIPOS>ATOM
      1 Cl1         8.5400   -2.1286    1.2339 Cl         1 <1>        0.000
      2 C1          6.9820   -1.7406    0.5475 C.ar       1 <1>        0.000
      3 C2          5.8296   -2.4043    0.9860 C.ar       1 <1>        0.000
      4 C3          4.5824   -2.0789    0.4564 C.ar       1 <1>        0.000
      5 C4          4.4626   -1.0758   -0.5180 C.ar       1 <1>        0.000
      6 C5          5.6233   -0.4396   -0.9766 C.ar       1 <1>        0.000
      7 C6          6.8708   -0.7623   -0.4473 C.ar       1 <1>        0.000
      8 O1          3.2256   -0.7075   -1.0321 O.3        1 <1>        0.000
      9 H           5.9087   -3.1808    1.7468 H.spc      1 <1>        0.000
     10 H           3.6935   -2.6071    0.8013 H.spc      1 <1>        0.000
     11 H           5.5494    0.3174   -1.7574 H.spc      1 <1>        0.000
     12 H           7.7631   -0.2513   -0.8090 H.spc      1 <1>        0.000
     13 H           3.3449   -0.0111   -1.6820 H.spc      1 <1>        0.000
@<TRIPOS>BOND
     1    1    2 1  
     2    2    3 ar 
     3    2    7 ar 
     4    3    4 ar 
     5    4    5 ar 
     6    5    6 ar 
     7    5    8 1  
     8    6    7 ar 
     9    3    9 1  
    10    4   10 1  
    11    6   11 1  
    12    7   12 1  
    13    8   13 1  
