#      Rotatable Fragment
#      Build by yxyuan
#
# Name:          frag5-499-310/41815
# Creation time: Sat Jun  5 12:52:50 2010


@<TRIPOS>MOLECULE
frag5-499-310/41815
   10    10     1     1     1
SMALL
USER_CHARGES


@<TRIPOS>ATOM
      1 O1          4.9574    1.6679    1.6556 O.3        1 <1>        0.000
      2 C1          5.2873    0.3953    1.0627 C.3        1 <1>        0.000
      3 C2          4.0877    0.0446    0.2170 C.2        1 <1>        0.000
      4 C3          3.1514    0.9892    0.2922 C.2        1 <1>        0.000
      5 C4          3.7466    1.9682    1.1966 C.2        1 <1>        0.000
      6 O2          3.1740    2.9977    1.5139 O.2        1 <1>        0.000
      7 H           5.4893   -0.3649    1.8173 H.spc      1 <1>        0.000
      8 H           6.2012    0.4470    0.4708 H.spc      1 <1>        0.000
      9 H           3.9988   -0.8641   -0.3784 H.spc      1 <1>        0.000
     10 H           2.1797    1.0228   -0.2005 H.spc      1 <1>        0.000
@<TRIPOS>BOND
     1    1    2 1  
     2    1    5 1  
     3    2    3 1  
     4    3    4 2  
     5    4    5 1  
     6    5    6 2  
     7    2    7 1  
     8    2    8 1  
     9    3    9 1  
    10    4   10 1  
# Name:          frag5-499-310/41815 -- energy: -0.428046
# Creation time: Sat Jun  5 12:52:50 2010


@<TRIPOS>MOLECULE
frag5-499-310/41815 -- energy: -0.428046
   10    10     1     1     1
SMALL
USER_CHARGES


@<TRIPOS>ATOM
      1 O1          4.9574    1.6679    1.6556 O.3        1 <1>        0.000
      2 C1          5.2873    0.3953    1.0627 C.3        1 <1>        0.000
      3 C2          4.0877    0.0446    0.2170 C.2        1 <1>        0.000
      4 C3          3.1514    0.9892    0.2922 C.2        1 <1>        0.000
      5 C4          3.7466    1.9682    1.1966 C.2        1 <1>        0.000
      6 O2          3.1740    2.9977    1.5139 O.2        1 <1>        0.000
      7 H           5.4893   -0.3649    1.8173 H.spc      1 <1>        0.000
      8 H           6.2012    0.4470    0.4708 H.spc      1 <1>        0.000
      9 H           3.9988   -0.8641   -0.3784 H.spc      1 <1>        0.000
     10 H           2.1797    1.0228   -0.2005 H.spc      1 <1>        0.000
@<TRIPOS>BOND
     1    1    2 1  
     2    1    5 1  
     3    2    3 1  
     4    3    4 2  
     5    4    5 1  
     6    5    6 2  
     7    2    7 1  
     8    2    8 1  
     9    3    9 1  
    10    4   10 1  
