#      Rotatable Fragment
#      Build by yxyuan
#
# Name:          frag4-486-32/48856
# Creation time: Sat Jun  5 12:52:49 2010


@<TRIPOS>MOLECULE
frag4-486-32/48856
   43    46     1     1     1
SMALL
USER_CHARGES


@<TRIPOS>ATOM
      1 C1         -3.5391   -0.1428    0.0051 C.3        1 <1>        0.000
      2 C2         -3.1753   -0.9941    1.2355 C.3        1 <1>        0.000
      3 C3         -1.6897   -1.3783    1.1559 C.3        1 <1>        0.000
      4 C4         -0.7761   -0.1247    1.1874 C.3        1 <1>        0.000
      5 C5          0.6650   -0.4451    0.6873 C.3        1 <1>        0.000
      6 C6          1.3455   -1.5845    1.5023 C.3        1 <1>        0.000
      7 C7          2.7891   -1.8778    1.0370 C.3        1 <1>        0.000
      8 C17        -0.5015    2.2789    0.3181 C.3        1 <1>        0.000
      9 C8          3.6132   -0.5804    1.0913 C.3        1 <1>        0.000
     10 C9          2.9761    0.4897    0.1884 C.3        1 <1>        0.000
     11 C10         4.0406    1.6040    0.2206 C.3        1 <1>        0.000
     12 C11         5.3947    0.8488    0.2872 C.3        1 <1>        0.000
     13 C12         5.0515   -0.6378    0.5525 C.3        1 <1>        0.000
     14 C15         1.5510    0.8360    0.6768 C.3        1 <1>        0.000
     15 C16         0.9033    1.9279   -0.2015 C.3        1 <1>        0.000
     16 C18        -1.3688    1.0492    0.4223 C.2        1 <1>        0.000
     17 C19        -2.5986    1.0206   -0.1223 C.2        1 <1>        0.000
     18 H          -4.5556    0.2332    0.1213 H.spc      1 <1>        0.000
     19 H          -3.4629   -0.7608   -0.8895 H.spc      1 <1>        0.000
     20 H          -3.7878   -1.8955    1.2531 H.spc      1 <1>        0.000
     21 H          -3.3591   -0.4227    2.1454 H.spc      1 <1>        0.000
     22 H          -1.4481   -2.0035    2.0155 H.spc      1 <1>        0.000
     23 H          -1.5193   -1.9064    0.2177 H.spc      1 <1>        0.000
     24 H          -0.7094    0.1751    2.2332 H.spc      1 <1>        0.000
     25 H           0.5658   -0.8073   -0.3360 H.spc      1 <1>        0.000
     26 H           1.3897   -1.2675    2.5442 H.spc      1 <1>        0.000
     27 H           0.7590   -2.4920    1.3591 H.spc      1 <1>        0.000
     28 H           3.2393   -2.6241    1.6916 H.spc      1 <1>        0.000
     29 H           2.7734   -2.2580    0.0156 H.spc      1 <1>        0.000
     30 H          -0.4048    2.7210    1.3097 H.spc      1 <1>        0.000
     31 H          -0.9668    2.9741   -0.3807 H.spc      1 <1>        0.000
     32 H           3.6288   -0.3765    2.1619 H.spc      1 <1>        0.000
     33 H           2.7716    0.2087   -0.8447 H.spc      1 <1>        0.000
     34 H           3.9781    2.2530   -0.6529 H.spc      1 <1>        0.000
     35 H           3.9047    2.2734    1.0701 H.spc      1 <1>        0.000
     36 H           5.9527    0.9622   -0.6423 H.spc      1 <1>        0.000
     37 H           6.0294    1.2513    1.0767 H.spc      1 <1>        0.000
     38 H           5.7422   -1.1087    1.2520 H.spc      1 <1>        0.000
     39 H           5.1392   -1.2540   -0.3423 H.spc      1 <1>        0.000
     40 H           1.6277    1.2278    1.6911 H.spc      1 <1>        0.000
     41 H           1.5254    2.8223   -0.1688 H.spc      1 <1>        0.000
     42 H           0.8192    1.5557   -1.2225 H.spc      1 <1>        0.000
     43 H          -2.9310    1.8911   -0.6879 H.spc      1 <1>        0.000
@<TRIPOS>BOND
     1    1    2 1  
     2    3    4 1  
     3    1   17 1  
     4    2    3 1  
     5   16   17 2  
     6    8   16 1  
     7   15    8 1  
     8   14   15 1  
     9   12   13 1  
    10   11   12 1  
    11   10   14 1  
    12   10   11 1  
    13    9   13 1  
    14    9   10 1  
    15    7    9 1  
    16    6    7 1  
    17    5   14 1  
    18    5    6 1  
    19    4   16 1  
    20    4    5 1  
    21    1   18 1  
    22    1   19 1  
    23    2   20 1  
    24    2   21 1  
    25    3   22 1  
    26    3   23 1  
    27    4   24 1  
    28    5   25 1  
    29    6   26 1  
    30    6   27 1  
    31    7   28 1  
    32    7   29 1  
    33    8   30 1  
    34    8   31 1  
    35    9   32 1  
    36   10   33 1  
    37   11   34 1  
    38   11   35 1  
    39   12   36 1  
    40   12   37 1  
    41   13   38 1  
    42   13   39 1  
    43   14   40 1  
    44   15   41 1  
    45   15   42 1  
    46   17   43 1  
# Name:          frag4-486-32/48856 -- energy: -7.901281
# Creation time: Sat Jun  5 12:52:49 2010


@<TRIPOS>MOLECULE
frag4-486-32/48856 -- energy: -7.901281
   43    46     1     1     1
SMALL
USER_CHARGES


@<TRIPOS>ATOM
      1 C1         -3.5391   -0.1428    0.0051 C.3        1 <1>        0.000
      2 C2         -3.1753   -0.9941    1.2355 C.3        1 <1>        0.000
      3 C3         -1.6897   -1.3783    1.1559 C.3        1 <1>        0.000
      4 C4         -0.7761   -0.1247    1.1874 C.3        1 <1>        0.000
      5 C5          0.6650   -0.4451    0.6873 C.3        1 <1>        0.000
      6 C6          1.3455   -1.5845    1.5023 C.3        1 <1>        0.000
      7 C7          2.7891   -1.8778    1.0370 C.3        1 <1>        0.000
      8 C17        -0.5015    2.2789    0.3181 C.3        1 <1>        0.000
      9 C8          3.6132   -0.5804    1.0913 C.3        1 <1>        0.000
     10 C9          2.9761    0.4897    0.1884 C.3        1 <1>        0.000
     11 C10         4.0406    1.6040    0.2206 C.3        1 <1>        0.000
     12 C11         5.3947    0.8488    0.2872 C.3        1 <1>        0.000
     13 C12         5.0515   -0.6378    0.5525 C.3        1 <1>        0.000
     14 C15         1.5510    0.8360    0.6768 C.3        1 <1>        0.000
     15 C16         0.9033    1.9279   -0.2015 C.3        1 <1>        0.000
     16 C18        -1.3688    1.0492    0.4223 C.2        1 <1>        0.000
     17 C19        -2.5986    1.0206   -0.1223 C.2        1 <1>        0.000
     18 H          -4.5556    0.2332    0.1213 H.spc      1 <1>        0.000
     19 H          -3.4629   -0.7608   -0.8895 H.spc      1 <1>        0.000
     20 H          -3.7878   -1.8955    1.2531 H.spc      1 <1>        0.000
     21 H          -3.3591   -0.4227    2.1454 H.spc      1 <1>        0.000
     22 H          -1.4481   -2.0035    2.0155 H.spc      1 <1>        0.000
     23 H          -1.5193   -1.9064    0.2177 H.spc      1 <1>        0.000
     24 H          -0.7094    0.1751    2.2332 H.spc      1 <1>        0.000
     25 H           0.5658   -0.8073   -0.3360 H.spc      1 <1>        0.000
     26 H           1.3897   -1.2675    2.5442 H.spc      1 <1>        0.000
     27 H           0.7590   -2.4920    1.3591 H.spc      1 <1>        0.000
     28 H           3.2393   -2.6241    1.6916 H.spc      1 <1>        0.000
     29 H           2.7734   -2.2580    0.0156 H.spc      1 <1>        0.000
     30 H          -0.4048    2.7210    1.3097 H.spc      1 <1>        0.000
     31 H          -0.9668    2.9741   -0.3807 H.spc      1 <1>        0.000
     32 H           3.6288   -0.3765    2.1619 H.spc      1 <1>        0.000
     33 H           2.7716    0.2087   -0.8447 H.spc      1 <1>        0.000
     34 H           3.9781    2.2530   -0.6529 H.spc      1 <1>        0.000
     35 H           3.9047    2.2734    1.0701 H.spc      1 <1>        0.000
     36 H           5.9527    0.9622   -0.6423 H.spc      1 <1>        0.000
     37 H           6.0294    1.2513    1.0767 H.spc      1 <1>        0.000
     38 H           5.7422   -1.1087    1.2520 H.spc      1 <1>        0.000
     39 H           5.1392   -1.2540   -0.3423 H.spc      1 <1>        0.000
     40 H           1.6277    1.2278    1.6911 H.spc      1 <1>        0.000
     41 H           1.5254    2.8223   -0.1688 H.spc      1 <1>        0.000
     42 H           0.8192    1.5557   -1.2225 H.spc      1 <1>        0.000
     43 H          -2.9310    1.8911   -0.6879 H.spc      1 <1>        0.000
@<TRIPOS>BOND
     1    1    2 1  
     2    3    4 1  
     3    1   17 1  
     4    2    3 1  
     5   16   17 2  
     6    8   16 1  
     7   15    8 1  
     8   14   15 1  
     9   12   13 1  
    10   11   12 1  
    11   10   14 1  
    12   10   11 1  
    13    9   13 1  
    14    9   10 1  
    15    7    9 1  
    16    6    7 1  
    17    5   14 1  
    18    5    6 1  
    19    4   16 1  
    20    4    5 1  
    21    1   18 1  
    22    1   19 1  
    23    2   20 1  
    24    2   21 1  
    25    3   22 1  
    26    3   23 1  
    27    4   24 1  
    28    5   25 1  
    29    6   26 1  
    30    6   27 1  
    31    7   28 1  
    32    7   29 1  
    33    8   30 1  
    34    8   31 1  
    35    9   32 1  
    36   10   33 1  
    37   11   34 1  
    38   11   35 1  
    39   12   36 1  
    40   12   37 1  
    41   13   38 1  
    42   13   39 1  
    43   14   40 1  
    44   15   41 1  
    45   15   42 1  
    46   17   43 1  
