#      Rotatable Fragment
#      Build by yxyuan
#
# Name:          frag3-137-25/31924
# Creation time: Sat Jun  5 12:52:03 2010


@<TRIPOS>MOLECULE
frag3-137-25/31924
    8     7     1     1     1
SMALL
USER_CHARGES


@<TRIPOS>ATOM
      1 C33        -7.1711    0.2461   -1.9469 C.2        1 <1>        0.000
      2 O8         -7.1553    1.0296   -1.0033 O.2        1 <1>        0.000
      3 N6         -7.6499    0.4963   -3.1891 N.am       1 <1>        0.000
      4 N7         -7.5575   -0.4023   -4.2235 N.3        1 <1>        0.000
      5 H          -6.7601   -0.7476   -1.7686 H.spc      1 <1>        0.000
      6 H          -8.1003    1.3945   -3.3645 H.spc      1 <1>        0.000
      7 H          -7.9828   -0.0015   -5.0595 H.spc      1 <1>        0.000
      8 H          -6.5755   -0.6091   -4.4060 H.spc      1 <1>        0.000
@<TRIPOS>BOND
     1    1    2 2  
     2    1    3 am 
     3    3    4 1  
     4    1    5 1  
     5    3    6 1  
     6    4    7 1  
     7    4    8 1  
# Name:          frag3-137-25/31924
# Creation time: Sat Jun  5 12:52:03 2010


@<TRIPOS>MOLECULE
frag3-137-25/31924
    8     7     1     1     1
SMALL
USER_CHARGES


@<TRIPOS>ATOM
      1 C33        -7.7666    0.5903   -1.8530 C.2        1 <1>        0.000
      2 O8         -6.6513    0.6854   -1.3694 O.2        1 <1>        0.000
      3 N6         -8.0168    0.3738   -3.1757 N.am       1 <1>        0.000
      4 N7         -7.0991   -0.2799   -3.9646 N.3        1 <1>        0.000
      5 H          -8.6210    0.6847   -1.1828 H.spc      1 <1>        0.000
      6 H          -8.8928    0.6997   -3.5841 H.spc      1 <1>        0.000
      7 H          -7.4582   -0.3478   -4.9169 H.spc      1 <1>        0.000
      8 H          -6.2222    0.2411   -3.9670 H.spc      1 <1>        0.000
@<TRIPOS>BOND
     1    1    2 2  
     2    1    3 am 
     3    3    4 1  
     4    1    5 1  
     5    3    6 1  
     6    4    7 1  
     7    4    8 1  
# Name:          frag3-137-25/31924 -- energy: -0.239379
# Creation time: Sat Jun  5 12:52:03 2010


@<TRIPOS>MOLECULE
frag3-137-25/31924 -- energy: -0.239379
    8     7     1     1     1
SMALL
USER_CHARGES


@<TRIPOS>ATOM
      1 C33        -7.1711    0.2461   -1.9469 C.2        1 <1>        0.000
      2 O8         -7.1553    1.0296   -1.0033 O.2        1 <1>        0.000
      3 N6         -7.6499    0.4963   -3.1891 N.am       1 <1>        0.000
      4 N7         -7.5575   -0.4023   -4.2235 N.3        1 <1>        0.000
      5 H          -6.7601   -0.7476   -1.7686 H.spc      1 <1>        0.000
      6 H          -8.1003    1.3945   -3.3645 H.spc      1 <1>        0.000
      7 H          -7.9828   -0.0015   -5.0595 H.spc      1 <1>        0.000
      8 H          -6.5755   -0.6091   -4.4060 H.spc      1 <1>        0.000
@<TRIPOS>BOND
     1    1    2 2  
     2    1    3 am 
     3    3    4 1  
     4    1    5 1  
     5    3    6 1  
     6    4    7 1  
     7    4    8 1  
# Name:          frag3-137-25/31924 -- energy: -0.252046
# Creation time: Sat Jun  5 12:52:03 2010


@<TRIPOS>MOLECULE
frag3-137-25/31924 -- energy: -0.252046
    8     7     1     1     1
SMALL
USER_CHARGES


@<TRIPOS>ATOM
      1 C33        -7.7666    0.5903   -1.8530 C.2        1 <1>        0.000
      2 O8         -6.6513    0.6854   -1.3694 O.2        1 <1>        0.000
      3 N6         -8.0168    0.3738   -3.1757 N.am       1 <1>        0.000
      4 N7         -7.0991   -0.2799   -3.9646 N.3        1 <1>        0.000
      5 H          -8.6210    0.6847   -1.1828 H.spc      1 <1>        0.000
      6 H          -8.8928    0.6997   -3.5841 H.spc      1 <1>        0.000
      7 H          -7.4582   -0.3478   -4.9169 H.spc      1 <1>        0.000
      8 H          -6.2222    0.2411   -3.9670 H.spc      1 <1>        0.000
@<TRIPOS>BOND
     1    1    2 2  
     2    1    3 am 
     3    3    4 1  
     4    1    5 1  
     5    3    6 1  
     6    4    7 1  
     7    4    8 1  
