#      Rotatable Fragment
#      Build by yxyuan
#
# Name:          frag4-302-616/48856
# Creation time: Sat Jun  5 12:52:47 2010


@<TRIPOS>MOLECULE
frag4-302-616/48856
    9     9     1     1     1
SMALL
USER_CHARGES


@<TRIPOS>ATOM
      1 C9          1.5396   -1.1240   -1.1346 C.3        1 <1>        0.000
      2 C10         2.6319   -1.6372   -2.0960 C.3        1 <1>        0.000
      3 C11         1.5184   -0.7068   -2.6200 C.3        1 <1>        0.000
      4 H           1.4688   -0.6559   -0.1528 H.spc      1 <1>        0.000
      5 H           0.8538   -1.5243   -0.3879 H.spc      1 <1>        0.000
      6 H           3.1035   -2.5815   -2.3681 H.spc      1 <1>        0.000
      7 H           3.7186   -1.7128   -2.1329 H.spc      1 <1>        0.000
      8 H           1.4251    0.2036   -3.2122 H.spc      1 <1>        0.000
      9 H           0.8100   -0.6651   -3.4474 H.spc      1 <1>        0.000
@<TRIPOS>BOND
     1    1    2 1  
     2    1    3 1  
     3    2    3 1  
     4    1    4 1  
     5    1    5 1  
     6    2    6 1  
     7    2    7 1  
     8    3    8 1  
     9    3    9 1  
# Name:          frag4-302-616/48856 -- energy: -0.073677
# Creation time: Sat Jun  5 12:52:47 2010


@<TRIPOS>MOLECULE
frag4-302-616/48856 -- energy: -0.073677
    9     9     1     1     1
SMALL
USER_CHARGES


@<TRIPOS>ATOM
      1 C9          1.5396   -1.1240   -1.1346 C.3        1 <1>        0.000
      2 C10         2.6319   -1.6372   -2.0960 C.3        1 <1>        0.000
      3 C11         1.5184   -0.7068   -2.6200 C.3        1 <1>        0.000
      4 H           1.4688   -0.6559   -0.1528 H.spc      1 <1>        0.000
      5 H           0.8538   -1.5243   -0.3879 H.spc      1 <1>        0.000
      6 H           3.1035   -2.5815   -2.3681 H.spc      1 <1>        0.000
      7 H           3.7186   -1.7128   -2.1329 H.spc      1 <1>        0.000
      8 H           1.4251    0.2036   -3.2122 H.spc      1 <1>        0.000
      9 H           0.8100   -0.6651   -3.4474 H.spc      1 <1>        0.000
@<TRIPOS>BOND
     1    1    2 1  
     2    1    3 1  
     3    2    3 1  
     4    1    4 1  
     5    1    5 1  
     6    2    6 1  
     7    2    7 1  
     8    3    8 1  
     9    3    9 1  
