#      Rotatable Fragment
#      Build by yxyuan
#
# Name:          frag3-094-1481/96164
# Creation time: Sat Jun  5 12:52:41 2010


@<TRIPOS>MOLECULE
frag3-094-1481/96164
    7     6     1     1     1
SMALL
USER_CHARGES


@<TRIPOS>ATOM
      1 C13         1.0117   -0.1537    0.0404 C.2        1 <1>        0.000
      2 N1         -0.2605    0.3071   -0.0552 N.am       1 <1>        0.000
      3 O1          1.9881    0.5750    0.1938 O.2        1 <1>        0.000
      4 O2         -1.3218   -0.5106   -0.1690 O.3        1 <1>        0.000
      5 H           1.1763   -1.2294   -0.0224 H.spc      1 <1>        0.000
      6 H          -0.4184    1.3147   -0.0402 H.spc      1 <1>        0.000
      7 H          -2.1241    0.0138   -0.2227 H.spc      1 <1>        0.000
@<TRIPOS>BOND
     1    1    2 am 
     2    1    3 2  
     3    2    4 1  
     4    1    5 1  
     5    2    6 1  
     6    4    7 1  
# Name:          frag3-094-1481/96164
# Creation time: Sat Jun  5 12:52:41 2010


@<TRIPOS>MOLECULE
frag3-094-1481/96164
    7     6     1     1     1
SMALL
USER_CHARGES


@<TRIPOS>ATOM
      1 C13         1.0454    0.4057   -0.3820 C.2        1 <1>        0.000
      2 N1         -0.3036    0.3258   -0.4849 N.am       1 <1>        0.000
      3 O1          1.6668    0.0622    0.5948 O.2        1 <1>        0.000
      4 O2         -0.9911   -0.5759    0.2821 O.3        1 <1>        0.000
      5 H           1.6021    0.8033   -1.2306 H.spc      1 <1>        0.000
      6 H          -0.8047    0.9352   -1.1314 H.spc      1 <1>        0.000
      7 H          -1.9295   -0.5066    0.0916 H.spc      1 <1>        0.000
@<TRIPOS>BOND
     1    1    2 am 
     2    1    3 2  
     3    2    4 1  
     4    1    5 1  
     5    2    6 1  
     6    4    7 1  
# Name:          frag3-094-1481/96164 -- energy: -0.154427
# Creation time: Sat Jun  5 12:52:41 2010


@<TRIPOS>MOLECULE
frag3-094-1481/96164 -- energy: -0.154427
    7     6     1     1     1
SMALL
USER_CHARGES


@<TRIPOS>ATOM
      1 C13         1.0117   -0.1537    0.0404 C.2        1 <1>        0.000
      2 N1         -0.2605    0.3071   -0.0552 N.am       1 <1>        0.000
      3 O1          1.9881    0.5750    0.1938 O.2        1 <1>        0.000
      4 O2         -1.3218   -0.5106   -0.1690 O.3        1 <1>        0.000
      5 H           1.1763   -1.2294   -0.0224 H.spc      1 <1>        0.000
      6 H          -0.4184    1.3147   -0.0402 H.spc      1 <1>        0.000
      7 H          -2.1241    0.0138   -0.2227 H.spc      1 <1>        0.000
@<TRIPOS>BOND
     1    1    2 am 
     2    1    3 2  
     3    2    4 1  
     4    1    5 1  
     5    2    6 1  
     6    4    7 1  
# Name:          frag3-094-1481/96164 -- energy: -0.146153
# Creation time: Sat Jun  5 12:52:41 2010


@<TRIPOS>MOLECULE
frag3-094-1481/96164 -- energy: -0.146153
    7     6     1     1     1
SMALL
USER_CHARGES


@<TRIPOS>ATOM
      1 C13         1.0454    0.4057   -0.3820 C.2        1 <1>        0.000
      2 N1         -0.3036    0.3258   -0.4849 N.am       1 <1>        0.000
      3 O1          1.6668    0.0622    0.5948 O.2        1 <1>        0.000
      4 O2         -0.9911   -0.5759    0.2821 O.3        1 <1>        0.000
      5 H           1.6021    0.8033   -1.2306 H.spc      1 <1>        0.000
      6 H          -0.8047    0.9352   -1.1314 H.spc      1 <1>        0.000
      7 H          -1.9295   -0.5066    0.0916 H.spc      1 <1>        0.000
@<TRIPOS>BOND
     1    1    2 am 
     2    1    3 2  
     3    2    4 1  
     4    1    5 1  
     5    2    6 1  
     6    4    7 1  
