#      Rotatable Fragment
#      Build by yxyuan
#
# Name:          frag5-659-25/41815
# Creation time: Sat Jun  5 12:53:02 2010


@<TRIPOS>MOLECULE
frag5-659-25/41815
   18    19     1     1     1
SMALL
USER_CHARGES


@<TRIPOS>ATOM
      1 C20         1.5969    1.1285   -0.2027 C.ar       1 <1>        0.000
      2 C21         0.3508    0.4933   -0.1000 C.ar       1 <1>        0.000
      3 C22         0.3118   -0.8797    0.1461 C.ar       1 <1>        0.000
      4 N3          1.4641   -1.5726    0.2802 N.ar       1 <1>        0.000
      5 C23         2.6743   -0.9806    0.1888 C.ar       1 <1>        0.000
      6 C24         2.7603    0.3818   -0.0562 C.ar       1 <1>        0.000
      7 C25        -0.9189   -1.5295    0.2520 C.ar       1 <1>        0.000
      8 C26        -2.1146   -0.8102    0.1113 C.ar       1 <1>        0.000
      9 C27        -2.0789    0.5641   -0.1350 C.ar       1 <1>        0.000
     10 C28        -0.8522    1.2152   -0.2401 C.ar       1 <1>        0.000
     11 O4         -3.2631    1.2867   -0.2759 O.3        1 <1>        0.000
     12 H           1.6528    2.1998   -0.3960 H.spc      1 <1>        0.000
     13 H           3.5820   -1.5724    0.3074 H.spc      1 <1>        0.000
     14 H           3.7346    0.8643   -0.1334 H.spc      1 <1>        0.000
     15 H          -0.9509   -2.6018    0.4451 H.spc      1 <1>        0.000
     16 H          -3.0723   -1.3240    0.1942 H.spc      1 <1>        0.000
     17 H          -0.8220    2.2878   -0.4316 H.spc      1 <1>        0.000
     18 H          -4.0119    0.6942   -0.1768 H.spc      1 <1>        0.000
@<TRIPOS>BOND
     1    7    8 ar 
     2    5    6 ar 
     3    9   11 1  
     4    9   10 ar 
     5    8    9 ar 
     6    1    2 ar 
     7    1    6 ar 
     8    2    3 ar 
     9    2   10 ar 
    10    3    4 ar 
    11    3    7 ar 
    12    4    5 ar 
    13    1   12 1  
    14    5   13 1  
    15    6   14 1  
    16    7   15 1  
    17    8   16 1  
    18   10   17 1  
    19   11   18 1  
# Name:          frag5-659-25/41815 -- energy: -0.229654
# Creation time: Sat Jun  5 12:53:02 2010


@<TRIPOS>MOLECULE
frag5-659-25/41815 -- energy: -0.229654
   18    19     1     1     1
SMALL
USER_CHARGES


@<TRIPOS>ATOM
      1 C20         1.5969    1.1285   -0.2027 C.ar       1 <1>        0.000
      2 C21         0.3508    0.4933   -0.1000 C.ar       1 <1>        0.000
      3 C22         0.3118   -0.8797    0.1461 C.ar       1 <1>        0.000
      4 N3          1.4641   -1.5726    0.2802 N.ar       1 <1>        0.000
      5 C23         2.6743   -0.9806    0.1888 C.ar       1 <1>        0.000
      6 C24         2.7603    0.3818   -0.0562 C.ar       1 <1>        0.000
      7 C25        -0.9189   -1.5295    0.2520 C.ar       1 <1>        0.000
      8 C26        -2.1146   -0.8102    0.1113 C.ar       1 <1>        0.000
      9 C27        -2.0789    0.5641   -0.1350 C.ar       1 <1>        0.000
     10 C28        -0.8522    1.2152   -0.2401 C.ar       1 <1>        0.000
     11 O4         -3.2631    1.2867   -0.2759 O.3        1 <1>        0.000
     12 H           1.6528    2.1998   -0.3960 H.spc      1 <1>        0.000
     13 H           3.5820   -1.5724    0.3074 H.spc      1 <1>        0.000
     14 H           3.7346    0.8643   -0.1334 H.spc      1 <1>        0.000
     15 H          -0.9509   -2.6018    0.4451 H.spc      1 <1>        0.000
     16 H          -3.0723   -1.3240    0.1942 H.spc      1 <1>        0.000
     17 H          -0.8220    2.2878   -0.4316 H.spc      1 <1>        0.000
     18 H          -4.0119    0.6942   -0.1768 H.spc      1 <1>        0.000
@<TRIPOS>BOND
     1    7    8 ar 
     2    5    6 ar 
     3    9   11 1  
     4    9   10 ar 
     5    8    9 ar 
     6    1    2 ar 
     7    1    6 ar 
     8    2    3 ar 
     9    2   10 ar 
    10    3    4 ar 
    11    3    7 ar 
    12    4    5 ar 
    13    1   12 1  
    14    5   13 1  
    15    6   14 1  
    16    7   15 1  
    17    8   16 1  
    18   10   17 1  
    19   11   18 1  
