#      Rotatable Fragment
#      Build by yxyuan
#
# Name:          frag2-028-3320/319335
# Creation time: Sat Jun  5 12:53:29 2010


@<TRIPOS>MOLECULE
frag2-028-3320/319335
   18    19     1     1     1
SMALL
USER_CHARGES


@<TRIPOS>ATOM
      1 C1         -0.0120    0.6947   -0.0961 C.ar       1 <1>        0.000
      2 C2          1.1980    1.3928   -0.2271 C.ar       1 <1>        0.000
      3 C3          0.0112   -0.6951    0.0960 C.ar       1 <1>        0.000
      4 C4         -1.2433    1.3617   -0.1543 C.ar       1 <1>        0.000
      5 C6          2.4148    0.7193   -0.1683 C.ar       1 <1>        0.000
      6 C7          1.2429   -1.3619    0.1532 C.ar       1 <1>        0.000
      7 C8         -1.1971   -1.3918    0.2269 C.ar       1 <1>        0.000
      8 C9         -2.4387    0.6569   -0.0219 C.ar       1 <1>        0.000
      9 C11         2.4378   -0.6568    0.0228 C.ar       1 <1>        0.000
     10 C12        -2.4142   -0.7186    0.1692 C.ar       1 <1>        0.000
     11 H           1.1851    2.4725   -0.3763 H.spc      1 <1>        0.000
     12 H          -1.2664    2.4411   -0.3044 H.spc      1 <1>        0.000
     13 H           3.3491    1.2711   -0.2721 H.spc      1 <1>        0.000
     14 H           1.2662   -2.4416    0.3010 H.spc      1 <1>        0.000
     15 H          -1.1841   -2.4716    0.3754 H.spc      1 <1>        0.000
     16 H          -3.3913    1.1846   -0.0683 H.spc      1 <1>        0.000
     17 H           3.3903   -1.1847    0.0707 H.spc      1 <1>        0.000
     18 H          -3.3480   -1.2710    0.2740 H.spc      1 <1>        0.000
@<TRIPOS>BOND
     1    5    9 ar 
     2    8   10 ar 
     3    7   10 ar 
     4    6    9 ar 
     5    1    2 ar 
     6    1    4 ar 
     7    1    3 ar 
     8    2    5 ar 
     9    3    6 ar 
    10    3    7 ar 
    11    4    8 ar 
    12    2   11 1  
    13    4   12 1  
    14    5   13 1  
    15    6   14 1  
    16    7   15 1  
    17    8   16 1  
    18    9   17 1  
    19   10   18 1  
# Name:          frag2-028-3320/319335 -- energy: -0.253311
# Creation time: Sat Jun  5 12:53:29 2010


@<TRIPOS>MOLECULE
frag2-028-3320/319335 -- energy: -0.253311
   18    19     1     1     1
SMALL
USER_CHARGES


@<TRIPOS>ATOM
      1 C1         -0.0120    0.6947   -0.0961 C.ar       1 <1>        0.000
      2 C2          1.1980    1.3928   -0.2271 C.ar       1 <1>        0.000
      3 C3          0.0112   -0.6951    0.0960 C.ar       1 <1>        0.000
      4 C4         -1.2433    1.3617   -0.1543 C.ar       1 <1>        0.000
      5 C6          2.4148    0.7193   -0.1683 C.ar       1 <1>        0.000
      6 C7          1.2429   -1.3619    0.1532 C.ar       1 <1>        0.000
      7 C8         -1.1971   -1.3918    0.2269 C.ar       1 <1>        0.000
      8 C9         -2.4387    0.6569   -0.0219 C.ar       1 <1>        0.000
      9 C11         2.4378   -0.6568    0.0228 C.ar       1 <1>        0.000
     10 C12        -2.4142   -0.7186    0.1692 C.ar       1 <1>        0.000
     11 H           1.1851    2.4725   -0.3763 H.spc      1 <1>        0.000
     12 H          -1.2664    2.4411   -0.3044 H.spc      1 <1>        0.000
     13 H           3.3491    1.2711   -0.2721 H.spc      1 <1>        0.000
     14 H           1.2662   -2.4416    0.3010 H.spc      1 <1>        0.000
     15 H          -1.1841   -2.4716    0.3754 H.spc      1 <1>        0.000
     16 H          -3.3913    1.1846   -0.0683 H.spc      1 <1>        0.000
     17 H           3.3903   -1.1847    0.0707 H.spc      1 <1>        0.000
     18 H          -3.3480   -1.2710    0.2740 H.spc      1 <1>        0.000
@<TRIPOS>BOND
     1    5    9 ar 
     2    8   10 ar 
     3    7   10 ar 
     4    6    9 ar 
     5    1    2 ar 
     6    1    4 ar 
     7    1    3 ar 
     8    2    5 ar 
     9    3    6 ar 
    10    3    7 ar 
    11    4    8 ar 
    12    2   11 1  
    13    4   12 1  
    14    5   13 1  
    15    6   14 1  
    16    7   15 1  
    17    8   16 1  
    18    9   17 1  
    19   10   18 1  
