#      Rotatable Fragment
#      Build by yxyuan
#
# Name:          frag5-669-24/41815
# Creation time: Sat Jun  5 12:53:03 2010


@<TRIPOS>MOLECULE
frag5-669-24/41815
   13    13     1     1     1
SMALL
USER_CHARGES


@<TRIPOS>ATOM
      1 C9         -1.2236    0.9821    0.2689 C.ar       1 <1>        0.000
      2 C10         0.1528    1.2392    0.1152 C.ar       1 <1>        0.000
      3 C11         1.0734    0.2043   -0.1159 C.ar       1 <1>        0.000
      4 C12         0.5681   -1.1046   -0.1890 C.ar       1 <1>        0.000
      5 C13        -0.8076   -1.3711   -0.0370 C.ar       1 <1>        0.000
      6 C14        -1.7034   -0.3261    0.1929 C.ar       1 <1>        0.000
      7 C15         2.4609    0.4710   -0.2772 C.1        1 <1>        0.000
      8 N2          3.5825    0.7106   -0.4126 N.1        1 <1>        0.000
      9 H          -1.9147    1.8059    0.4474 H.spc      1 <1>        0.000
     10 H           0.5120    2.2664    0.1772 H.spc      1 <1>        0.000
     11 H           1.2549   -1.9320   -0.3671 H.spc      1 <1>        0.000
     12 H          -1.1728   -2.3962   -0.0992 H.spc      1 <1>        0.000
     13 H          -2.7676   -0.5297    0.3120 H.spc      1 <1>        0.000
@<TRIPOS>BOND
     1    1    2 ar 
     2    1    6 ar 
     3    2    3 ar 
     4    3    4 ar 
     5    3    7 1  
     6    4    5 ar 
     7    5    6 ar 
     8    7    8 3  
     9    1    9 1  
    10    2   10 1  
    11    4   11 1  
    12    5   12 1  
    13    6   13 1  
# Name:          frag5-669-24/41815 -- energy: -0.184536
# Creation time: Sat Jun  5 12:53:03 2010


@<TRIPOS>MOLECULE
frag5-669-24/41815 -- energy: -0.184536
   13    13     1     1     1
SMALL
USER_CHARGES


@<TRIPOS>ATOM
      1 C9         -1.2236    0.9821    0.2689 C.ar       1 <1>        0.000
      2 C10         0.1528    1.2392    0.1152 C.ar       1 <1>        0.000
      3 C11         1.0734    0.2043   -0.1159 C.ar       1 <1>        0.000
      4 C12         0.5681   -1.1046   -0.1890 C.ar       1 <1>        0.000
      5 C13        -0.8076   -1.3711   -0.0370 C.ar       1 <1>        0.000
      6 C14        -1.7034   -0.3261    0.1929 C.ar       1 <1>        0.000
      7 C15         2.4609    0.4710   -0.2772 C.1        1 <1>        0.000
      8 N2          3.5825    0.7106   -0.4126 N.1        1 <1>        0.000
      9 H          -1.9147    1.8059    0.4474 H.spc      1 <1>        0.000
     10 H           0.5120    2.2664    0.1772 H.spc      1 <1>        0.000
     11 H           1.2549   -1.9320   -0.3671 H.spc      1 <1>        0.000
     12 H          -1.1728   -2.3962   -0.0992 H.spc      1 <1>        0.000
     13 H          -2.7676   -0.5297    0.3120 H.spc      1 <1>        0.000
@<TRIPOS>BOND
     1    1    2 ar 
     2    1    6 ar 
     3    2    3 ar 
     4    3    4 ar 
     5    3    7 1  
     6    4    5 ar 
     7    5    6 ar 
     8    7    8 3  
     9    1    9 1  
    10    2   10 1  
    11    4   11 1  
    12    5   12 1  
    13    6   13 1  
