#      Rotatable Fragment
#      Build by yxyuan
#
# Name:          frag3-220-6/96164
# Creation time: Sat Jun  5 12:53:13 2010


@<TRIPOS>MOLECULE
frag3-220-6/96164
   18    17     1     1     1
SMALL
USER_CHARGES


@<TRIPOS>ATOM
      1 C26         4.6293    2.4779   -1.1135 C.2        1 <1>        0.000
      2 C28         4.5670    2.3315    0.2143 C.2        1 <1>        0.000
      3 C29         3.3543    2.5094    1.0098 C.2        1 <1>        0.000
      4 C30         3.2769    2.3019    2.3303 C.2        1 <1>        0.000
      5 C31         2.0680    2.4453    3.1378 C.2        1 <1>        0.000
      6 C32         1.9778    2.4789    4.4808 C.2        1 <1>        0.000
      7 C33         3.0850    2.3392    5.4553 C.2        1 <1>        0.000
      8 N2          2.8824    2.6785    6.7432 N.am       1 <1>        0.000
      9 O10         4.1679    1.9028    5.1011 O.2        1 <1>        0.000
     10 H           3.7347    2.7479   -1.6746 H.spc      1 <1>        0.000
     11 H           5.5747    2.3272   -1.6347 H.spc      1 <1>        0.000
     12 H           5.4834    2.0610    0.7389 H.spc      1 <1>        0.000
     13 H           2.4509    2.8332    0.4929 H.spc      1 <1>        0.000
     14 H           4.1899    2.0016    2.8445 H.spc      1 <1>        0.000
     15 H           1.1303    2.5356    2.5895 H.spc      1 <1>        0.000
     16 H           0.9809    2.6249    4.8967 H.spc      1 <1>        0.000
     17 H           3.6348    2.5707    7.4234 H.spc      1 <1>        0.000
     18 H           1.9766    3.0432    7.0381 H.spc      1 <1>        0.000
@<TRIPOS>BOND
     1    6    7 1  
     2    7    8 am 
     3    5    6 2  
     4    7    9 2  
     5    1    2 2  
     6    2    3 1  
     7    3    4 2  
     8    4    5 1  
     9    1   10 1  
    10    1   11 1  
    11    2   12 1  
    12    3   13 1  
    13    4   14 1  
    14    5   15 1  
    15    6   16 1  
    16    8   17 1  
    17    8   18 1  
# Name:          frag3-220-6/96164
# Creation time: Sat Jun  5 12:53:13 2010


@<TRIPOS>MOLECULE
frag3-220-6/96164
   18    17     1     1     1
SMALL
USER_CHARGES


@<TRIPOS>ATOM
      1 C26         4.6865    2.4509   -1.0549 C.2        1 <1>        0.000
      2 C28         4.4985    2.0865    0.2185 C.2        1 <1>        0.000
      3 C29         3.3250    2.4476    1.0158 C.2        1 <1>        0.000
      4 C30         3.2434    2.3034    2.3443 C.2        1 <1>        0.000
      5 C31         2.0701    2.6311    3.1548 C.2        1 <1>        0.000
      6 C32         1.9954    2.6890    4.4964 C.2        1 <1>        0.000
      7 C33         3.0749    2.3976    5.4678 C.2        1 <1>        0.000
      8 N2          3.8790    1.3350    5.2791 N.am       1 <1>        0.000
      9 O10         3.2360    3.1242    6.4371 O.2        1 <1>        0.000
     10 H           3.9374    3.0568   -1.5646 H.spc      1 <1>        0.000
     11 H           5.5887    2.1419   -1.5827 H.spc      1 <1>        0.000
     12 H           5.2700    1.4807    0.6938 H.spc      1 <1>        0.000
     13 H           2.4617    2.8606    0.4940 H.spc      1 <1>        0.000
     14 H           4.1188    1.9115    2.8622 H.spc      1 <1>        0.000
     15 H           1.1528    2.8534    2.6096 H.spc      1 <1>        0.000
     16 H           1.0332    2.9832    4.9156 H.spc      1 <1>        0.000
     17 H           4.6246    1.1349    5.9458 H.spc      1 <1>        0.000
     18 H           3.7428    0.7298    4.4694 H.spc      1 <1>        0.000
@<TRIPOS>BOND
     1    6    7 1  
     2    7    8 am 
     3    5    6 2  
     4    7    9 2  
     5    1    2 2  
     6    2    3 1  
     7    3    4 2  
     8    4    5 1  
     9    1   10 1  
    10    1   11 1  
    11    2   12 1  
    12    3   13 1  
    13    4   14 1  
    14    5   15 1  
    15    6   16 1  
    16    8   17 1  
    17    8   18 1  
# Name:          frag3-220-6/96164
# Creation time: Sat Jun  5 12:53:13 2010


@<TRIPOS>MOLECULE
frag3-220-6/96164
   18    17     1     1     1
SMALL
USER_CHARGES


@<TRIPOS>ATOM
      1 C26         4.6171    2.6439   -1.1052 C.2        1 <1>        0.000
      2 C28         4.5665    2.6131    0.2311 C.2        1 <1>        0.000
      3 C29         3.3381    2.4337    1.0068 C.2        1 <1>        0.000
      4 C30         3.2852    2.4294    2.3448 C.2        1 <1>        0.000
      5 C31         2.0737    2.2212    3.1379 C.2        1 <1>        0.000
      6 C32         1.9749    2.1624    4.4782 C.2        1 <1>        0.000
      7 C33         3.0767    2.2583    5.4635 C.2        1 <1>        0.000
      8 N2          3.4078    3.4540    5.9846 N.am       1 <1>        0.000
      9 O10         3.6686    1.2495    5.8171 O.2        1 <1>        0.000
     10 H           3.7029    2.5312   -1.6880 H.spc      1 <1>        0.000
     11 H           5.5726    2.7817   -1.6114 H.spc      1 <1>        0.000
     12 H           5.5018    2.7293    0.7786 H.spc      1 <1>        0.000
     13 H           2.4057    2.2946    0.4596 H.spc      1 <1>        0.000
     14 H           4.2175    2.5938    2.8851 H.spc      1 <1>        0.000
     15 H           1.1456    2.0999    2.5793 H.spc      1 <1>        0.000
     16 H           0.9722    2.0293    4.8844 H.spc      1 <1>        0.000
     17 H           4.1544    3.5197    6.6764 H.spc      1 <1>        0.000
     18 H           2.9122    4.2946    5.6877 H.spc      1 <1>        0.000
@<TRIPOS>BOND
     1    6    7 1  
     2    7    8 am 
     3    5    6 2  
     4    7    9 2  
     5    1    2 2  
     6    2    3 1  
     7    3    4 2  
     8    4    5 1  
     9    1   10 1  
    10    1   11 1  
    11    2   12 1  
    12    3   13 1  
    13    4   14 1  
    14    5   15 1  
    15    6   16 1  
    16    8   17 1  
    17    8   18 1  
# Name:          frag3-220-6/96164
# Creation time: Sat Jun  5 12:53:13 2010


@<TRIPOS>MOLECULE
frag3-220-6/96164
   18    17     1     1     1
SMALL
USER_CHARGES


@<TRIPOS>ATOM
      1 C26         4.8370    2.1383   -0.8419 C.2        1 <1>        0.000
      2 C28         4.4931    2.7180    0.3140 C.2        1 <1>        0.000
      3 C29         3.3482    2.3078    1.1332 C.2        1 <1>        0.000
      4 C30         3.0279    2.8649    2.3068 C.2        1 <1>        0.000
      5 C31         1.9098    2.4465    3.1567 C.2        1 <1>        0.000
      6 C32         1.9434    2.1946    4.4780 C.2        1 <1>        0.000
      7 C33         3.1216    2.2501    5.3736 C.2        1 <1>        0.000
      8 N2          4.3627    2.1600    4.8605 N.am       1 <1>        0.000
      9 O10         2.9650    2.3850    6.5782 O.2        1 <1>        0.000
     10 H           4.2508    1.3050   -1.2293 H.spc      1 <1>        0.000
     11 H           5.7033    2.4994   -1.3961 H.spc      1 <1>        0.000
     12 H           5.1031    3.5484    0.6695 H.spc      1 <1>        0.000
     13 H           2.7188    1.4985    0.7630 H.spc      1 <1>        0.000
     14 H           3.6451    3.6922    2.6571 H.spc      1 <1>        0.000
     15 H           0.9448    2.3261    2.6643 H.spc      1 <1>        0.000
     16 H           0.9964    1.9185    4.9417 H.spc      1 <1>        0.000
     17 H           5.1740    2.2043    5.4772 H.spc      1 <1>        0.000
     18 H           4.4919    2.0474    3.8550 H.spc      1 <1>        0.000
@<TRIPOS>BOND
     1    6    7 1  
     2    7    8 am 
     3    5    6 2  
     4    7    9 2  
     5    1    2 2  
     6    2    3 1  
     7    3    4 2  
     8    4    5 1  
     9    1   10 1  
    10    1   11 1  
    11    2   12 1  
    12    3   13 1  
    13    4   14 1  
    14    5   15 1  
    15    6   16 1  
    16    8   17 1  
    17    8   18 1  
# Name:          frag3-220-6/96164
# Creation time: Sat Jun  5 12:53:13 2010


@<TRIPOS>MOLECULE
frag3-220-6/96164
   18    17     1     1     1
SMALL
USER_CHARGES


@<TRIPOS>ATOM
      1 C26         5.2367    2.6000   -0.0096 C.2        1 <1>        0.000
      2 C28         4.0761    1.9328   -0.0265 C.2        1 <1>        0.000
      3 C29         2.9597    2.2033    0.8713 C.2        1 <1>        0.000
      4 C30         3.0913    2.4439    2.1864 C.2        1 <1>        0.000
      5 C31         1.9967    2.6910    3.1156 C.2        1 <1>        0.000
      6 C32         2.0424    2.6881    4.4619 C.2        1 <1>        0.000
      7 C33         3.2204    2.4016    5.3132 C.2        1 <1>        0.000
      8 N2          3.0366    1.8815    6.5420 N.am       1 <1>        0.000
      9 O10         4.3488    2.6231    4.9045 O.2        1 <1>        0.000
     10 H           5.3924    3.4046    0.7091 H.spc      1 <1>        0.000
     11 H           6.0259    2.3386   -0.7145 H.spc      1 <1>        0.000
     12 H           3.9581    1.1349   -0.7597 H.spc      1 <1>        0.000
     13 H           1.9549    2.2108    0.4488 H.spc      1 <1>        0.000
     14 H           4.1027    2.4552    2.5927 H.spc      1 <1>        0.000
     15 H           1.0256    2.9034    2.6684 H.spc      1 <1>        0.000
     16 H           1.1126    2.9217    4.9807 H.spc      1 <1>        0.000
     17 H           3.8413    1.6721    7.1327 H.spc      1 <1>        0.000
     18 H           2.0927    1.6971    6.8818 H.spc      1 <1>        0.000
@<TRIPOS>BOND
     1    6    7 1  
     2    7    8 am 
     3    5    6 2  
     4    7    9 2  
     5    1    2 2  
     6    2    3 1  
     7    3    4 2  
     8    4    5 1  
     9    1   10 1  
    10    1   11 1  
    11    2   12 1  
    12    3   13 1  
    13    4   14 1  
    14    5   15 1  
    15    6   16 1  
    16    8   17 1  
    17    8   18 1  
# Name:          frag3-220-6/96164
# Creation time: Sat Jun  5 12:53:13 2010


@<TRIPOS>MOLECULE
frag3-220-6/96164
   18    17     1     1     1
SMALL
USER_CHARGES


@<TRIPOS>ATOM
      1 C26         5.2848    2.7978    0.0881 C.2        1 <1>        0.000
      2 C28         4.0950    2.2040   -0.0656 C.2        1 <1>        0.000
      3 C29         2.9699    2.3680    0.8477 C.2        1 <1>        0.000
      4 C30         3.0542    2.2252    2.1806 C.2        1 <1>        0.000
      5 C31         1.9448    2.3584    3.1167 C.2        1 <1>        0.000
      6 C32         2.0059    2.4363    4.4595 C.2        1 <1>        0.000
      7 C33         3.2215    2.3632    5.3036 C.2        1 <1>        0.000
      8 N2          3.2376    2.9841    6.4982 N.am       1 <1>        0.000
      9 O10         4.1948    1.7283    4.9302 O.2        1 <1>        0.000
     10 H           5.4603    3.4540    0.9405 H.spc      1 <1>        0.000
     11 H           6.0781    2.6251   -0.6392 H.spc      1 <1>        0.000
     12 H           3.9580    1.5550   -0.9305 H.spc      1 <1>        0.000
     13 H           1.9994    2.6225    0.4218 H.spc      1 <1>        0.000
     14 H           4.0337    1.9901    2.5969 H.spc      1 <1>        0.000
     15 H           0.9479    2.3998    2.6778 H.spc      1 <1>        0.000
     16 H           1.0585    2.5673    4.9823 H.spc      1 <1>        0.000
     17 H           4.0641    2.9244    7.0929 H.spc      1 <1>        0.000
     18 H           2.4233    3.5142    6.8085 H.spc      1 <1>        0.000
@<TRIPOS>BOND
     1    6    7 1  
     2    7    8 am 
     3    5    6 2  
     4    7    9 2  
     5    1    2 2  
     6    2    3 1  
     7    3    4 2  
     8    4    5 1  
     9    1   10 1  
    10    1   11 1  
    11    2   12 1  
    12    3   13 1  
    13    4   14 1  
    14    5   15 1  
    15    6   16 1  
    16    8   17 1  
    17    8   18 1  
# Name:          frag3-220-6/96164
# Creation time: Sat Jun  5 12:53:13 2010


@<TRIPOS>MOLECULE
frag3-220-6/96164
   18    17     1     1     1
SMALL
USER_CHARGES


@<TRIPOS>ATOM
      1 C26         5.1411    3.1642    0.0716 C.2        1 <1>        0.000
      2 C28         4.1592    2.2604   -0.0382 C.2        1 <1>        0.000
      3 C29         3.0075    2.1864    0.8585 C.2        1 <1>        0.000
      4 C30         3.0881    2.3039    2.1937 C.2        1 <1>        0.000
      5 C31         1.9611    2.2075    3.1169 C.2        1 <1>        0.000
      6 C32         2.0002    2.2251    4.4613 C.2        1 <1>        0.000
      7 C33         3.2037    2.3122    5.3212 C.2        1 <1>        0.000
      8 N2          3.8899    3.4657    5.4016 N.am       1 <1>        0.000
      9 O10         3.5579    1.3400    5.9723 O.2        1 <1>        0.000
     10 H           5.1116    3.9069    0.8689 H.spc      1 <1>        0.000
     11 H           5.9699    3.1572   -0.6363 H.spc      1 <1>        0.000
     12 H           4.2229    1.5336   -0.8480 H.spc      1 <1>        0.000
     13 H           2.0239    2.0262    0.4169 H.spc      1 <1>        0.000
     14 H           4.0735    2.4858    2.6226 H.spc      1 <1>        0.000
     15 H           0.9742    2.1100    2.6645 H.spc      1 <1>        0.000
     16 H           1.0404    2.1691    4.9749 H.spc      1 <1>        0.000
     17 H           4.7082    3.5312    6.0070 H.spc      1 <1>        0.000
     18 H           3.5921    4.2753    4.8572 H.spc      1 <1>        0.000
@<TRIPOS>BOND
     1    6    7 1  
     2    7    8 am 
     3    5    6 2  
     4    7    9 2  
     5    1    2 2  
     6    2    3 1  
     7    3    4 2  
     8    4    5 1  
     9    1   10 1  
    10    1   11 1  
    11    2   12 1  
    12    3   13 1  
    13    4   14 1  
    14    5   15 1  
    15    6   16 1  
    16    8   17 1  
    17    8   18 1  
# Name:          frag3-220-6/96164
# Creation time: Sat Jun  5 12:53:13 2010


@<TRIPOS>MOLECULE
frag3-220-6/96164
   18    17     1     1     1
SMALL
USER_CHARGES


@<TRIPOS>ATOM
      1 C26         4.8020    3.0405   -0.8320 C.2        1 <1>        0.000
      2 C28         4.4794    2.2595    0.2053 C.2        1 <1>        0.000
      3 C29         3.2843    2.4407    1.0336 C.2        1 <1>        0.000
      4 C30         3.1877    2.0449    2.3092 C.2        1 <1>        0.000
      5 C31         1.9939    2.1933    3.1442 C.2        1 <1>        0.000
      6 C32         1.9477    2.3448    4.4802 C.2        1 <1>        0.000
      7 C33         3.0909    2.3557    5.4223 C.2        1 <1>        0.000
      8 N2          4.2521    2.9348    5.0670 N.am       1 <1>        0.000
      9 O10         2.9707    1.8511    6.5291 O.2        1 <1>        0.000
     10 H           4.1570    3.8750   -1.1073 H.spc      1 <1>        0.000
     11 H           5.7098    2.8423   -1.4018 H.spc      1 <1>        0.000
     12 H           5.1490    1.4350    0.4501 H.spc      1 <1>        0.000
     13 H           2.4197    2.9282    0.5832 H.spc      1 <1>        0.000
     14 H           4.0632    1.5773    2.7597 H.spc      1 <1>        0.000
     15 H           1.0355    2.1795    2.6252 H.spc      1 <1>        0.000
     16 H           0.9581    2.4740    4.9186 H.spc      1 <1>        0.000
     17 H           5.0341    2.9533    5.7217 H.spc      1 <1>        0.000
     18 H           4.3505    3.3554    4.1430 H.spc      1 <1>        0.000
@<TRIPOS>BOND
     1    6    7 1  
     2    7    8 am 
     3    5    6 2  
     4    7    9 2  
     5    1    2 2  
     6    2    3 1  
     7    3    4 2  
     8    4    5 1  
     9    1   10 1  
    10    1   11 1  
    11    2   12 1  
    12    3   13 1  
    13    4   14 1  
    14    5   15 1  
    15    6   16 1  
    16    8   17 1  
    17    8   18 1  
# Name:          frag3-220-6/96164
# Creation time: Sat Jun  5 12:53:13 2010


@<TRIPOS>MOLECULE
frag3-220-6/96164
   18    17     1     1     1
SMALL
USER_CHARGES


@<TRIPOS>ATOM
      1 C26         5.2198    2.5731   -0.1354 C.2        1 <1>        0.000
      2 C28         4.1848    1.9818    0.4712 C.2        1 <1>        0.000
      3 C29         3.4579    2.5497    1.6053 C.2        1 <1>        0.000
      4 C30         2.3374    2.0267    2.1240 C.2        1 <1>        0.000
      5 C31         1.5839    2.6009    3.2373 C.2        1 <1>        0.000
      6 C32         2.0231    2.7998    4.4954 C.2        1 <1>        0.000
      7 C33         3.3488    2.4403    5.0502 C.2        1 <1>        0.000
      8 N2          4.0270    1.3931    4.5481 N.am       1 <1>        0.000
      9 O10         3.8259    3.0998    5.9628 O.2        1 <1>        0.000
     10 H           5.5728    3.5441    0.2118 H.spc      1 <1>        0.000
     11 H           5.7103    2.0839   -0.9770 H.spc      1 <1>        0.000
     12 H           3.8616    1.0113    0.0947 H.spc      1 <1>        0.000
     13 H           3.8529    3.4585    2.0594 H.spc      1 <1>        0.000
     14 H           1.9602    1.1043    1.6824 H.spc      1 <1>        0.000
     15 H           0.5570    2.9001    3.0272 H.spc      1 <1>        0.000
     16 H           1.3249    3.2788    5.1818 H.spc      1 <1>        0.000
     17 H           4.9410    1.1477    4.9285 H.spc      1 <1>        0.000
     18 H           3.6273    0.8443    3.7869 H.spc      1 <1>        0.000
@<TRIPOS>BOND
     1    6    7 1  
     2    7    8 am 
     3    5    6 2  
     4    7    9 2  
     5    1    2 2  
     6    2    3 1  
     7    3    4 2  
     8    4    5 1  
     9    1   10 1  
    10    1   11 1  
    11    2   12 1  
    12    3   13 1  
    13    4   14 1  
    14    5   15 1  
    15    6   16 1  
    16    8   17 1  
    17    8   18 1  
# Name:          frag3-220-6/96164
# Creation time: Sat Jun  5 12:53:13 2010


@<TRIPOS>MOLECULE
frag3-220-6/96164
   18    17     1     1     1
SMALL
USER_CHARGES


@<TRIPOS>ATOM
      1 C26         5.4296    2.5138    0.3060 C.2        1 <1>        0.000
      2 C28         4.1309    2.7286    0.5423 C.2        1 <1>        0.000
      3 C29         3.4290    2.3025    1.7501 C.2        1 <1>        0.000
      4 C30         2.1558    2.6081    2.0356 C.2        1 <1>        0.000
      5 C31         1.4524    2.2211    3.2559 C.2        1 <1>        0.000
      6 C32         1.9862    2.0801    4.4868 C.2        1 <1>        0.000
      7 C33         3.4057    2.2531    4.8748 C.2        1 <1>        0.000
      8 N2          3.8983    3.4861    5.0860 N.am       1 <1>        0.000
      9 O10         4.1209    1.2719    5.0215 O.2        1 <1>        0.000
     10 H           6.0378    1.9881    1.0421 H.spc      1 <1>        0.000
     11 H           5.8798    2.8644   -0.6227 H.spc      1 <1>        0.000
     12 H           3.5571    3.2578   -0.2185 H.spc      1 <1>        0.000
     13 H           3.9784    1.6942    2.4686 H.spc      1 <1>        0.000
     14 H           1.6019    3.1910    1.2997 H.spc      1 <1>        0.000
     15 H           0.3842    2.0257    3.1621 H.spc      1 <1>        0.000
     16 H           1.2959    1.8085    5.2854 H.spc      1 <1>        0.000
     17 H           4.8709    3.6051    5.3694 H.spc      1 <1>        0.000
     18 H           3.2994    4.3025    4.9629 H.spc      1 <1>        0.000
@<TRIPOS>BOND
     1    6    7 1  
     2    7    8 am 
     3    5    6 2  
     4    7    9 2  
     5    1    2 2  
     6    2    3 1  
     7    3    4 2  
     8    4    5 1  
     9    1   10 1  
    10    1   11 1  
    11    2   12 1  
    12    3   13 1  
    13    4   14 1  
    14    5   15 1  
    15    6   16 1  
    16    8   17 1  
    17    8   18 1  
# Name:          frag3-220-6/96164
# Creation time: Sat Jun  5 12:53:13 2010


@<TRIPOS>MOLECULE
frag3-220-6/96164
   18    17     1     1     1
SMALL
USER_CHARGES


@<TRIPOS>ATOM
      1 C26         4.9553    1.9957   -0.2196 C.2        1 <1>        0.000
      2 C28         4.2860    3.0770    0.2015 C.2        1 <1>        0.000
      3 C29         3.1550    3.0314    1.1285 C.2        1 <1>        0.000
      4 C30         3.0730    2.1837    2.1669 C.2        1 <1>        0.000
      5 C31         1.9416    2.0962    3.0883 C.2        1 <1>        0.000
      6 C32         1.9796    2.1445    4.4324 C.2        1 <1>        0.000
      7 C33         3.1810    2.2554    5.2923 C.2        1 <1>        0.000
      8 N2          4.2189    3.0177    4.9065 N.am       1 <1>        0.000
      9 O10         3.2183    1.6636    6.3620 O.2        1 <1>        0.000
     10 H           4.6656    1.0049    0.1304 H.spc      1 <1>        0.000
     11 H           5.7896    2.1067   -0.9123 H.spc      1 <1>        0.000
     12 H           4.6038    4.0514   -0.1696 H.spc      1 <1>        0.000
     13 H           2.3307    3.7261    0.9669 H.spc      1 <1>        0.000
     14 H           3.9134    1.5102    2.3353 H.spc      1 <1>        0.000
     15 H           0.9569    1.9787    2.6359 H.spc      1 <1>        0.000
     16 H           1.0193    2.0967    4.9459 H.spc      1 <1>        0.000
     17 H           5.0395    3.1034    5.5063 H.spc      1 <1>        0.000
     18 H           4.1858    3.5104    4.0140 H.spc      1 <1>        0.000
@<TRIPOS>BOND
     1    6    7 1  
     2    7    8 am 
     3    5    6 2  
     4    7    9 2  
     5    1    2 2  
     6    2    3 1  
     7    3    4 2  
     8    4    5 1  
     9    1   10 1  
    10    1   11 1  
    11    2   12 1  
    12    3   13 1  
    13    4   14 1  
    14    5   15 1  
    15    6   16 1  
    16    8   17 1  
    17    8   18 1  
# Name:          frag3-220-6/96164
# Creation time: Sat Jun  5 12:53:13 2010


@<TRIPOS>MOLECULE
frag3-220-6/96164
   18    17     1     1     1
SMALL
USER_CHARGES


@<TRIPOS>ATOM
      1 C26         5.1437    1.6697    0.1787 C.2        1 <1>        0.000
      2 C28         4.0904    2.4570   -0.0763 C.2        1 <1>        0.000
      3 C29         2.9801    2.6667    0.8453 C.2        1 <1>        0.000
      4 C30         3.0864    2.5877    2.1833 C.2        1 <1>        0.000
      5 C31         1.9925    2.7587    3.1296 C.2        1 <1>        0.000
      6 C32         2.0437    2.6722    4.4727 C.2        1 <1>        0.000
      7 C33         3.2295    2.3473    5.2991 C.2        1 <1>        0.000
      8 N2          3.3451    1.1203    5.8399 N.am       1 <1>        0.000
      9 O10         4.0975    3.1856    5.4867 O.2        1 <1>        0.000
     10 H           5.2081    1.1357    1.1268 H.spc      1 <1>        0.000
     11 H           5.9364    1.5630   -0.5619 H.spc      1 <1>        0.000
     12 H           4.0614    2.9746   -1.0351 H.spc      1 <1>        0.000
     13 H           2.0031    2.9022    0.4233 H.spc      1 <1>        0.000
     14 H           4.0740    2.3781    2.5942 H.spc      1 <1>        0.000
     15 H           1.0164    2.9834    2.6997 H.spc      1 <1>        0.000
     16 H           1.1136    2.8614    5.0087 H.spc      1 <1>        0.000
     17 H           4.1595    0.8882    6.4084 H.spc      1 <1>        0.000
     18 H           2.6183    0.4225    5.6812 H.spc      1 <1>        0.000
@<TRIPOS>BOND
     1    6    7 1  
     2    7    8 am 
     3    5    6 2  
     4    7    9 2  
     5    1    2 2  
     6    2    3 1  
     7    3    4 2  
     8    4    5 1  
     9    1   10 1  
    10    1   11 1  
    11    2   12 1  
    12    3   13 1  
    13    4   14 1  
    14    5   15 1  
    15    6   16 1  
    16    8   17 1  
    17    8   18 1  
# Name:          frag3-220-6/96164
# Creation time: Sat Jun  5 12:53:13 2010


@<TRIPOS>MOLECULE
frag3-220-6/96164
   18    17     1     1     1
SMALL
USER_CHARGES


@<TRIPOS>ATOM
      1 C26         4.3897    2.9567   -0.3946 C.2        1 <1>        0.000
      2 C28         4.7398    2.4126    0.7775 C.2        1 <1>        0.000
      3 C29         3.7961    2.0304    1.8195 C.2        1 <1>        0.000
      4 C30         2.6068    2.6270    2.0160 C.2        1 <1>        0.000
      5 C31         1.6597    2.2910    3.0700 C.2        1 <1>        0.000
      6 C32         1.9280    2.1445    4.3838 C.2        1 <1>        0.000
      7 C33         3.2474    2.2670    5.0482 C.2        1 <1>        0.000
      8 N2          4.0263    3.3344    4.8070 N.am       1 <1>        0.000
      9 O10         3.6148    1.4018    5.8314 O.2        1 <1>        0.000
     10 H           3.3387    3.1401   -0.6181 H.spc      1 <1>        0.000
     11 H           5.1556    3.2163   -1.1254 H.spc      1 <1>        0.000
     12 H           5.8004    2.2446    0.9644 H.spc      1 <1>        0.000
     13 H           4.0712    1.2093    2.4815 H.spc      1 <1>        0.000
     14 H           2.3291    3.4275    1.3303 H.spc      1 <1>        0.000
     15 H           0.6239    2.1421    2.7648 H.spc      1 <1>        0.000
     16 H           1.0808    1.9101    5.0283 H.spc      1 <1>        0.000
     17 H           4.9268    3.4253    5.2773 H.spc      1 <1>        0.000
     18 H           3.7173    4.0540    4.1535 H.spc      1 <1>        0.000
@<TRIPOS>BOND
     1    6    7 1  
     2    7    8 am 
     3    5    6 2  
     4    7    9 2  
     5    1    2 2  
     6    2    3 1  
     7    3    4 2  
     8    4    5 1  
     9    1   10 1  
    10    1   11 1  
    11    2   12 1  
    12    3   13 1  
    13    4   14 1  
    14    5   15 1  
    15    6   16 1  
    16    8   17 1  
    17    8   18 1  
# Name:          frag3-220-6/96164
# Creation time: Sat Jun  5 12:53:13 2010


@<TRIPOS>MOLECULE
frag3-220-6/96164
   18    17     1     1     1
SMALL
USER_CHARGES


@<TRIPOS>ATOM
      1 C26         4.6909    1.5360   -0.0121 C.2        1 <1>        0.000
      2 C28         4.4762    2.7682    0.4656 C.2        1 <1>        0.000
      3 C29         3.5697    3.0787    1.5606 C.2        1 <1>        0.000
      4 C30         2.6384    2.2300    2.0352 C.2        1 <1>        0.000
      5 C31         1.7024    2.5224    3.1083 C.2        1 <1>        0.000
      6 C32         1.9702    2.5945    4.4280 C.2        1 <1>        0.000
      7 C33         3.2737    2.3447    5.0878 C.2        1 <1>        0.000
      8 N2          4.0489    1.3270    4.6777 N.am       1 <1>        0.000
      9 O10         3.6383    3.0637    6.0078 O.2        1 <1>        0.000
     10 H           4.1693    0.6839    0.4238 H.spc      1 <1>        0.000
     11 H           5.3873    1.3849   -0.8369 H.spc      1 <1>        0.000
     12 H           5.0167    3.5941    0.0032 H.spc      1 <1>        0.000
     13 H           3.6497    4.0609    2.0263 H.spc      1 <1>        0.000
     14 H           2.5816    1.2426    1.5771 H.spc      1 <1>        0.000
     15 H           0.6688    2.7036    2.8133 H.spc      1 <1>        0.000
     16 H           1.1391    2.8655    5.0792 H.spc      1 <1>        0.000
     17 H           4.9443    1.1520    5.1338 H.spc      1 <1>        0.000
     18 H           3.7420    0.7293    3.9103 H.spc      1 <1>        0.000
@<TRIPOS>BOND
     1    6    7 1  
     2    7    8 am 
     3    5    6 2  
     4    7    9 2  
     5    1    2 2  
     6    2    3 1  
     7    3    4 2  
     8    4    5 1  
     9    1   10 1  
    10    1   11 1  
    11    2   12 1  
    12    3   13 1  
    13    4   14 1  
    14    5   15 1  
    15    6   16 1  
    16    8   17 1  
    17    8   18 1  
# Name:          frag3-220-6/96164
# Creation time: Sat Jun  5 12:53:13 2010


@<TRIPOS>MOLECULE
frag3-220-6/96164
   18    17     1     1     1
SMALL
USER_CHARGES


@<TRIPOS>ATOM
      1 C26         5.2913    1.9353    0.0543 C.2        1 <1>        0.000
      2 C28         4.1848    2.6059    0.3944 C.2        1 <1>        0.000
      3 C29         3.2709    2.2025    1.4624 C.2        1 <1>        0.000
      4 C30         2.4904    3.0479    2.1481 C.2        1 <1>        0.000
      5 C31         1.6011    2.6689    3.2452 C.2        1 <1>        0.000
      6 C32         1.9584    2.3408    4.5025 C.2        1 <1>        0.000
      7 C33         3.3313    2.2634    5.0532 C.2        1 <1>        0.000
      8 N2          4.2804    1.5735    4.3949 N.am       1 <1>        0.000
      9 O10         3.6001    2.8271    6.1040 O.2        1 <1>        0.000
     10 H           5.5612    1.0233    0.5868 H.spc      1 <1>        0.000
     11 H           5.9230    2.3009   -0.7553 H.spc      1 <1>        0.000
     12 H           3.9487    3.5133   -0.1615 H.spc      1 <1>        0.000
     13 H           3.2216    1.1439    1.7173 H.spc      1 <1>        0.000
     14 H           2.5205    4.1004    1.8663 H.spc      1 <1>        0.000
     15 H           0.5344    2.6497    3.0221 H.spc      1 <1>        0.000
     16 H           1.1466    2.1062    5.1910 H.spc      1 <1>        0.000
     17 H           5.2264    1.5201    4.7725 H.spc      1 <1>        0.000
     18 H           4.0539    1.1039    3.5182 H.spc      1 <1>        0.000
@<TRIPOS>BOND
     1    6    7 1  
     2    7    8 am 
     3    5    6 2  
     4    7    9 2  
     5    1    2 2  
     6    2    3 1  
     7    3    4 2  
     8    4    5 1  
     9    1   10 1  
    10    1   11 1  
    11    2   12 1  
    12    3   13 1  
    13    4   14 1  
    14    5   15 1  
    15    6   16 1  
    16    8   17 1  
    17    8   18 1  
# Name:          frag3-220-6/96164
# Creation time: Sat Jun  5 12:53:13 2010


@<TRIPOS>MOLECULE
frag3-220-6/96164
   18    17     1     1     1
SMALL
USER_CHARGES


@<TRIPOS>ATOM
      1 C26         4.8365    1.8648   -0.4051 C.2        1 <1>        0.000
      2 C28         4.3903    2.9747    0.1968 C.2        1 <1>        0.000
      3 C29         3.2451    3.0142    1.1010 C.2        1 <1>        0.000
      4 C30         3.1123    2.2277    2.1822 C.2        1 <1>        0.000
      5 C31         1.9649    2.2232    3.0829 C.2        1 <1>        0.000
      6 C32         1.9794    2.2629    4.4290 C.2        1 <1>        0.000
      7 C33         3.1705    2.2751    5.3101 C.2        1 <1>        0.000
      8 N2          3.1878    3.0733    6.3942 N.am       1 <1>        0.000
      9 O10         4.1219    1.5494    5.0677 O.2        1 <1>        0.000
     10 H           4.3364    0.9120   -0.2314 H.spc      1 <1>        0.000
     11 H           5.6998    1.9142   -1.0687 H.spc      1 <1>        0.000
     12 H           4.9161    3.9087   -0.0012 H.spc      1 <1>        0.000
     13 H           2.4482    3.7260    0.8857 H.spc      1 <1>        0.000
     14 H           3.9268    1.5381    2.4040 H.spc      1 <1>        0.000
     15 H           0.9826    2.1831    2.6122 H.spc      1 <1>        0.000
     16 H           1.0088    2.2889    4.9244 H.spc      1 <1>        0.000
     17 H           3.9970    3.0726    7.0152 H.spc      1 <1>        0.000
     18 H           2.3917    3.6787    6.5945 H.spc      1 <1>        0.000
@<TRIPOS>BOND
     1    6    7 1  
     2    7    8 am 
     3    5    6 2  
     4    7    9 2  
     5    1    2 2  
     6    2    3 1  
     7    3    4 2  
     8    4    5 1  
     9    1   10 1  
    10    1   11 1  
    11    2   12 1  
    12    3   13 1  
    13    4   14 1  
    14    5   15 1  
    15    6   16 1  
    16    8   17 1  
    17    8   18 1  
# Name:          frag3-220-6/96164
# Creation time: Sat Jun  5 12:53:13 2010


@<TRIPOS>MOLECULE
frag3-220-6/96164
   18    17     1     1     1
SMALL
USER_CHARGES


@<TRIPOS>ATOM
      1 C26         4.5908    2.8208   -0.4449 C.2        1 <1>        0.000
      2 C28         4.5880    1.9396    0.5631 C.2        1 <1>        0.000
      3 C29         3.4974    1.7951    1.5236 C.2        1 <1>        0.000
      4 C30         2.8674    2.8289    2.1054 C.2        1 <1>        0.000
      5 C31         1.7988    2.7148    3.0934 C.2        1 <1>        0.000
      6 C32         1.9358    2.5185    4.4197 C.2        1 <1>        0.000
      7 C33         3.1997    2.3505    5.1744 C.2        1 <1>        0.000
      8 N2          4.2002    1.6177    4.6552 N.am       1 <1>        0.000
      9 O10         3.3306    2.8794    6.2691 O.2        1 <1>        0.000
     10 H           3.7412    3.4885   -0.5874 H.spc      1 <1>        0.000
     11 H           5.4427    2.8705   -1.1230 H.spc      1 <1>        0.000
     12 H           5.4551    1.2885    0.6739 H.spc      1 <1>        0.000
     13 H           3.1751    0.7870    1.7842 H.spc      1 <1>        0.000
     14 H           3.1788    3.8328    1.8169 H.spc      1 <1>        0.000
     15 H           0.7790    2.7974    2.7175 H.spc      1 <1>        0.000
     16 H           1.0149    2.4790    5.0015 H.spc      1 <1>        0.000
     17 H           5.0704    1.5021    5.1746 H.spc      1 <1>        0.000
     18 H           4.0890    1.1773    3.7419 H.spc      1 <1>        0.000
@<TRIPOS>BOND
     1    6    7 1  
     2    7    8 am 
     3    5    6 2  
     4    7    9 2  
     5    1    2 2  
     6    2    3 1  
     7    3    4 2  
     8    4    5 1  
     9    1   10 1  
    10    1   11 1  
    11    2   12 1  
    12    3   13 1  
    13    4   14 1  
    14    5   15 1  
    15    6   16 1  
    16    8   17 1  
    17    8   18 1  
# Name:          frag3-220-6/96164
# Creation time: Sat Jun  5 12:53:13 2010


@<TRIPOS>MOLECULE
frag3-220-6/96164
   18    17     1     1     1
SMALL
USER_CHARGES


@<TRIPOS>ATOM
      1 C26         5.1195    1.7519    0.2650 C.2        1 <1>        0.000
      2 C28         4.3302    2.8145    0.4600 C.2        1 <1>        0.000
      3 C29         3.4652    2.9977    1.6141 C.2        1 <1>        0.000
      4 C30         2.4864    2.1456    1.9724 C.2        1 <1>        0.000
      5 C31         1.5952    2.3201    3.1091 C.2        1 <1>        0.000
      6 C32         1.9439    2.4328    4.4095 C.2        1 <1>        0.000
      7 C33         3.3115    2.3567    4.9744 C.2        1 <1>        0.000
      8 N2          3.4810    2.4649    6.3062 N.am       1 <1>        0.000
      9 O10         4.2759    2.1811    4.2482 O.2        1 <1>        0.000
     10 H           5.1424    0.9477    1.0004 H.spc      1 <1>        0.000
     11 H           5.7396    1.6904   -0.6293 H.spc      1 <1>        0.000
     12 H           4.3361    3.5969   -0.2989 H.spc      1 <1>        0.000
     13 H           3.6194    3.8836    2.2301 H.spc      1 <1>        0.000
     14 H           2.3507    1.2530    1.3617 H.spc      1 <1>        0.000
     15 H           0.5290    2.3648    2.8872 H.spc      1 <1>        0.000
     16 H           1.1326    2.5972    5.1187 H.spc      1 <1>        0.000
     17 H           4.4162    2.4000    6.7082 H.spc      1 <1>        0.000
     18 H           2.6742    2.6117    6.9127 H.spc      1 <1>        0.000
@<TRIPOS>BOND
     1    6    7 1  
     2    7    8 am 
     3    5    6 2  
     4    7    9 2  
     5    1    2 2  
     6    2    3 1  
     7    3    4 2  
     8    4    5 1  
     9    1   10 1  
    10    1   11 1  
    11    2   12 1  
    12    3   13 1  
    13    4   14 1  
    14    5   15 1  
    15    6   16 1  
    16    8   17 1  
    17    8   18 1  
# Name:          frag3-220-6/96164
# Creation time: Sat Jun  5 12:53:13 2010


@<TRIPOS>MOLECULE
frag3-220-6/96164
   18    17     1     1     1
SMALL
USER_CHARGES


@<TRIPOS>ATOM
      1 C26         5.1405    2.9562    0.2977 C.2        1 <1>        0.000
      2 C28         4.3048    1.9152    0.4042 C.2        1 <1>        0.000
      3 C29         3.3435    1.7410    1.4839 C.2        1 <1>        0.000
      4 C30         2.5900    2.7318    1.9925 C.2        1 <1>        0.000
      5 C31         1.6535    2.5987    3.0993 C.2        1 <1>        0.000
      6 C32         1.9520    2.4552    4.4084 C.2        1 <1>        0.000
      7 C33         3.3026    2.3780    5.0123 C.2        1 <1>        0.000
      8 N2          3.4394    2.5201    6.3448 N.am       1 <1>        0.000
      9 O10         4.2823    2.1690    4.3158 O.2        1 <1>        0.000
     10 H           5.1282    3.7442    1.0507 H.spc      1 <1>        0.000
     11 H           5.8330    3.0155   -0.5420 H.spc      1 <1>        0.000
     12 H           4.3470    1.1475   -0.3685 H.spc      1 <1>        0.000
     13 H           3.2272    0.7433    1.9071 H.spc      1 <1>        0.000
     14 H           2.6886    3.7176    1.5379 H.spc      1 <1>        0.000
     15 H           0.5943    2.6169    2.8428 H.spc      1 <1>        0.000
     16 H           1.1080    2.3890    5.0950 H.spc      1 <1>        0.000
     17 H           4.3629    2.4530    6.7727 H.spc      1 <1>        0.000
     18 H           2.6195    2.6948    6.9259 H.spc      1 <1>        0.000
@<TRIPOS>BOND
     1    6    7 1  
     2    7    8 am 
     3    5    6 2  
     4    7    9 2  
     5    1    2 2  
     6    2    3 1  
     7    3    4 2  
     8    4    5 1  
     9    1   10 1  
    10    1   11 1  
    11    2   12 1  
    12    3   13 1  
    13    4   14 1  
    14    5   15 1  
    15    6   16 1  
    16    8   17 1  
    17    8   18 1  
# Name:          frag3-220-6/96164
# Creation time: Sat Jun  5 12:53:13 2010


@<TRIPOS>MOLECULE
frag3-220-6/96164
   18    17     1     1     1
SMALL
USER_CHARGES


@<TRIPOS>ATOM
      1 C26         4.4679    2.7300   -0.5309 C.2        1 <1>        0.000
      2 C28         4.7315    2.5127    0.7634 C.2        1 <1>        0.000
      3 C29         3.7660    2.6962    1.8406 C.2        1 <1>        0.000
      4 C30         2.6762    1.9290    2.0172 C.2        1 <1>        0.000
      5 C31         1.6789    2.1194    3.0637 C.2        1 <1>        0.000
      6 C32         1.9099    2.3199    4.3780 C.2        1 <1>        0.000
      7 C33         3.2238    2.3454    5.0622 C.2        1 <1>        0.000
      8 N2          3.6312    3.4688    5.6806 N.am       1 <1>        0.000
      9 O10         3.9232    1.3438    5.0842 O.2        1 <1>        0.000
     10 H           3.4772    3.0668   -0.8363 H.spc      1 <1>        0.000
     11 H           5.2439    2.5702   -1.2794 H.spc      1 <1>        0.000
     12 H           5.7336    2.1765    1.0295 H.spc      1 <1>        0.000
     13 H           3.9389    3.5073    2.5479 H.spc      1 <1>        0.000
     14 H           2.5266    1.1007    1.3246 H.spc      1 <1>        0.000
     15 H           0.6350    2.0974    2.7509 H.spc      1 <1>        0.000
     16 H           1.0332    2.4808    5.0054 H.spc      1 <1>        0.000
     17 H           4.5262    3.4859    6.1696 H.spc      1 <1>        0.000
     18 H           3.0450    4.3033    5.6604 H.spc      1 <1>        0.000
@<TRIPOS>BOND
     1    6    7 1  
     2    7    8 am 
     3    5    6 2  
     4    7    9 2  
     5    1    2 2  
     6    2    3 1  
     7    3    4 2  
     8    4    5 1  
     9    1   10 1  
    10    1   11 1  
    11    2   12 1  
    12    3   13 1  
    13    4   14 1  
    14    5   15 1  
    15    6   16 1  
    16    8   17 1  
    17    8   18 1  
# Name:          frag3-220-6/96164
# Creation time: Sat Jun  5 12:53:13 2010


@<TRIPOS>MOLECULE
frag3-220-6/96164
   18    17     1     1     1
SMALL
USER_CHARGES


@<TRIPOS>ATOM
      1 C26         4.9790    2.8524   -0.4991 C.2        1 <1>        0.000
      2 C28         4.4510    2.0987    0.4709 C.2        1 <1>        0.000
      3 C29         3.5301    2.5878    1.4905 C.2        1 <1>        0.000
      4 C30         2.6423    1.8238    2.1444 C.2        1 <1>        0.000
      5 C31         1.6940    2.3055    3.1424 C.2        1 <1>        0.000
      6 C32         1.9472    2.5931    4.4359 C.2        1 <1>        0.000
      7 C33         3.2356    2.4359    5.1499 C.2        1 <1>        0.000
      8 N2          3.3290    2.8220    6.4375 N.am       1 <1>        0.000
      9 O10         4.2005    1.9460    4.5865 O.2        1 <1>        0.000
     10 H           4.7272    3.9109   -0.5650 H.spc      1 <1>        0.000
     11 H           5.6612    2.4084   -1.2240 H.spc      1 <1>        0.000
     12 H           4.7282    1.0450    0.5018 H.spc      1 <1>        0.000
     13 H           3.5657    3.6486    1.7386 H.spc      1 <1>        0.000
     14 H           2.6285    0.7591    1.9115 H.spc      1 <1>        0.000
     15 H           0.6672    2.4490    2.8059 H.spc      1 <1>        0.000
     16 H           1.1132    2.9836    5.0190 H.spc      1 <1>        0.000
     17 H           4.2074    2.7049    6.9426 H.spc      1 <1>        0.000
     18 H           2.5213    3.2314    6.9070 H.spc      1 <1>        0.000
@<TRIPOS>BOND
     1    6    7 1  
     2    7    8 am 
     3    5    6 2  
     4    7    9 2  
     5    1    2 2  
     6    2    3 1  
     7    3    4 2  
     8    4    5 1  
     9    1   10 1  
    10    1   11 1  
    11    2   12 1  
    12    3   13 1  
    13    4   14 1  
    14    5   15 1  
    15    6   16 1  
    16    8   17 1  
    17    8   18 1  
# Name:          frag3-220-6/96164
# Creation time: Sat Jun  5 12:53:13 2010


@<TRIPOS>MOLECULE
frag3-220-6/96164
   18    17     1     1     1
SMALL
USER_CHARGES


@<TRIPOS>ATOM
      1 C26         5.4814    2.1528    0.4345 C.2        1 <1>        0.000
      2 C28         4.1475    2.2457    0.4602 C.2        1 <1>        0.000
      3 C29         3.3285    2.0664    1.6507 C.2        1 <1>        0.000
      4 C30         2.3041    2.8594    1.9995 C.2        1 <1>        0.000
      5 C31         1.5032    2.7211    3.2093 C.2        1 <1>        0.000
      6 C32         1.9566    2.5188    4.4658 C.2        1 <1>        0.000
      7 C33         3.3680    2.3697    4.8932 C.2        1 <1>        0.000
      8 N2          3.6512    1.6458    5.9935 N.am       1 <1>        0.000
      9 O10         4.2683    2.8856    4.2522 O.2        1 <1>        0.000
     10 H           6.0298    1.9284    1.3494 H.spc      1 <1>        0.000
     11 H           6.0201    2.3015   -0.5013 H.spc      1 <1>        0.000
     12 H           3.6374    2.4716   -0.4762 H.spc      1 <1>        0.000
     13 H           3.5647    1.2276    2.3055 H.spc      1 <1>        0.000
     14 H           2.0497    3.6746    1.3221 H.spc      1 <1>        0.000
     15 H           0.4221    2.7881    3.0872 H.spc      1 <1>        0.000
     16 H           1.2025    2.4587    5.2505 H.spc      1 <1>        0.000
     17 H           4.6196    1.5286    6.2915 H.spc      1 <1>        0.000
     18 H           2.8972    1.2150    6.5285 H.spc      1 <1>        0.000
@<TRIPOS>BOND
     1    6    7 1  
     2    7    8 am 
     3    5    6 2  
     4    7    9 2  
     5    1    2 2  
     6    2    3 1  
     7    3    4 2  
     8    4    5 1  
     9    1   10 1  
    10    1   11 1  
    11    2   12 1  
    12    3   13 1  
    13    4   14 1  
    14    5   15 1  
    15    6   16 1  
    16    8   17 1  
    17    8   18 1  
# Name:          frag3-220-6/96164 -- energy: -1.143508
# Creation time: Sat Jun  5 12:53:13 2010


@<TRIPOS>MOLECULE
frag3-220-6/96164 -- energy: -1.143508
   18    17     1     1     1
SMALL
USER_CHARGES


@<TRIPOS>ATOM
      1 C26         4.6293    2.4779   -1.1135 C.2        1 <1>        0.000
      2 C28         4.5670    2.3315    0.2143 C.2        1 <1>        0.000
      3 C29         3.3543    2.5094    1.0098 C.2        1 <1>        0.000
      4 C30         3.2769    2.3019    2.3303 C.2        1 <1>        0.000
      5 C31         2.0680    2.4453    3.1378 C.2        1 <1>        0.000
      6 C32         1.9778    2.4789    4.4808 C.2        1 <1>        0.000
      7 C33         3.0850    2.3392    5.4553 C.2        1 <1>        0.000
      8 N2          2.8824    2.6785    6.7432 N.am       1 <1>        0.000
      9 O10         4.1679    1.9028    5.1011 O.2        1 <1>        0.000
     10 H           3.7347    2.7479   -1.6746 H.spc      1 <1>        0.000
     11 H           5.5747    2.3272   -1.6347 H.spc      1 <1>        0.000
     12 H           5.4834    2.0610    0.7389 H.spc      1 <1>        0.000
     13 H           2.4509    2.8332    0.4929 H.spc      1 <1>        0.000
     14 H           4.1899    2.0016    2.8445 H.spc      1 <1>        0.000
     15 H           1.1303    2.5356    2.5895 H.spc      1 <1>        0.000
     16 H           0.9809    2.6249    4.8967 H.spc      1 <1>        0.000
     17 H           3.6348    2.5707    7.4234 H.spc      1 <1>        0.000
     18 H           1.9766    3.0432    7.0381 H.spc      1 <1>        0.000
@<TRIPOS>BOND
     1    6    7 1  
     2    7    8 am 
     3    5    6 2  
     4    7    9 2  
     5    1    2 2  
     6    2    3 1  
     7    3    4 2  
     8    4    5 1  
     9    1   10 1  
    10    1   11 1  
    11    2   12 1  
    12    3   13 1  
    13    4   14 1  
    14    5   15 1  
    15    6   16 1  
    16    8   17 1  
    17    8   18 1  
# Name:          frag3-220-6/96164 -- energy: -1.517696
# Creation time: Sat Jun  5 12:53:13 2010


@<TRIPOS>MOLECULE
frag3-220-6/96164 -- energy: -1.517696
   18    17     1     1     1
SMALL
USER_CHARGES


@<TRIPOS>ATOM
      1 C26         4.6865    2.4509   -1.0549 C.2        1 <1>        0.000
      2 C28         4.4985    2.0865    0.2185 C.2        1 <1>        0.000
      3 C29         3.3250    2.4476    1.0158 C.2        1 <1>        0.000
      4 C30         3.2434    2.3034    2.3443 C.2        1 <1>        0.000
      5 C31         2.0701    2.6311    3.1548 C.2        1 <1>        0.000
      6 C32         1.9954    2.6890    4.4964 C.2        1 <1>        0.000
      7 C33         3.0749    2.3976    5.4678 C.2        1 <1>        0.000
      8 N2          3.8790    1.3350    5.2791 N.am       1 <1>        0.000
      9 O10         3.2360    3.1242    6.4371 O.2        1 <1>        0.000
     10 H           3.9374    3.0568   -1.5646 H.spc      1 <1>        0.000
     11 H           5.5887    2.1419   -1.5827 H.spc      1 <1>        0.000
     12 H           5.2700    1.4807    0.6938 H.spc      1 <1>        0.000
     13 H           2.4617    2.8606    0.4940 H.spc      1 <1>        0.000
     14 H           4.1188    1.9115    2.8622 H.spc      1 <1>        0.000
     15 H           1.1528    2.8534    2.6096 H.spc      1 <1>        0.000
     16 H           1.0332    2.9832    4.9156 H.spc      1 <1>        0.000
     17 H           4.6246    1.1349    5.9458 H.spc      1 <1>        0.000
     18 H           3.7428    0.7298    4.4694 H.spc      1 <1>        0.000
@<TRIPOS>BOND
     1    6    7 1  
     2    7    8 am 
     3    5    6 2  
     4    7    9 2  
     5    1    2 2  
     6    2    3 1  
     7    3    4 2  
     8    4    5 1  
     9    1   10 1  
    10    1   11 1  
    11    2   12 1  
    12    3   13 1  
    13    4   14 1  
    14    5   15 1  
    15    6   16 1  
    16    8   17 1  
    17    8   18 1  
# Name:          frag3-220-6/96164 -- energy: -1.549134
# Creation time: Sat Jun  5 12:53:14 2010


@<TRIPOS>MOLECULE
frag3-220-6/96164 -- energy: -1.549134
   18    17     1     1     1
SMALL
USER_CHARGES


@<TRIPOS>ATOM
      1 C26         4.6171    2.6439   -1.1052 C.2        1 <1>        0.000
      2 C28         4.5665    2.6131    0.2311 C.2        1 <1>        0.000
      3 C29         3.3381    2.4337    1.0068 C.2        1 <1>        0.000
      4 C30         3.2852    2.4294    2.3448 C.2        1 <1>        0.000
      5 C31         2.0737    2.2212    3.1379 C.2        1 <1>        0.000
      6 C32         1.9749    2.1624    4.4782 C.2        1 <1>        0.000
      7 C33         3.0767    2.2583    5.4635 C.2        1 <1>        0.000
      8 N2          3.4078    3.4540    5.9846 N.am       1 <1>        0.000
      9 O10         3.6686    1.2495    5.8171 O.2        1 <1>        0.000
     10 H           3.7029    2.5312   -1.6880 H.spc      1 <1>        0.000
     11 H           5.5726    2.7817   -1.6114 H.spc      1 <1>        0.000
     12 H           5.5018    2.7293    0.7786 H.spc      1 <1>        0.000
     13 H           2.4057    2.2946    0.4596 H.spc      1 <1>        0.000
     14 H           4.2175    2.5938    2.8851 H.spc      1 <1>        0.000
     15 H           1.1456    2.0999    2.5793 H.spc      1 <1>        0.000
     16 H           0.9722    2.0293    4.8844 H.spc      1 <1>        0.000
     17 H           4.1544    3.5197    6.6764 H.spc      1 <1>        0.000
     18 H           2.9122    4.2946    5.6877 H.spc      1 <1>        0.000
@<TRIPOS>BOND
     1    6    7 1  
     2    7    8 am 
     3    5    6 2  
     4    7    9 2  
     5    1    2 2  
     6    2    3 1  
     7    3    4 2  
     8    4    5 1  
     9    1   10 1  
    10    1   11 1  
    11    2   12 1  
    12    3   13 1  
    13    4   14 1  
    14    5   15 1  
    15    6   16 1  
    16    8   17 1  
    17    8   18 1  
# Name:          frag3-220-6/96164 -- energy: -1.057005
# Creation time: Sat Jun  5 12:53:14 2010


@<TRIPOS>MOLECULE
frag3-220-6/96164 -- energy: -1.057005
   18    17     1     1     1
SMALL
USER_CHARGES


@<TRIPOS>ATOM
      1 C26         4.8370    2.1383   -0.8419 C.2        1 <1>        0.000
      2 C28         4.4931    2.7180    0.3140 C.2        1 <1>        0.000
      3 C29         3.3482    2.3078    1.1332 C.2        1 <1>        0.000
      4 C30         3.0279    2.8649    2.3068 C.2        1 <1>        0.000
      5 C31         1.9098    2.4465    3.1567 C.2        1 <1>        0.000
      6 C32         1.9434    2.1946    4.4780 C.2        1 <1>        0.000
      7 C33         3.1216    2.2501    5.3736 C.2        1 <1>        0.000
      8 N2          4.3627    2.1600    4.8605 N.am       1 <1>        0.000
      9 O10         2.9650    2.3850    6.5782 O.2        1 <1>        0.000
     10 H           4.2508    1.3050   -1.2293 H.spc      1 <1>        0.000
     11 H           5.7033    2.4994   -1.3961 H.spc      1 <1>        0.000
     12 H           5.1031    3.5484    0.6695 H.spc      1 <1>        0.000
     13 H           2.7188    1.4985    0.7630 H.spc      1 <1>        0.000
     14 H           3.6451    3.6922    2.6571 H.spc      1 <1>        0.000
     15 H           0.9448    2.3261    2.6643 H.spc      1 <1>        0.000
     16 H           0.9964    1.9185    4.9417 H.spc      1 <1>        0.000
     17 H           5.1740    2.2043    5.4772 H.spc      1 <1>        0.000
     18 H           4.4919    2.0474    3.8550 H.spc      1 <1>        0.000
@<TRIPOS>BOND
     1    6    7 1  
     2    7    8 am 
     3    5    6 2  
     4    7    9 2  
     5    1    2 2  
     6    2    3 1  
     7    3    4 2  
     8    4    5 1  
     9    1   10 1  
    10    1   11 1  
    11    2   12 1  
    12    3   13 1  
    13    4   14 1  
    14    5   15 1  
    15    6   16 1  
    16    8   17 1  
    17    8   18 1  
# Name:          frag3-220-6/96164 -- energy: -1.420565
# Creation time: Sat Jun  5 12:53:14 2010


@<TRIPOS>MOLECULE
frag3-220-6/96164 -- energy: -1.420565
   18    17     1     1     1
SMALL
USER_CHARGES


@<TRIPOS>ATOM
      1 C26         5.2367    2.6000   -0.0096 C.2        1 <1>        0.000
      2 C28         4.0761    1.9328   -0.0265 C.2        1 <1>        0.000
      3 C29         2.9597    2.2033    0.8713 C.2        1 <1>        0.000
      4 C30         3.0913    2.4439    2.1864 C.2        1 <1>        0.000
      5 C31         1.9967    2.6910    3.1156 C.2        1 <1>        0.000
      6 C32         2.0424    2.6881    4.4619 C.2        1 <1>        0.000
      7 C33         3.2204    2.4016    5.3132 C.2        1 <1>        0.000
      8 N2          3.0366    1.8815    6.5420 N.am       1 <1>        0.000
      9 O10         4.3488    2.6231    4.9045 O.2        1 <1>        0.000
     10 H           5.3924    3.4046    0.7091 H.spc      1 <1>        0.000
     11 H           6.0259    2.3386   -0.7145 H.spc      1 <1>        0.000
     12 H           3.9581    1.1349   -0.7597 H.spc      1 <1>        0.000
     13 H           1.9549    2.2108    0.4488 H.spc      1 <1>        0.000
     14 H           4.1027    2.4552    2.5927 H.spc      1 <1>        0.000
     15 H           1.0256    2.9034    2.6684 H.spc      1 <1>        0.000
     16 H           1.1126    2.9217    4.9807 H.spc      1 <1>        0.000
     17 H           3.8413    1.6721    7.1327 H.spc      1 <1>        0.000
     18 H           2.0927    1.6971    6.8818 H.spc      1 <1>        0.000
@<TRIPOS>BOND
     1    6    7 1  
     2    7    8 am 
     3    5    6 2  
     4    7    9 2  
     5    1    2 2  
     6    2    3 1  
     7    3    4 2  
     8    4    5 1  
     9    1   10 1  
    10    1   11 1  
    11    2   12 1  
    12    3   13 1  
    13    4   14 1  
    14    5   15 1  
    15    6   16 1  
    16    8   17 1  
    17    8   18 1  
# Name:          frag3-220-6/96164 -- energy: -1.456914
# Creation time: Sat Jun  5 12:53:14 2010


@<TRIPOS>MOLECULE
frag3-220-6/96164 -- energy: -1.456914
   18    17     1     1     1
SMALL
USER_CHARGES


@<TRIPOS>ATOM
      1 C26         5.2848    2.7978    0.0881 C.2        1 <1>        0.000
      2 C28         4.0950    2.2040   -0.0656 C.2        1 <1>        0.000
      3 C29         2.9699    2.3680    0.8477 C.2        1 <1>        0.000
      4 C30         3.0542    2.2252    2.1806 C.2        1 <1>        0.000
      5 C31         1.9448    2.3584    3.1167 C.2        1 <1>        0.000
      6 C32         2.0059    2.4363    4.4595 C.2        1 <1>        0.000
      7 C33         3.2215    2.3632    5.3036 C.2        1 <1>        0.000
      8 N2          3.2376    2.9841    6.4982 N.am       1 <1>        0.000
      9 O10         4.1948    1.7283    4.9302 O.2        1 <1>        0.000
     10 H           5.4603    3.4540    0.9405 H.spc      1 <1>        0.000
     11 H           6.0781    2.6251   -0.6392 H.spc      1 <1>        0.000
     12 H           3.9580    1.5550   -0.9305 H.spc      1 <1>        0.000
     13 H           1.9994    2.6225    0.4218 H.spc      1 <1>        0.000
     14 H           4.0337    1.9901    2.5969 H.spc      1 <1>        0.000
     15 H           0.9479    2.3998    2.6778 H.spc      1 <1>        0.000
     16 H           1.0585    2.5673    4.9823 H.spc      1 <1>        0.000
     17 H           4.0641    2.9244    7.0929 H.spc      1 <1>        0.000
     18 H           2.4233    3.5142    6.8085 H.spc      1 <1>        0.000
@<TRIPOS>BOND
     1    6    7 1  
     2    7    8 am 
     3    5    6 2  
     4    7    9 2  
     5    1    2 2  
     6    2    3 1  
     7    3    4 2  
     8    4    5 1  
     9    1   10 1  
    10    1   11 1  
    11    2   12 1  
    12    3   13 1  
    13    4   14 1  
    14    5   15 1  
    15    6   16 1  
    16    8   17 1  
    17    8   18 1  
# Name:          frag3-220-6/96164 -- energy: -1.730235
# Creation time: Sat Jun  5 12:53:14 2010


@<TRIPOS>MOLECULE
frag3-220-6/96164 -- energy: -1.730235
   18    17     1     1     1
SMALL
USER_CHARGES


@<TRIPOS>ATOM
      1 C26         5.1411    3.1642    0.0716 C.2        1 <1>        0.000
      2 C28         4.1592    2.2604   -0.0382 C.2        1 <1>        0.000
      3 C29         3.0075    2.1864    0.8585 C.2        1 <1>        0.000
      4 C30         3.0881    2.3039    2.1937 C.2        1 <1>        0.000
      5 C31         1.9611    2.2075    3.1169 C.2        1 <1>        0.000
      6 C32         2.0002    2.2251    4.4613 C.2        1 <1>        0.000
      7 C33         3.2037    2.3122    5.3212 C.2        1 <1>        0.000
      8 N2          3.8899    3.4657    5.4016 N.am       1 <1>        0.000
      9 O10         3.5579    1.3400    5.9723 O.2        1 <1>        0.000
     10 H           5.1116    3.9069    0.8689 H.spc      1 <1>        0.000
     11 H           5.9699    3.1572   -0.6363 H.spc      1 <1>        0.000
     12 H           4.2229    1.5336   -0.8480 H.spc      1 <1>        0.000
     13 H           2.0239    2.0262    0.4169 H.spc      1 <1>        0.000
     14 H           4.0735    2.4858    2.6226 H.spc      1 <1>        0.000
     15 H           0.9742    2.1100    2.6645 H.spc      1 <1>        0.000
     16 H           1.0404    2.1691    4.9749 H.spc      1 <1>        0.000
     17 H           4.7082    3.5312    6.0070 H.spc      1 <1>        0.000
     18 H           3.5921    4.2753    4.8572 H.spc      1 <1>        0.000
@<TRIPOS>BOND
     1    6    7 1  
     2    7    8 am 
     3    5    6 2  
     4    7    9 2  
     5    1    2 2  
     6    2    3 1  
     7    3    4 2  
     8    4    5 1  
     9    1   10 1  
    10    1   11 1  
    11    2   12 1  
    12    3   13 1  
    13    4   14 1  
    14    5   15 1  
    15    6   16 1  
    16    8   17 1  
    17    8   18 1  
# Name:          frag3-220-6/96164 -- energy: -1.637900
# Creation time: Sat Jun  5 12:53:14 2010


@<TRIPOS>MOLECULE
frag3-220-6/96164 -- energy: -1.637900
   18    17     1     1     1
SMALL
USER_CHARGES


@<TRIPOS>ATOM
      1 C26         4.8020    3.0405   -0.8320 C.2        1 <1>        0.000
      2 C28         4.4794    2.2595    0.2053 C.2        1 <1>        0.000
      3 C29         3.2843    2.4407    1.0336 C.2        1 <1>        0.000
      4 C30         3.1877    2.0449    2.3092 C.2        1 <1>        0.000
      5 C31         1.9939    2.1933    3.1442 C.2        1 <1>        0.000
      6 C32         1.9477    2.3448    4.4802 C.2        1 <1>        0.000
      7 C33         3.0909    2.3557    5.4223 C.2        1 <1>        0.000
      8 N2          4.2521    2.9348    5.0670 N.am       1 <1>        0.000
      9 O10         2.9707    1.8511    6.5291 O.2        1 <1>        0.000
     10 H           4.1570    3.8750   -1.1073 H.spc      1 <1>        0.000
     11 H           5.7098    2.8423   -1.4018 H.spc      1 <1>        0.000
     12 H           5.1490    1.4350    0.4501 H.spc      1 <1>        0.000
     13 H           2.4197    2.9282    0.5832 H.spc      1 <1>        0.000
     14 H           4.0632    1.5773    2.7597 H.spc      1 <1>        0.000
     15 H           1.0355    2.1795    2.6252 H.spc      1 <1>        0.000
     16 H           0.9581    2.4740    4.9186 H.spc      1 <1>        0.000
     17 H           5.0341    2.9533    5.7217 H.spc      1 <1>        0.000
     18 H           4.3505    3.3554    4.1430 H.spc      1 <1>        0.000
@<TRIPOS>BOND
     1    6    7 1  
     2    7    8 am 
     3    5    6 2  
     4    7    9 2  
     5    1    2 2  
     6    2    3 1  
     7    3    4 2  
     8    4    5 1  
     9    1   10 1  
    10    1   11 1  
    11    2   12 1  
    12    3   13 1  
    13    4   14 1  
    14    5   15 1  
    15    6   16 1  
    16    8   17 1  
    17    8   18 1  
# Name:          frag3-220-6/96164 -- energy: -1.761945
# Creation time: Sat Jun  5 12:53:14 2010


@<TRIPOS>MOLECULE
frag3-220-6/96164 -- energy: -1.761945
   18    17     1     1     1
SMALL
USER_CHARGES


@<TRIPOS>ATOM
      1 C26         5.2198    2.5731   -0.1354 C.2        1 <1>        0.000
      2 C28         4.1848    1.9818    0.4712 C.2        1 <1>        0.000
      3 C29         3.4579    2.5497    1.6053 C.2        1 <1>        0.000
      4 C30         2.3374    2.0267    2.1240 C.2        1 <1>        0.000
      5 C31         1.5839    2.6009    3.2373 C.2        1 <1>        0.000
      6 C32         2.0231    2.7998    4.4954 C.2        1 <1>        0.000
      7 C33         3.3488    2.4403    5.0502 C.2        1 <1>        0.000
      8 N2          4.0270    1.3931    4.5481 N.am       1 <1>        0.000
      9 O10         3.8259    3.0998    5.9628 O.2        1 <1>        0.000
     10 H           5.5728    3.5441    0.2118 H.spc      1 <1>        0.000
     11 H           5.7103    2.0839   -0.9770 H.spc      1 <1>        0.000
     12 H           3.8616    1.0113    0.0947 H.spc      1 <1>        0.000
     13 H           3.8529    3.4585    2.0594 H.spc      1 <1>        0.000
     14 H           1.9602    1.1043    1.6824 H.spc      1 <1>        0.000
     15 H           0.5570    2.9001    3.0272 H.spc      1 <1>        0.000
     16 H           1.3249    3.2788    5.1818 H.spc      1 <1>        0.000
     17 H           4.9410    1.1477    4.9285 H.spc      1 <1>        0.000
     18 H           3.6273    0.8443    3.7869 H.spc      1 <1>        0.000
@<TRIPOS>BOND
     1    6    7 1  
     2    7    8 am 
     3    5    6 2  
     4    7    9 2  
     5    1    2 2  
     6    2    3 1  
     7    3    4 2  
     8    4    5 1  
     9    1   10 1  
    10    1   11 1  
    11    2   12 1  
    12    3   13 1  
    13    4   14 1  
    14    5   15 1  
    15    6   16 1  
    16    8   17 1  
    17    8   18 1  
# Name:          frag3-220-6/96164 -- energy: -1.880617
# Creation time: Sat Jun  5 12:53:14 2010


@<TRIPOS>MOLECULE
frag3-220-6/96164 -- energy: -1.880617
   18    17     1     1     1
SMALL
USER_CHARGES


@<TRIPOS>ATOM
      1 C26         5.4296    2.5138    0.3060 C.2        1 <1>        0.000
      2 C28         4.1309    2.7286    0.5423 C.2        1 <1>        0.000
      3 C29         3.4290    2.3025    1.7501 C.2        1 <1>        0.000
      4 C30         2.1558    2.6081    2.0356 C.2        1 <1>        0.000
      5 C31         1.4524    2.2211    3.2559 C.2        1 <1>        0.000
      6 C32         1.9862    2.0801    4.4868 C.2        1 <1>        0.000
      7 C33         3.4057    2.2531    4.8748 C.2        1 <1>        0.000
      8 N2          3.8983    3.4861    5.0860 N.am       1 <1>        0.000
      9 O10         4.1209    1.2719    5.0215 O.2        1 <1>        0.000
     10 H           6.0378    1.9881    1.0421 H.spc      1 <1>        0.000
     11 H           5.8798    2.8644   -0.6227 H.spc      1 <1>        0.000
     12 H           3.5571    3.2578   -0.2185 H.spc      1 <1>        0.000
     13 H           3.9784    1.6942    2.4686 H.spc      1 <1>        0.000
     14 H           1.6019    3.1910    1.2997 H.spc      1 <1>        0.000
     15 H           0.3842    2.0257    3.1621 H.spc      1 <1>        0.000
     16 H           1.2959    1.8085    5.2854 H.spc      1 <1>        0.000
     17 H           4.8709    3.6051    5.3694 H.spc      1 <1>        0.000
     18 H           3.2994    4.3025    4.9629 H.spc      1 <1>        0.000
@<TRIPOS>BOND
     1    6    7 1  
     2    7    8 am 
     3    5    6 2  
     4    7    9 2  
     5    1    2 2  
     6    2    3 1  
     7    3    4 2  
     8    4    5 1  
     9    1   10 1  
    10    1   11 1  
    11    2   12 1  
    12    3   13 1  
    13    4   14 1  
    14    5   15 1  
    15    6   16 1  
    16    8   17 1  
    17    8   18 1  
# Name:          frag3-220-6/96164 -- energy: -1.763765
# Creation time: Sat Jun  5 12:53:14 2010


@<TRIPOS>MOLECULE
frag3-220-6/96164 -- energy: -1.763765
   18    17     1     1     1
SMALL
USER_CHARGES


@<TRIPOS>ATOM
      1 C26         4.9553    1.9957   -0.2196 C.2        1 <1>        0.000
      2 C28         4.2860    3.0770    0.2015 C.2        1 <1>        0.000
      3 C29         3.1550    3.0314    1.1285 C.2        1 <1>        0.000
      4 C30         3.0730    2.1837    2.1669 C.2        1 <1>        0.000
      5 C31         1.9416    2.0962    3.0883 C.2        1 <1>        0.000
      6 C32         1.9796    2.1445    4.4324 C.2        1 <1>        0.000
      7 C33         3.1810    2.2554    5.2923 C.2        1 <1>        0.000
      8 N2          4.2189    3.0177    4.9065 N.am       1 <1>        0.000
      9 O10         3.2183    1.6636    6.3620 O.2        1 <1>        0.000
     10 H           4.6656    1.0049    0.1304 H.spc      1 <1>        0.000
     11 H           5.7896    2.1067   -0.9123 H.spc      1 <1>        0.000
     12 H           4.6038    4.0514   -0.1696 H.spc      1 <1>        0.000
     13 H           2.3307    3.7261    0.9669 H.spc      1 <1>        0.000
     14 H           3.9134    1.5102    2.3353 H.spc      1 <1>        0.000
     15 H           0.9569    1.9787    2.6359 H.spc      1 <1>        0.000
     16 H           1.0193    2.0967    4.9459 H.spc      1 <1>        0.000
     17 H           5.0395    3.1034    5.5063 H.spc      1 <1>        0.000
     18 H           4.1858    3.5104    4.0140 H.spc      1 <1>        0.000
@<TRIPOS>BOND
     1    6    7 1  
     2    7    8 am 
     3    5    6 2  
     4    7    9 2  
     5    1    2 2  
     6    2    3 1  
     7    3    4 2  
     8    4    5 1  
     9    1   10 1  
    10    1   11 1  
    11    2   12 1  
    12    3   13 1  
    13    4   14 1  
    14    5   15 1  
    15    6   16 1  
    16    8   17 1  
    17    8   18 1  
# Name:          frag3-220-6/96164 -- energy: -1.603672
# Creation time: Sat Jun  5 12:53:14 2010


@<TRIPOS>MOLECULE
frag3-220-6/96164 -- energy: -1.603672
   18    17     1     1     1
SMALL
USER_CHARGES


@<TRIPOS>ATOM
      1 C26         5.1437    1.6697    0.1787 C.2        1 <1>        0.000
      2 C28         4.0904    2.4570   -0.0763 C.2        1 <1>        0.000
      3 C29         2.9801    2.6667    0.8453 C.2        1 <1>        0.000
      4 C30         3.0864    2.5877    2.1833 C.2        1 <1>        0.000
      5 C31         1.9925    2.7587    3.1296 C.2        1 <1>        0.000
      6 C32         2.0437    2.6722    4.4727 C.2        1 <1>        0.000
      7 C33         3.2295    2.3473    5.2991 C.2        1 <1>        0.000
      8 N2          3.3451    1.1203    5.8399 N.am       1 <1>        0.000
      9 O10         4.0975    3.1856    5.4867 O.2        1 <1>        0.000
     10 H           5.2081    1.1357    1.1268 H.spc      1 <1>        0.000
     11 H           5.9364    1.5630   -0.5619 H.spc      1 <1>        0.000
     12 H           4.0614    2.9746   -1.0351 H.spc      1 <1>        0.000
     13 H           2.0031    2.9022    0.4233 H.spc      1 <1>        0.000
     14 H           4.0740    2.3781    2.5942 H.spc      1 <1>        0.000
     15 H           1.0164    2.9834    2.6997 H.spc      1 <1>        0.000
     16 H           1.1136    2.8614    5.0087 H.spc      1 <1>        0.000
     17 H           4.1595    0.8882    6.4084 H.spc      1 <1>        0.000
     18 H           2.6183    0.4225    5.6812 H.spc      1 <1>        0.000
@<TRIPOS>BOND
     1    6    7 1  
     2    7    8 am 
     3    5    6 2  
     4    7    9 2  
     5    1    2 2  
     6    2    3 1  
     7    3    4 2  
     8    4    5 1  
     9    1   10 1  
    10    1   11 1  
    11    2   12 1  
    12    3   13 1  
    13    4   14 1  
    14    5   15 1  
    15    6   16 1  
    16    8   17 1  
    17    8   18 1  
# Name:          frag3-220-6/96164 -- energy: -2.103626
# Creation time: Sat Jun  5 12:53:14 2010


@<TRIPOS>MOLECULE
frag3-220-6/96164 -- energy: -2.103626
   18    17     1     1     1
SMALL
USER_CHARGES


@<TRIPOS>ATOM
      1 C26         4.3897    2.9567   -0.3946 C.2        1 <1>        0.000
      2 C28         4.7398    2.4126    0.7775 C.2        1 <1>        0.000
      3 C29         3.7961    2.0304    1.8195 C.2        1 <1>        0.000
      4 C30         2.6068    2.6270    2.0160 C.2        1 <1>        0.000
      5 C31         1.6597    2.2910    3.0700 C.2        1 <1>        0.000
      6 C32         1.9280    2.1445    4.3838 C.2        1 <1>        0.000
      7 C33         3.2474    2.2670    5.0482 C.2        1 <1>        0.000
      8 N2          4.0263    3.3344    4.8070 N.am       1 <1>        0.000
      9 O10         3.6148    1.4018    5.8314 O.2        1 <1>        0.000
     10 H           3.3387    3.1401   -0.6181 H.spc      1 <1>        0.000
     11 H           5.1556    3.2163   -1.1254 H.spc      1 <1>        0.000
     12 H           5.8004    2.2446    0.9644 H.spc      1 <1>        0.000
     13 H           4.0712    1.2093    2.4815 H.spc      1 <1>        0.000
     14 H           2.3291    3.4275    1.3303 H.spc      1 <1>        0.000
     15 H           0.6239    2.1421    2.7648 H.spc      1 <1>        0.000
     16 H           1.0808    1.9101    5.0283 H.spc      1 <1>        0.000
     17 H           4.9268    3.4253    5.2773 H.spc      1 <1>        0.000
     18 H           3.7173    4.0540    4.1535 H.spc      1 <1>        0.000
@<TRIPOS>BOND
     1    6    7 1  
     2    7    8 am 
     3    5    6 2  
     4    7    9 2  
     5    1    2 2  
     6    2    3 1  
     7    3    4 2  
     8    4    5 1  
     9    1   10 1  
    10    1   11 1  
    11    2   12 1  
    12    3   13 1  
    13    4   14 1  
    14    5   15 1  
    15    6   16 1  
    16    8   17 1  
    17    8   18 1  
# Name:          frag3-220-6/96164 -- energy: -1.793264
# Creation time: Sat Jun  5 12:53:14 2010


@<TRIPOS>MOLECULE
frag3-220-6/96164 -- energy: -1.793264
   18    17     1     1     1
SMALL
USER_CHARGES


@<TRIPOS>ATOM
      1 C26         4.6909    1.5360   -0.0121 C.2        1 <1>        0.000
      2 C28         4.4762    2.7682    0.4656 C.2        1 <1>        0.000
      3 C29         3.5697    3.0787    1.5606 C.2        1 <1>        0.000
      4 C30         2.6384    2.2300    2.0352 C.2        1 <1>        0.000
      5 C31         1.7024    2.5224    3.1083 C.2        1 <1>        0.000
      6 C32         1.9702    2.5945    4.4280 C.2        1 <1>        0.000
      7 C33         3.2737    2.3447    5.0878 C.2        1 <1>        0.000
      8 N2          4.0489    1.3270    4.6777 N.am       1 <1>        0.000
      9 O10         3.6383    3.0637    6.0078 O.2        1 <1>        0.000
     10 H           4.1693    0.6839    0.4238 H.spc      1 <1>        0.000
     11 H           5.3873    1.3849   -0.8369 H.spc      1 <1>        0.000
     12 H           5.0167    3.5941    0.0032 H.spc      1 <1>        0.000
     13 H           3.6497    4.0609    2.0263 H.spc      1 <1>        0.000
     14 H           2.5816    1.2426    1.5771 H.spc      1 <1>        0.000
     15 H           0.6688    2.7036    2.8133 H.spc      1 <1>        0.000
     16 H           1.1391    2.8655    5.0792 H.spc      1 <1>        0.000
     17 H           4.9443    1.1520    5.1338 H.spc      1 <1>        0.000
     18 H           3.7420    0.7293    3.9103 H.spc      1 <1>        0.000
@<TRIPOS>BOND
     1    6    7 1  
     2    7    8 am 
     3    5    6 2  
     4    7    9 2  
     5    1    2 2  
     6    2    3 1  
     7    3    4 2  
     8    4    5 1  
     9    1   10 1  
    10    1   11 1  
    11    2   12 1  
    12    3   13 1  
    13    4   14 1  
    14    5   15 1  
    15    6   16 1  
    16    8   17 1  
    17    8   18 1  
# Name:          frag3-220-6/96164 -- energy: -1.733568
# Creation time: Sat Jun  5 12:53:14 2010


@<TRIPOS>MOLECULE
frag3-220-6/96164 -- energy: -1.733568
   18    17     1     1     1
SMALL
USER_CHARGES


@<TRIPOS>ATOM
      1 C26         5.2913    1.9353    0.0543 C.2        1 <1>        0.000
      2 C28         4.1848    2.6059    0.3944 C.2        1 <1>        0.000
      3 C29         3.2709    2.2025    1.4624 C.2        1 <1>        0.000
      4 C30         2.4904    3.0479    2.1481 C.2        1 <1>        0.000
      5 C31         1.6011    2.6689    3.2452 C.2        1 <1>        0.000
      6 C32         1.9584    2.3408    4.5025 C.2        1 <1>        0.000
      7 C33         3.3313    2.2634    5.0532 C.2        1 <1>        0.000
      8 N2          4.2804    1.5735    4.3949 N.am       1 <1>        0.000
      9 O10         3.6001    2.8271    6.1040 O.2        1 <1>        0.000
     10 H           5.5612    1.0233    0.5868 H.spc      1 <1>        0.000
     11 H           5.9230    2.3009   -0.7553 H.spc      1 <1>        0.000
     12 H           3.9487    3.5133   -0.1615 H.spc      1 <1>        0.000
     13 H           3.2216    1.1439    1.7173 H.spc      1 <1>        0.000
     14 H           2.5205    4.1004    1.8663 H.spc      1 <1>        0.000
     15 H           0.5344    2.6497    3.0221 H.spc      1 <1>        0.000
     16 H           1.1466    2.1062    5.1910 H.spc      1 <1>        0.000
     17 H           5.2264    1.5201    4.7725 H.spc      1 <1>        0.000
     18 H           4.0539    1.1039    3.5182 H.spc      1 <1>        0.000
@<TRIPOS>BOND
     1    6    7 1  
     2    7    8 am 
     3    5    6 2  
     4    7    9 2  
     5    1    2 2  
     6    2    3 1  
     7    3    4 2  
     8    4    5 1  
     9    1   10 1  
    10    1   11 1  
    11    2   12 1  
    12    3   13 1  
    13    4   14 1  
    14    5   15 1  
    15    6   16 1  
    16    8   17 1  
    17    8   18 1  
# Name:          frag3-220-6/96164 -- energy: -1.628033
# Creation time: Sat Jun  5 12:53:14 2010


@<TRIPOS>MOLECULE
frag3-220-6/96164 -- energy: -1.628033
   18    17     1     1     1
SMALL
USER_CHARGES


@<TRIPOS>ATOM
      1 C26         4.8365    1.8648   -0.4051 C.2        1 <1>        0.000
      2 C28         4.3903    2.9747    0.1968 C.2        1 <1>        0.000
      3 C29         3.2451    3.0142    1.1010 C.2        1 <1>        0.000
      4 C30         3.1123    2.2277    2.1822 C.2        1 <1>        0.000
      5 C31         1.9649    2.2232    3.0829 C.2        1 <1>        0.000
      6 C32         1.9794    2.2629    4.4290 C.2        1 <1>        0.000
      7 C33         3.1705    2.2751    5.3101 C.2        1 <1>        0.000
      8 N2          3.1878    3.0733    6.3942 N.am       1 <1>        0.000
      9 O10         4.1219    1.5494    5.0677 O.2        1 <1>        0.000
     10 H           4.3364    0.9120   -0.2314 H.spc      1 <1>        0.000
     11 H           5.6998    1.9142   -1.0687 H.spc      1 <1>        0.000
     12 H           4.9161    3.9087   -0.0012 H.spc      1 <1>        0.000
     13 H           2.4482    3.7260    0.8857 H.spc      1 <1>        0.000
     14 H           3.9268    1.5381    2.4040 H.spc      1 <1>        0.000
     15 H           0.9826    2.1831    2.6122 H.spc      1 <1>        0.000
     16 H           1.0088    2.2889    4.9244 H.spc      1 <1>        0.000
     17 H           3.9970    3.0726    7.0152 H.spc      1 <1>        0.000
     18 H           2.3917    3.6787    6.5945 H.spc      1 <1>        0.000
@<TRIPOS>BOND
     1    6    7 1  
     2    7    8 am 
     3    5    6 2  
     4    7    9 2  
     5    1    2 2  
     6    2    3 1  
     7    3    4 2  
     8    4    5 1  
     9    1   10 1  
    10    1   11 1  
    11    2   12 1  
    12    3   13 1  
    13    4   14 1  
    14    5   15 1  
    15    6   16 1  
    16    8   17 1  
    17    8   18 1  
# Name:          frag3-220-6/96164 -- energy: -1.673103
# Creation time: Sat Jun  5 12:53:14 2010


@<TRIPOS>MOLECULE
frag3-220-6/96164 -- energy: -1.673103
   18    17     1     1     1
SMALL
USER_CHARGES


@<TRIPOS>ATOM
      1 C26         4.5908    2.8208   -0.4449 C.2        1 <1>        0.000
      2 C28         4.5880    1.9396    0.5631 C.2        1 <1>        0.000
      3 C29         3.4974    1.7951    1.5236 C.2        1 <1>        0.000
      4 C30         2.8674    2.8289    2.1054 C.2        1 <1>        0.000
      5 C31         1.7988    2.7148    3.0934 C.2        1 <1>        0.000
      6 C32         1.9358    2.5185    4.4197 C.2        1 <1>        0.000
      7 C33         3.1997    2.3505    5.1744 C.2        1 <1>        0.000
      8 N2          4.2002    1.6177    4.6552 N.am       1 <1>        0.000
      9 O10         3.3306    2.8794    6.2691 O.2        1 <1>        0.000
     10 H           3.7412    3.4885   -0.5874 H.spc      1 <1>        0.000
     11 H           5.4427    2.8705   -1.1230 H.spc      1 <1>        0.000
     12 H           5.4551    1.2885    0.6739 H.spc      1 <1>        0.000
     13 H           3.1751    0.7870    1.7842 H.spc      1 <1>        0.000
     14 H           3.1788    3.8328    1.8169 H.spc      1 <1>        0.000
     15 H           0.7790    2.7974    2.7175 H.spc      1 <1>        0.000
     16 H           1.0149    2.4790    5.0015 H.spc      1 <1>        0.000
     17 H           5.0704    1.5021    5.1746 H.spc      1 <1>        0.000
     18 H           4.0890    1.1773    3.7419 H.spc      1 <1>        0.000
@<TRIPOS>BOND
     1    6    7 1  
     2    7    8 am 
     3    5    6 2  
     4    7    9 2  
     5    1    2 2  
     6    2    3 1  
     7    3    4 2  
     8    4    5 1  
     9    1   10 1  
    10    1   11 1  
    11    2   12 1  
    12    3   13 1  
    13    4   14 1  
    14    5   15 1  
    15    6   16 1  
    16    8   17 1  
    17    8   18 1  
# Name:          frag3-220-6/96164 -- energy: -1.750082
# Creation time: Sat Jun  5 12:53:14 2010


@<TRIPOS>MOLECULE
frag3-220-6/96164 -- energy: -1.750082
   18    17     1     1     1
SMALL
USER_CHARGES


@<TRIPOS>ATOM
      1 C26         5.1195    1.7519    0.2650 C.2        1 <1>        0.000
      2 C28         4.3302    2.8145    0.4600 C.2        1 <1>        0.000
      3 C29         3.4652    2.9977    1.6141 C.2        1 <1>        0.000
      4 C30         2.4864    2.1456    1.9724 C.2        1 <1>        0.000
      5 C31         1.5952    2.3201    3.1091 C.2        1 <1>        0.000
      6 C32         1.9439    2.4328    4.4095 C.2        1 <1>        0.000
      7 C33         3.3115    2.3567    4.9744 C.2        1 <1>        0.000
      8 N2          3.4810    2.4649    6.3062 N.am       1 <1>        0.000
      9 O10         4.2759    2.1811    4.2482 O.2        1 <1>        0.000
     10 H           5.1424    0.9477    1.0004 H.spc      1 <1>        0.000
     11 H           5.7396    1.6904   -0.6293 H.spc      1 <1>        0.000
     12 H           4.3361    3.5969   -0.2989 H.spc      1 <1>        0.000
     13 H           3.6194    3.8836    2.2301 H.spc      1 <1>        0.000
     14 H           2.3507    1.2530    1.3617 H.spc      1 <1>        0.000
     15 H           0.5290    2.3648    2.8872 H.spc      1 <1>        0.000
     16 H           1.1326    2.5972    5.1187 H.spc      1 <1>        0.000
     17 H           4.4162    2.4000    6.7082 H.spc      1 <1>        0.000
     18 H           2.6742    2.6117    6.9127 H.spc      1 <1>        0.000
@<TRIPOS>BOND
     1    6    7 1  
     2    7    8 am 
     3    5    6 2  
     4    7    9 2  
     5    1    2 2  
     6    2    3 1  
     7    3    4 2  
     8    4    5 1  
     9    1   10 1  
    10    1   11 1  
    11    2   12 1  
    12    3   13 1  
    13    4   14 1  
    14    5   15 1  
    15    6   16 1  
    16    8   17 1  
    17    8   18 1  
# Name:          frag3-220-6/96164 -- energy: -1.795448
# Creation time: Sat Jun  5 12:53:14 2010


@<TRIPOS>MOLECULE
frag3-220-6/96164 -- energy: -1.795448
   18    17     1     1     1
SMALL
USER_CHARGES


@<TRIPOS>ATOM
      1 C26         5.1405    2.9562    0.2977 C.2        1 <1>        0.000
      2 C28         4.3048    1.9152    0.4042 C.2        1 <1>        0.000
      3 C29         3.3435    1.7410    1.4839 C.2        1 <1>        0.000
      4 C30         2.5900    2.7318    1.9925 C.2        1 <1>        0.000
      5 C31         1.6535    2.5987    3.0993 C.2        1 <1>        0.000
      6 C32         1.9520    2.4552    4.4084 C.2        1 <1>        0.000
      7 C33         3.3026    2.3780    5.0123 C.2        1 <1>        0.000
      8 N2          3.4394    2.5201    6.3448 N.am       1 <1>        0.000
      9 O10         4.2823    2.1690    4.3158 O.2        1 <1>        0.000
     10 H           5.1282    3.7442    1.0507 H.spc      1 <1>        0.000
     11 H           5.8330    3.0155   -0.5420 H.spc      1 <1>        0.000
     12 H           4.3470    1.1475   -0.3685 H.spc      1 <1>        0.000
     13 H           3.2272    0.7433    1.9071 H.spc      1 <1>        0.000
     14 H           2.6886    3.7176    1.5379 H.spc      1 <1>        0.000
     15 H           0.5943    2.6169    2.8428 H.spc      1 <1>        0.000
     16 H           1.1080    2.3890    5.0950 H.spc      1 <1>        0.000
     17 H           4.3629    2.4530    6.7727 H.spc      1 <1>        0.000
     18 H           2.6195    2.6948    6.9259 H.spc      1 <1>        0.000
@<TRIPOS>BOND
     1    6    7 1  
     2    7    8 am 
     3    5    6 2  
     4    7    9 2  
     5    1    2 2  
     6    2    3 1  
     7    3    4 2  
     8    4    5 1  
     9    1   10 1  
    10    1   11 1  
    11    2   12 1  
    12    3   13 1  
    13    4   14 1  
    14    5   15 1  
    15    6   16 1  
    16    8   17 1  
    17    8   18 1  
# Name:          frag3-220-6/96164 -- energy: -1.930961
# Creation time: Sat Jun  5 12:53:14 2010


@<TRIPOS>MOLECULE
frag3-220-6/96164 -- energy: -1.930961
   18    17     1     1     1
SMALL
USER_CHARGES


@<TRIPOS>ATOM
      1 C26         4.4679    2.7300   -0.5309 C.2        1 <1>        0.000
      2 C28         4.7315    2.5127    0.7634 C.2        1 <1>        0.000
      3 C29         3.7660    2.6962    1.8406 C.2        1 <1>        0.000
      4 C30         2.6762    1.9290    2.0172 C.2        1 <1>        0.000
      5 C31         1.6789    2.1194    3.0637 C.2        1 <1>        0.000
      6 C32         1.9099    2.3199    4.3780 C.2        1 <1>        0.000
      7 C33         3.2238    2.3454    5.0622 C.2        1 <1>        0.000
      8 N2          3.6312    3.4688    5.6806 N.am       1 <1>        0.000
      9 O10         3.9232    1.3438    5.0842 O.2        1 <1>        0.000
     10 H           3.4772    3.0668   -0.8363 H.spc      1 <1>        0.000
     11 H           5.2439    2.5702   -1.2794 H.spc      1 <1>        0.000
     12 H           5.7336    2.1765    1.0295 H.spc      1 <1>        0.000
     13 H           3.9389    3.5073    2.5479 H.spc      1 <1>        0.000
     14 H           2.5266    1.1007    1.3246 H.spc      1 <1>        0.000
     15 H           0.6350    2.0974    2.7509 H.spc      1 <1>        0.000
     16 H           1.0332    2.4808    5.0054 H.spc      1 <1>        0.000
     17 H           4.5262    3.4859    6.1696 H.spc      1 <1>        0.000
     18 H           3.0450    4.3033    5.6604 H.spc      1 <1>        0.000
@<TRIPOS>BOND
     1    6    7 1  
     2    7    8 am 
     3    5    6 2  
     4    7    9 2  
     5    1    2 2  
     6    2    3 1  
     7    3    4 2  
     8    4    5 1  
     9    1   10 1  
    10    1   11 1  
    11    2   12 1  
    12    3   13 1  
    13    4   14 1  
    14    5   15 1  
    15    6   16 1  
    16    8   17 1  
    17    8   18 1  
# Name:          frag3-220-6/96164 -- energy: -1.611782
# Creation time: Sat Jun  5 12:53:14 2010


@<TRIPOS>MOLECULE
frag3-220-6/96164 -- energy: -1.611782
   18    17     1     1     1
SMALL
USER_CHARGES


@<TRIPOS>ATOM
      1 C26         4.9790    2.8524   -0.4991 C.2        1 <1>        0.000
      2 C28         4.4510    2.0987    0.4709 C.2        1 <1>        0.000
      3 C29         3.5301    2.5878    1.4905 C.2        1 <1>        0.000
      4 C30         2.6423    1.8238    2.1444 C.2        1 <1>        0.000
      5 C31         1.6940    2.3055    3.1424 C.2        1 <1>        0.000
      6 C32         1.9472    2.5931    4.4359 C.2        1 <1>        0.000
      7 C33         3.2356    2.4359    5.1499 C.2        1 <1>        0.000
      8 N2          3.3290    2.8220    6.4375 N.am       1 <1>        0.000
      9 O10         4.2005    1.9460    4.5865 O.2        1 <1>        0.000
     10 H           4.7272    3.9109   -0.5650 H.spc      1 <1>        0.000
     11 H           5.6612    2.4084   -1.2240 H.spc      1 <1>        0.000
     12 H           4.7282    1.0450    0.5018 H.spc      1 <1>        0.000
     13 H           3.5657    3.6486    1.7386 H.spc      1 <1>        0.000
     14 H           2.6285    0.7591    1.9115 H.spc      1 <1>        0.000
     15 H           0.6672    2.4490    2.8059 H.spc      1 <1>        0.000
     16 H           1.1132    2.9836    5.0190 H.spc      1 <1>        0.000
     17 H           4.2074    2.7049    6.9426 H.spc      1 <1>        0.000
     18 H           2.5213    3.2314    6.9070 H.spc      1 <1>        0.000
@<TRIPOS>BOND
     1    6    7 1  
     2    7    8 am 
     3    5    6 2  
     4    7    9 2  
     5    1    2 2  
     6    2    3 1  
     7    3    4 2  
     8    4    5 1  
     9    1   10 1  
    10    1   11 1  
    11    2   12 1  
    12    3   13 1  
    13    4   14 1  
    14    5   15 1  
    15    6   16 1  
    16    8   17 1  
    17    8   18 1  
# Name:          frag3-220-6/96164 -- energy: -1.808262
# Creation time: Sat Jun  5 12:53:14 2010


@<TRIPOS>MOLECULE
frag3-220-6/96164 -- energy: -1.808262
   18    17     1     1     1
SMALL
USER_CHARGES


@<TRIPOS>ATOM
      1 C26         5.4814    2.1528    0.4345 C.2        1 <1>        0.000
      2 C28         4.1475    2.2457    0.4602 C.2        1 <1>        0.000
      3 C29         3.3285    2.0664    1.6507 C.2        1 <1>        0.000
      4 C30         2.3041    2.8594    1.9995 C.2        1 <1>        0.000
      5 C31         1.5032    2.7211    3.2093 C.2        1 <1>        0.000
      6 C32         1.9566    2.5188    4.4658 C.2        1 <1>        0.000
      7 C33         3.3680    2.3697    4.8932 C.2        1 <1>        0.000
      8 N2          3.6512    1.6458    5.9935 N.am       1 <1>        0.000
      9 O10         4.2683    2.8856    4.2522 O.2        1 <1>        0.000
     10 H           6.0298    1.9284    1.3494 H.spc      1 <1>        0.000
     11 H           6.0201    2.3015   -0.5013 H.spc      1 <1>        0.000
     12 H           3.6374    2.4716   -0.4762 H.spc      1 <1>        0.000
     13 H           3.5647    1.2276    2.3055 H.spc      1 <1>        0.000
     14 H           2.0497    3.6746    1.3221 H.spc      1 <1>        0.000
     15 H           0.4221    2.7881    3.0872 H.spc      1 <1>        0.000
     16 H           1.2025    2.4587    5.2505 H.spc      1 <1>        0.000
     17 H           4.6196    1.5286    6.2915 H.spc      1 <1>        0.000
     18 H           2.8972    1.2150    6.5285 H.spc      1 <1>        0.000
@<TRIPOS>BOND
     1    6    7 1  
     2    7    8 am 
     3    5    6 2  
     4    7    9 2  
     5    1    2 2  
     6    2    3 1  
     7    3    4 2  
     8    4    5 1  
     9    1   10 1  
    10    1   11 1  
    11    2   12 1  
    12    3   13 1  
    13    4   14 1  
    14    5   15 1  
    15    6   16 1  
    16    8   17 1  
    17    8   18 1  
