#      Rotatable Fragment
#      Build by yxyuan
#
# Name:          frag5-617-33/41815
# Creation time: Sat Jun  5 12:52:59 2010


@<TRIPOS>MOLECULE
frag5-617-33/41815
   43    46     1     1     1
SMALL
USER_CHARGES


@<TRIPOS>ATOM
      1 N3          2.2505   -2.9987    1.3607 N.am       1 <1>        0.000
      2 C8          2.7054   -1.7307    1.2483 C.2        1 <1>        0.000
      3 O2          2.5386   -0.9424    2.1691 O.2        1 <1>        0.000
      4 C9          3.3778   -1.2627    0.0117 C.2        1 <1>        0.000
      5 C10         4.5008   -0.5168    0.0765 C.2        1 <1>        0.000
      6 C11         5.1828    0.0196   -1.1638 C.3        1 <1>        0.000
      7 C12         4.1838    0.2445   -2.3153 C.3        1 <1>        0.000
      8 C21        -2.0453    3.3866   -5.4708 C.ar       1 <1>        0.000
      9 C13         3.3633   -1.0287   -2.5974 C.3        1 <1>        0.000
     10 C14         2.1574   -0.7848   -3.4869 C.2        1 <1>        0.000
     11 C15         1.6476    0.4389   -3.7612 C.2        1 <1>        0.000
     12 C16         2.2681    1.6775   -3.1803 C.3        1 <1>        0.000
     13 C17         1.1927    2.6902   -2.7372 C.3        1 <1>        0.000
     14 C18         0.1147    2.9547   -3.7558 C.ar       1 <1>        0.000
     15 C19        -0.3126    1.9351   -4.6224 C.ar       1 <1>        0.000
     16 C20        -1.4513    2.1092   -5.4273 C.ar       1 <1>        0.000
     17 C22        -1.5604    4.4418   -4.7043 C.ar       1 <1>        0.000
     18 C23        -0.4908    4.2193   -3.8462 C.ar       1 <1>        0.000
     19 O3         -1.9688    1.0597   -6.1456 O.3        1 <1>        0.000
     20 C24         0.4660    0.6238   -4.6406 C.2        1 <1>        0.000
     21 O4          0.1146   -0.2660   -5.4013 O.2        1 <1>        0.000
     22 C26         3.2082    1.3882   -1.9932 C.3        1 <1>        0.000
     23 O6          1.6370   -1.9229   -3.9713 O.3        1 <1>        0.000
     24 C27         2.8428   -1.6254   -1.3111 C.2        1 <1>        0.000
     25 O7          1.9282   -2.4455   -1.3650 O.2        1 <1>        0.000
     26 O9          5.0505   -0.2268    1.2677 O.3        1 <1>        0.000
     27 H           1.7705   -3.2949    2.2106 H.spc      1 <1>        0.000
     28 H           2.3873   -3.6593    0.5957 H.spc      1 <1>        0.000
     29 H           5.9229   -0.7109   -1.4905 H.spc      1 <1>        0.000
     30 H           5.6404    0.9773   -0.9157 H.spc      1 <1>        0.000
     31 H           4.7734    0.5041   -3.1946 H.spc      1 <1>        0.000
     32 H          -2.9049    3.5518   -6.1203 H.spc      1 <1>        0.000
     33 H           4.0525   -1.7016   -3.1075 H.spc      1 <1>        0.000
     34 H           2.8682    2.1037   -3.9843 H.spc      1 <1>        0.000
     35 H           0.7023    2.2672   -1.8605 H.spc      1 <1>        0.000
     36 H           1.7030    3.6376   -2.5638 H.spc      1 <1>        0.000
     37 H          -2.0140    5.4303   -4.7762 H.spc      1 <1>        0.000
     38 H          -0.1154    5.0388   -3.2333 H.spc      1 <1>        0.000
     39 H          -2.7396    1.3572   -6.6344 H.spc      1 <1>        0.000
     40 H           2.6025    1.0951   -1.1357 H.spc      1 <1>        0.000
     41 H           3.7869    2.2877   -1.7830 H.spc      1 <1>        0.000
     42 H           2.1506   -2.6690   -3.6533 H.spc      1 <1>        0.000
     43 H           5.8371    0.3072    1.1344 H.spc      1 <1>        0.000
@<TRIPOS>BOND
     1    2    4 1  
     2    5    6 1  
     3    2    3 2  
     4    5   26 1  
     5    4   24 1  
     6    1    2 am 
     7    4    5 2  
     8   24   25 2  
     9   20   21 2  
    10   17   18 ar 
    11    8   17 ar 
    12   16   19 1  
    13   15   20 1  
    14   15   16 ar 
    15   16    8 ar 
    16   14   18 ar 
    17   14   15 ar 
    18   13   14 1  
    19   12   22 1  
    20   12   13 1  
    21   11   20 1  
    22   10   23 1  
    23   11   12 1  
    24   10   11 2  
    25    9   24 1  
    26    9   10 1  
    27    7   22 1  
    28    7    9 1  
    29    6    7 1  
    30    1   27 1  
    31    1   28 1  
    32    6   29 1  
    33    6   30 1  
    34    7   31 1  
    35    8   32 1  
    36    9   33 1  
    37   12   34 1  
    38   13   35 1  
    39   13   36 1  
    40   17   37 1  
    41   18   38 1  
    42   19   39 1  
    43   22   40 1  
    44   22   41 1  
    45   23   42 1  
    46   26   43 1  
# Name:          frag5-617-33/41815
# Creation time: Sat Jun  5 12:52:59 2010


@<TRIPOS>MOLECULE
frag5-617-33/41815
   43    46     1     1     1
SMALL
USER_CHARGES


@<TRIPOS>ATOM
      1 N3          2.3372   -0.9080    2.2204 N.am       1 <1>        0.000
      2 C8          2.7011   -1.7572    1.2353 C.2        1 <1>        0.000
      3 O2          2.4649   -2.9539    1.3443 O.2        1 <1>        0.000
      4 C9          3.3759   -1.2730    0.0053 C.2        1 <1>        0.000
      5 C10         4.4946   -0.5233    0.0797 C.2        1 <1>        0.000
      6 C11         5.1797    0.0256   -1.1533 C.3        1 <1>        0.000
      7 C12         4.1835    0.2527   -2.3088 C.3        1 <1>        0.000
      8 C21        -2.0512    3.3794   -5.4698 C.ar       1 <1>        0.000
      9 C13         3.3713   -1.0245   -2.6021 C.3        1 <1>        0.000
     10 C14         2.1684   -0.7807   -3.4950 C.2        1 <1>        0.000
     11 C15         1.6520    0.4407   -3.7646 C.2        1 <1>        0.000
     12 C16         2.2629    1.6797   -3.1723 C.3        1 <1>        0.000
     13 C17         1.1796    2.6834   -2.7247 C.3        1 <1>        0.000
     14 C18         0.1033    2.9484   -3.7488 C.ar       1 <1>        0.000
     15 C19        -0.3128    1.9312   -4.6225 C.ar       1 <1>        0.000
     16 C20        -1.4485    2.1067   -5.4307 C.ar       1 <1>        0.000
     17 C22        -1.5757    4.4320   -4.6928 C.ar       1 <1>        0.000
     18 C23        -0.5080    4.2102   -3.8310 C.ar       1 <1>        0.000
     19 O3         -1.9572    1.0573   -6.1606 O.3        1 <1>        0.000
     20 C24         0.4731    0.6255   -4.6472 C.2        1 <1>        0.000
     21 O4          0.1316   -0.2596   -5.4166 O.2        1 <1>        0.000
     22 C26         3.1991    1.3884   -1.9807 C.3        1 <1>        0.000
     23 O6          1.6525   -1.9152   -3.9920 O.3        1 <1>        0.000
     24 C27         2.8485   -1.6334   -1.3223 C.2        1 <1>        0.000
     25 O7          1.9405   -2.4568   -1.3875 O.2        1 <1>        0.000
     26 O9          5.0354   -0.2378    1.2757 O.3        1 <1>        0.000
     27 H           1.8669   -1.2638    3.0526 H.spc      1 <1>        0.000
     28 H           2.5327    0.0892    2.1322 H.spc      1 <1>        0.000
     29 H           5.9259   -0.6980   -1.4814 H.spc      1 <1>        0.000
     30 H           5.6309    0.9840   -0.8965 H.spc      1 <1>        0.000
     31 H           4.7742    0.5219   -3.1844 H.spc      1 <1>        0.000
     32 H          -2.9085    3.5435   -6.1227 H.spc      1 <1>        0.000
     33 H           4.0668   -1.6906   -3.1127 H.spc      1 <1>        0.000
     34 H           2.8633    2.1137   -3.9719 H.spc      1 <1>        0.000
     35 H           0.6883    2.2519   -1.8526 H.spc      1 <1>        0.000
     36 H           1.6831    3.6325   -2.5409 H.spc      1 <1>        0.000
     37 H          -2.0351    5.4182   -4.7594 H.spc      1 <1>        0.000
     38 H          -0.1399    5.0270   -3.2102 H.spc      1 <1>        0.000
     39 H          -2.7275    1.3537   -6.6509 H.spc      1 <1>        0.000
     40 H           2.5916    1.0858   -1.1278 H.spc      1 <1>        0.000
     41 H           3.7704    2.2900   -1.7595 H.spc      1 <1>        0.000
     42 H           2.1662   -2.6632   -3.6786 H.spc      1 <1>        0.000
     43 H           5.8206    0.3002    1.1504 H.spc      1 <1>        0.000
@<TRIPOS>BOND
     1    2    4 1  
     2    5    6 1  
     3    2    3 2  
     4    5   26 1  
     5    4   24 1  
     6    1    2 am 
     7    4    5 2  
     8   24   25 2  
     9   20   21 2  
    10   17   18 ar 
    11    8   17 ar 
    12   16   19 1  
    13   15   20 1  
    14   15   16 ar 
    15   16    8 ar 
    16   14   18 ar 
    17   14   15 ar 
    18   13   14 1  
    19   12   22 1  
    20   12   13 1  
    21   11   20 1  
    22   10   23 1  
    23   11   12 1  
    24   10   11 2  
    25    9   24 1  
    26    9   10 1  
    27    7   22 1  
    28    7    9 1  
    29    6    7 1  
    30    1   27 1  
    31    1   28 1  
    32    6   29 1  
    33    6   30 1  
    34    7   31 1  
    35    8   32 1  
    36    9   33 1  
    37   12   34 1  
    38   13   35 1  
    39   13   36 1  
    40   17   37 1  
    41   18   38 1  
    42   19   39 1  
    43   22   40 1  
    44   22   41 1  
    45   23   42 1  
    46   26   43 1  
# Name:          frag5-617-33/41815 -- energy: -5.686639
# Creation time: Sat Jun  5 12:52:59 2010


@<TRIPOS>MOLECULE
frag5-617-33/41815 -- energy: -5.686639
   43    46     1     1     1
SMALL
USER_CHARGES


@<TRIPOS>ATOM
      1 N3          2.2505   -2.9987    1.3607 N.am       1 <1>        0.000
      2 C8          2.7054   -1.7307    1.2483 C.2        1 <1>        0.000
      3 O2          2.5386   -0.9424    2.1691 O.2        1 <1>        0.000
      4 C9          3.3778   -1.2627    0.0117 C.2        1 <1>        0.000
      5 C10         4.5008   -0.5168    0.0765 C.2        1 <1>        0.000
      6 C11         5.1828    0.0196   -1.1638 C.3        1 <1>        0.000
      7 C12         4.1838    0.2445   -2.3153 C.3        1 <1>        0.000
      8 C21        -2.0453    3.3866   -5.4708 C.ar       1 <1>        0.000
      9 C13         3.3633   -1.0287   -2.5974 C.3        1 <1>        0.000
     10 C14         2.1574   -0.7848   -3.4869 C.2        1 <1>        0.000
     11 C15         1.6476    0.4389   -3.7612 C.2        1 <1>        0.000
     12 C16         2.2681    1.6775   -3.1803 C.3        1 <1>        0.000
     13 C17         1.1927    2.6902   -2.7372 C.3        1 <1>        0.000
     14 C18         0.1147    2.9547   -3.7558 C.ar       1 <1>        0.000
     15 C19        -0.3126    1.9351   -4.6224 C.ar       1 <1>        0.000
     16 C20        -1.4513    2.1092   -5.4273 C.ar       1 <1>        0.000
     17 C22        -1.5604    4.4418   -4.7043 C.ar       1 <1>        0.000
     18 C23        -0.4908    4.2193   -3.8462 C.ar       1 <1>        0.000
     19 O3         -1.9688    1.0597   -6.1456 O.3        1 <1>        0.000
     20 C24         0.4660    0.6238   -4.6406 C.2        1 <1>        0.000
     21 O4          0.1146   -0.2660   -5.4013 O.2        1 <1>        0.000
     22 C26         3.2082    1.3882   -1.9932 C.3        1 <1>        0.000
     23 O6          1.6370   -1.9229   -3.9713 O.3        1 <1>        0.000
     24 C27         2.8428   -1.6254   -1.3111 C.2        1 <1>        0.000
     25 O7          1.9282   -2.4455   -1.3650 O.2        1 <1>        0.000
     26 O9          5.0505   -0.2268    1.2677 O.3        1 <1>        0.000
     27 H           1.7705   -3.2949    2.2106 H.spc      1 <1>        0.000
     28 H           2.3873   -3.6593    0.5957 H.spc      1 <1>        0.000
     29 H           5.9229   -0.7109   -1.4905 H.spc      1 <1>        0.000
     30 H           5.6404    0.9773   -0.9157 H.spc      1 <1>        0.000
     31 H           4.7734    0.5041   -3.1946 H.spc      1 <1>        0.000
     32 H          -2.9049    3.5518   -6.1203 H.spc      1 <1>        0.000
     33 H           4.0525   -1.7016   -3.1075 H.spc      1 <1>        0.000
     34 H           2.8682    2.1037   -3.9843 H.spc      1 <1>        0.000
     35 H           0.7023    2.2672   -1.8605 H.spc      1 <1>        0.000
     36 H           1.7030    3.6376   -2.5638 H.spc      1 <1>        0.000
     37 H          -2.0140    5.4303   -4.7762 H.spc      1 <1>        0.000
     38 H          -0.1154    5.0388   -3.2333 H.spc      1 <1>        0.000
     39 H          -2.7396    1.3572   -6.6344 H.spc      1 <1>        0.000
     40 H           2.6025    1.0951   -1.1357 H.spc      1 <1>        0.000
     41 H           3.7869    2.2877   -1.7830 H.spc      1 <1>        0.000
     42 H           2.1506   -2.6690   -3.6533 H.spc      1 <1>        0.000
     43 H           5.8371    0.3072    1.1344 H.spc      1 <1>        0.000
@<TRIPOS>BOND
     1    2    4 1  
     2    5    6 1  
     3    2    3 2  
     4    5   26 1  
     5    4   24 1  
     6    1    2 am 
     7    4    5 2  
     8   24   25 2  
     9   20   21 2  
    10   17   18 ar 
    11    8   17 ar 
    12   16   19 1  
    13   15   20 1  
    14   15   16 ar 
    15   16    8 ar 
    16   14   18 ar 
    17   14   15 ar 
    18   13   14 1  
    19   12   22 1  
    20   12   13 1  
    21   11   20 1  
    22   10   23 1  
    23   11   12 1  
    24   10   11 2  
    25    9   24 1  
    26    9   10 1  
    27    7   22 1  
    28    7    9 1  
    29    6    7 1  
    30    1   27 1  
    31    1   28 1  
    32    6   29 1  
    33    6   30 1  
    34    7   31 1  
    35    8   32 1  
    36    9   33 1  
    37   12   34 1  
    38   13   35 1  
    39   13   36 1  
    40   17   37 1  
    41   18   38 1  
    42   19   39 1  
    43   22   40 1  
    44   22   41 1  
    45   23   42 1  
    46   26   43 1  
# Name:          frag5-617-33/41815 -- energy: -5.978269
# Creation time: Sat Jun  5 12:52:59 2010


@<TRIPOS>MOLECULE
frag5-617-33/41815 -- energy: -5.978269
   43    46     1     1     1
SMALL
USER_CHARGES


@<TRIPOS>ATOM
      1 N3          2.3372   -0.9080    2.2204 N.am       1 <1>        0.000
      2 C8          2.7011   -1.7572    1.2353 C.2        1 <1>        0.000
      3 O2          2.4649   -2.9539    1.3443 O.2        1 <1>        0.000
      4 C9          3.3759   -1.2730    0.0053 C.2        1 <1>        0.000
      5 C10         4.4946   -0.5233    0.0797 C.2        1 <1>        0.000
      6 C11         5.1797    0.0256   -1.1533 C.3        1 <1>        0.000
      7 C12         4.1835    0.2527   -2.3088 C.3        1 <1>        0.000
      8 C21        -2.0512    3.3794   -5.4698 C.ar       1 <1>        0.000
      9 C13         3.3713   -1.0245   -2.6021 C.3        1 <1>        0.000
     10 C14         2.1684   -0.7807   -3.4950 C.2        1 <1>        0.000
     11 C15         1.6520    0.4407   -3.7646 C.2        1 <1>        0.000
     12 C16         2.2629    1.6797   -3.1723 C.3        1 <1>        0.000
     13 C17         1.1796    2.6834   -2.7247 C.3        1 <1>        0.000
     14 C18         0.1033    2.9484   -3.7488 C.ar       1 <1>        0.000
     15 C19        -0.3128    1.9312   -4.6225 C.ar       1 <1>        0.000
     16 C20        -1.4485    2.1067   -5.4307 C.ar       1 <1>        0.000
     17 C22        -1.5757    4.4320   -4.6928 C.ar       1 <1>        0.000
     18 C23        -0.5080    4.2102   -3.8310 C.ar       1 <1>        0.000
     19 O3         -1.9572    1.0573   -6.1606 O.3        1 <1>        0.000
     20 C24         0.4731    0.6255   -4.6472 C.2        1 <1>        0.000
     21 O4          0.1316   -0.2596   -5.4166 O.2        1 <1>        0.000
     22 C26         3.1991    1.3884   -1.9807 C.3        1 <1>        0.000
     23 O6          1.6525   -1.9152   -3.9920 O.3        1 <1>        0.000
     24 C27         2.8485   -1.6334   -1.3223 C.2        1 <1>        0.000
     25 O7          1.9405   -2.4568   -1.3875 O.2        1 <1>        0.000
     26 O9          5.0354   -0.2378    1.2757 O.3        1 <1>        0.000
     27 H           1.8669   -1.2638    3.0526 H.spc      1 <1>        0.000
     28 H           2.5327    0.0892    2.1322 H.spc      1 <1>        0.000
     29 H           5.9259   -0.6980   -1.4814 H.spc      1 <1>        0.000
     30 H           5.6309    0.9840   -0.8965 H.spc      1 <1>        0.000
     31 H           4.7742    0.5219   -3.1844 H.spc      1 <1>        0.000
     32 H          -2.9085    3.5435   -6.1227 H.spc      1 <1>        0.000
     33 H           4.0668   -1.6906   -3.1127 H.spc      1 <1>        0.000
     34 H           2.8633    2.1137   -3.9719 H.spc      1 <1>        0.000
     35 H           0.6883    2.2519   -1.8526 H.spc      1 <1>        0.000
     36 H           1.6831    3.6325   -2.5409 H.spc      1 <1>        0.000
     37 H          -2.0351    5.4182   -4.7594 H.spc      1 <1>        0.000
     38 H          -0.1399    5.0270   -3.2102 H.spc      1 <1>        0.000
     39 H          -2.7275    1.3537   -6.6509 H.spc      1 <1>        0.000
     40 H           2.5916    1.0858   -1.1278 H.spc      1 <1>        0.000
     41 H           3.7704    2.2900   -1.7595 H.spc      1 <1>        0.000
     42 H           2.1662   -2.6632   -3.6786 H.spc      1 <1>        0.000
     43 H           5.8206    0.3002    1.1504 H.spc      1 <1>        0.000
@<TRIPOS>BOND
     1    2    4 1  
     2    5    6 1  
     3    2    3 2  
     4    5   26 1  
     5    4   24 1  
     6    1    2 am 
     7    4    5 2  
     8   24   25 2  
     9   20   21 2  
    10   17   18 ar 
    11    8   17 ar 
    12   16   19 1  
    13   15   20 1  
    14   15   16 ar 
    15   16    8 ar 
    16   14   18 ar 
    17   14   15 ar 
    18   13   14 1  
    19   12   22 1  
    20   12   13 1  
    21   11   20 1  
    22   10   23 1  
    23   11   12 1  
    24   10   11 2  
    25    9   24 1  
    26    9   10 1  
    27    7   22 1  
    28    7    9 1  
    29    6    7 1  
    30    1   27 1  
    31    1   28 1  
    32    6   29 1  
    33    6   30 1  
    34    7   31 1  
    35    8   32 1  
    36    9   33 1  
    37   12   34 1  
    38   13   35 1  
    39   13   36 1  
    40   17   37 1  
    41   18   38 1  
    42   19   39 1  
    43   22   40 1  
    44   22   41 1  
    45   23   42 1  
    46   26   43 1  
