#      Rotatable Fragment
#      Build by yxyuan
#
# Name:          frag2-057-10/92655
# Creation time: Sat Jun  5 12:51:57 2010


@<TRIPOS>MOLECULE
frag2-057-10/92655
   16    17     1     1     1
SMALL
USER_CHARGES


@<TRIPOS>ATOM
      1 C1         -2.4873    0.6157    0.2471 C.ar       1 <1>        0.000
      2 N1         -1.4096    1.4245    0.3024 N.ar       1 <1>        0.000
      3 C2         -0.1495    0.9542    0.1536 C.ar       1 <1>        0.000
      4 N2          0.9073    1.7985    0.2177 N.ar       1 <1>        0.000
      5 C3          2.1795    1.3683    0.0746 C.ar       1 <1>        0.000
      6 C4          2.4357    0.0248   -0.1459 C.ar       1 <1>        0.000
      7 C5          1.3748   -0.8737   -0.2193 C.ar       1 <1>        0.000
      8 C6          0.0627   -0.4071   -0.0671 C.ar       1 <1>        0.000
      9 C7         -1.0423   -1.2643   -0.1295 C.ar       1 <1>        0.000
     10 C8         -2.3233   -0.7438    0.0317 C.ar       1 <1>        0.000
     11 H          -3.4873    1.0310    0.3718 H.spc      1 <1>        0.000
     12 H           3.0046    2.0781    0.1326 H.spc      1 <1>        0.000
     13 H           3.4611   -0.3265   -0.2612 H.spc      1 <1>        0.000
     14 H           1.5638   -1.9329   -0.3940 H.spc      1 <1>        0.000
     15 H          -0.9007   -2.3311   -0.3030 H.spc      1 <1>        0.000
     16 H          -3.1918   -1.4010   -0.0112 H.spc      1 <1>        0.000
@<TRIPOS>BOND
     1    8    9 ar 
     2    7    8 ar 
     3    9   10 ar 
     4    1    2 ar 
     5    2    3 ar 
     6    1   10 ar 
     7    3    4 ar 
     8    3    8 ar 
     9    4    5 ar 
    10    5    6 ar 
    11    6    7 ar 
    12    1   11 1  
    13    5   12 1  
    14    6   13 1  
    15    7   14 1  
    16    9   15 1  
    17   10   16 1  
# Name:          frag2-057-10/92655 -- energy: 0.098306
# Creation time: Sat Jun  5 12:51:57 2010


@<TRIPOS>MOLECULE
frag2-057-10/92655 -- energy: 0.098306
   16    17     1     1     1
SMALL
USER_CHARGES


@<TRIPOS>ATOM
      1 C1         -2.4873    0.6157    0.2471 C.ar       1 <1>        0.000
      2 N1         -1.4096    1.4245    0.3024 N.ar       1 <1>        0.000
      3 C2         -0.1495    0.9542    0.1536 C.ar       1 <1>        0.000
      4 N2          0.9073    1.7985    0.2177 N.ar       1 <1>        0.000
      5 C3          2.1795    1.3683    0.0746 C.ar       1 <1>        0.000
      6 C4          2.4357    0.0248   -0.1459 C.ar       1 <1>        0.000
      7 C5          1.3748   -0.8737   -0.2193 C.ar       1 <1>        0.000
      8 C6          0.0627   -0.4071   -0.0671 C.ar       1 <1>        0.000
      9 C7         -1.0423   -1.2643   -0.1295 C.ar       1 <1>        0.000
     10 C8         -2.3233   -0.7438    0.0317 C.ar       1 <1>        0.000
     11 H          -3.4873    1.0310    0.3718 H.spc      1 <1>        0.000
     12 H           3.0046    2.0781    0.1326 H.spc      1 <1>        0.000
     13 H           3.4611   -0.3265   -0.2612 H.spc      1 <1>        0.000
     14 H           1.5638   -1.9329   -0.3940 H.spc      1 <1>        0.000
     15 H          -0.9007   -2.3311   -0.3030 H.spc      1 <1>        0.000
     16 H          -3.1918   -1.4010   -0.0112 H.spc      1 <1>        0.000
@<TRIPOS>BOND
     1    8    9 ar 
     2    7    8 ar 
     3    9   10 ar 
     4    1    2 ar 
     5    2    3 ar 
     6    1   10 ar 
     7    3    4 ar 
     8    3    8 ar 
     9    4    5 ar 
    10    5    6 ar 
    11    6    7 ar 
    12    1   11 1  
    13    5   12 1  
    14    6   13 1  
    15    7   14 1  
    16    9   15 1  
    17   10   16 1  
