#      Rotatable Fragment
#      Build by yxyuan
#
# Name:          frag5-666-24/41815
# Creation time: Sat Jun  5 12:53:02 2010


@<TRIPOS>MOLECULE
frag5-666-24/41815
   14    15     1     1     1
SMALL
USER_CHARGES


@<TRIPOS>ATOM
      1 N1          1.4462    1.2526    0.1261 N.ar       1 <1>        0.000
      2 C1          0.2019    0.7208    0.1190 C.ar       1 <1>        0.000
      3 C2          0.3717   -0.6333   -0.1452 C.ar       1 <1>        0.000
      4 C3         -0.6851   -1.5123   -0.2308 C.ar       1 <1>        0.000
      5 C4         -1.9707   -1.0143   -0.0431 C.ar       1 <1>        0.000
      6 C5         -2.1670    0.3520    0.2251 C.ar       1 <1>        0.000
      7 C6         -1.0698    1.2245    0.3063 C.ar       1 <1>        0.000
      8 N2          1.7640   -0.7761   -0.2743 N.ar       1 <1>        0.000
      9 C7          2.3936    0.4356   -0.0950 C.ar       1 <1>        0.000
     10 O1          3.5565    0.6090   -0.1474 O.2        1 <1>        0.000
     11 H          -0.5189   -2.5691   -0.4398 H.spc      1 <1>        0.000
     12 H          -2.8278   -1.6850   -0.1041 H.spc      1 <1>        0.000
     13 H          -3.1767    0.7360    0.3708 H.spc      1 <1>        0.000
     14 H          -1.2199    2.2839    0.5142 H.spc      1 <1>        0.000
@<TRIPOS>BOND
     1    9   10 2  
     2    6    7 ar 
     3    8    9 ar 
     4    1    2 ar 
     5    1    9 ar 
     6    2    3 ar 
     7    2    7 ar 
     8    3    4 ar 
     9    3    8 ar 
    10    4    5 ar 
    11    5    6 ar 
    12    4   11 1  
    13    5   12 1  
    14    6   13 1  
    15    7   14 1  
# Name:          frag5-666-24/41815 -- energy: -0.293670
# Creation time: Sat Jun  5 12:53:02 2010


@<TRIPOS>MOLECULE
frag5-666-24/41815 -- energy: -0.293670
   14    15     1     1     1
SMALL
USER_CHARGES


@<TRIPOS>ATOM
      1 N1          1.4462    1.2526    0.1261 N.ar       1 <1>        0.000
      2 C1          0.2019    0.7208    0.1190 C.ar       1 <1>        0.000
      3 C2          0.3717   -0.6333   -0.1452 C.ar       1 <1>        0.000
      4 C3         -0.6851   -1.5123   -0.2308 C.ar       1 <1>        0.000
      5 C4         -1.9707   -1.0143   -0.0431 C.ar       1 <1>        0.000
      6 C5         -2.1670    0.3520    0.2251 C.ar       1 <1>        0.000
      7 C6         -1.0698    1.2245    0.3063 C.ar       1 <1>        0.000
      8 N2          1.7640   -0.7761   -0.2743 N.ar       1 <1>        0.000
      9 C7          2.3936    0.4356   -0.0950 C.ar       1 <1>        0.000
     10 O1          3.5565    0.6090   -0.1474 O.2        1 <1>        0.000
     11 H          -0.5189   -2.5691   -0.4398 H.spc      1 <1>        0.000
     12 H          -2.8278   -1.6850   -0.1041 H.spc      1 <1>        0.000
     13 H          -3.1767    0.7360    0.3708 H.spc      1 <1>        0.000
     14 H          -1.2199    2.2839    0.5142 H.spc      1 <1>        0.000
@<TRIPOS>BOND
     1    9   10 2  
     2    6    7 ar 
     3    8    9 ar 
     4    1    2 ar 
     5    1    9 ar 
     6    2    3 ar 
     7    2    7 ar 
     8    3    4 ar 
     9    3    8 ar 
    10    4    5 ar 
    11    5    6 ar 
    12    4   11 1  
    13    5   12 1  
    14    6   13 1  
    15    7   14 1  
