#      Rotatable Fragment
#      Build by yxyuan
#
# Name:          frag4-464-104/150395
# Creation time: Sat Jun  5 12:53:37 2010


@<TRIPOS>MOLECULE
frag4-464-104/150395
   42    42     1     1     1
SMALL
USER_CHARGES


@<TRIPOS>ATOM
      1 C1          3.0564   -0.3486    1.0705 C.3        1 <1>        0.000
      2 C2          3.1507    0.8934    0.1280 C.3        1 <1>        0.000
      3 C3          3.0032   -1.7471    0.3879 C.3        1 <1>        0.000
      4 C4          1.9016    1.8002    0.2695 C.3        1 <1>        0.000
      5 C7          1.7916   -1.9687   -0.5831 C.3        1 <1>        0.000
      6 O7         -1.5485   -2.8006    0.9838 O.3        1 <1>        0.000
      7 C9          1.8714    3.1632   -0.4740 C.3        1 <1>        0.000
      8 C12         0.7074   -3.0678   -0.2532 C.3        1 <1>        0.000
      9 C13         0.5656    3.8858   -0.2127 C.3        1 <1>        0.000
     10 C17        -0.5190   -3.4618    0.4997 C.3        1 <1>        0.000
     11 C18        -0.5376    3.2258    0.3596 C.2        1 <1>        0.000
     12 C22        -1.0583    2.2798   -0.4229 C.2        1 <1>        0.000
     13 C27        -1.7015   -1.4374    0.5186 C.3        1 <1>        0.000
     14 C28        -2.1760    1.3696   -0.0334 C.2        1 <1>        0.000
     15 C31        -2.9184   -0.7001    1.1436 C.3        1 <1>        0.000
     16 C33        -3.1804    0.5532    0.3157 C.2        1 <1>        0.000
     17 H           2.1152   -0.2435    1.6101 H.spc      1 <1>        0.000
     18 H           3.9690   -0.3415    1.6664 H.spc      1 <1>        0.000
     19 H           4.0333    1.4716    0.4015 H.spc      1 <1>        0.000
     20 H           3.2123    0.5442   -0.9027 H.spc      1 <1>        0.000
     21 H           3.9077   -1.8370   -0.2137 H.spc      1 <1>        0.000
     22 H           2.9035   -2.4822    1.1865 H.spc      1 <1>        0.000
     23 H           1.0859    1.2242   -0.1676 H.spc      1 <1>        0.000
     24 H           1.8601    2.0572    1.3280 H.spc      1 <1>        0.000
     25 H           2.2466   -2.3054   -1.5146 H.spc      1 <1>        0.000
     26 H           1.2431   -1.0272   -0.5542 H.spc      1 <1>        0.000
     27 H           1.9667    2.9831   -1.5448 H.spc      1 <1>        0.000
     28 H           2.6943    3.7802   -0.1131 H.spc      1 <1>        0.000
     29 H           1.3780   -3.6556    0.3736 H.spc      1 <1>        0.000
     30 H           0.1842   -2.9510   -1.2023 H.spc      1 <1>        0.000
     31 H           0.2167    4.1613   -1.2079 H.spc      1 <1>        0.000
     32 H           0.8296    4.6414    0.5272 H.spc      1 <1>        0.000
     33 H          -1.0309   -4.0088   -0.2921 H.spc      1 <1>        0.000
     34 H          -0.0502   -3.7504    1.4405 H.spc      1 <1>        0.000
     35 H          -0.9292    3.4650    1.3483 H.spc      1 <1>        0.000
     36 H          -0.6366    2.1623   -1.4211 H.spc      1 <1>        0.000
     37 H          -0.8041   -0.8905    0.8078 H.spc      1 <1>        0.000
     38 H          -1.8606   -1.4756   -0.5591 H.spc      1 <1>        0.000
     39 H          -1.4652    0.7073    0.4607 H.spc      1 <1>        0.000
     40 H          -3.7958   -1.3469    1.1386 H.spc      1 <1>        0.000
     41 H          -2.7073   -0.4321    2.1788 H.spc      1 <1>        0.000
     42 H          -4.1979    0.7885    0.0035 H.spc      1 <1>        0.000
@<TRIPOS>BOND
     1    4    7 1  
     2    2    4 1  
     3    1    2 1  
     4    3    5 1  
     5    1    3 1  
     6    7    9 1  
     7    5    8 1  
     8   15   16 1  
     9   14   16 2  
    10   13   15 1  
    11    6   13 1  
    12   12   14 1  
    13   11   12 2  
    14   10    6 1  
    15    9   11 1  
    16    8   10 1  
    17    1   17 1  
    18    1   18 1  
    19    2   19 1  
    20    2   20 1  
    21    3   21 1  
    22    3   22 1  
    23    4   23 1  
    24    4   24 1  
    25    5   25 1  
    26    5   26 1  
    27    7   27 1  
    28    7   28 1  
    29    8   29 1  
    30    8   30 1  
    31    9   31 1  
    32    9   32 1  
    33   10   33 1  
    34   10   34 1  
    35   11   35 1  
    36   12   36 1  
    37   13   37 1  
    38   13   38 1  
    39   14   39 1  
    40   15   40 1  
    41   15   41 1  
    42   16   42 1  
# Name:          frag4-464-104/150395 -- energy: -2.145676
# Creation time: Sat Jun  5 12:53:37 2010


@<TRIPOS>MOLECULE
frag4-464-104/150395 -- energy: -2.145676
   42    42     1     1     1
SMALL
USER_CHARGES


@<TRIPOS>ATOM
      1 C1          3.0564   -0.3486    1.0705 C.3        1 <1>        0.000
      2 C2          3.1507    0.8934    0.1280 C.3        1 <1>        0.000
      3 C3          3.0032   -1.7471    0.3879 C.3        1 <1>        0.000
      4 C4          1.9016    1.8002    0.2695 C.3        1 <1>        0.000
      5 C7          1.7916   -1.9687   -0.5831 C.3        1 <1>        0.000
      6 O7         -1.5485   -2.8006    0.9838 O.3        1 <1>        0.000
      7 C9          1.8714    3.1632   -0.4740 C.3        1 <1>        0.000
      8 C12         0.7074   -3.0678   -0.2532 C.3        1 <1>        0.000
      9 C13         0.5656    3.8858   -0.2127 C.3        1 <1>        0.000
     10 C17        -0.5190   -3.4618    0.4997 C.3        1 <1>        0.000
     11 C18        -0.5376    3.2258    0.3596 C.2        1 <1>        0.000
     12 C22        -1.0583    2.2798   -0.4229 C.2        1 <1>        0.000
     13 C27        -1.7015   -1.4374    0.5186 C.3        1 <1>        0.000
     14 C28        -2.1760    1.3696   -0.0334 C.2        1 <1>        0.000
     15 C31        -2.9184   -0.7001    1.1436 C.3        1 <1>        0.000
     16 C33        -3.1804    0.5532    0.3157 C.2        1 <1>        0.000
     17 H           2.1152   -0.2435    1.6101 H.spc      1 <1>        0.000
     18 H           3.9690   -0.3415    1.6664 H.spc      1 <1>        0.000
     19 H           4.0333    1.4716    0.4015 H.spc      1 <1>        0.000
     20 H           3.2123    0.5442   -0.9027 H.spc      1 <1>        0.000
     21 H           3.9077   -1.8370   -0.2137 H.spc      1 <1>        0.000
     22 H           2.9035   -2.4822    1.1865 H.spc      1 <1>        0.000
     23 H           1.0859    1.2242   -0.1676 H.spc      1 <1>        0.000
     24 H           1.8601    2.0572    1.3280 H.spc      1 <1>        0.000
     25 H           2.2466   -2.3054   -1.5146 H.spc      1 <1>        0.000
     26 H           1.2431   -1.0272   -0.5542 H.spc      1 <1>        0.000
     27 H           1.9667    2.9831   -1.5448 H.spc      1 <1>        0.000
     28 H           2.6943    3.7802   -0.1131 H.spc      1 <1>        0.000
     29 H           1.3780   -3.6556    0.3736 H.spc      1 <1>        0.000
     30 H           0.1842   -2.9510   -1.2023 H.spc      1 <1>        0.000
     31 H           0.2167    4.1613   -1.2079 H.spc      1 <1>        0.000
     32 H           0.8296    4.6414    0.5272 H.spc      1 <1>        0.000
     33 H          -1.0309   -4.0088   -0.2921 H.spc      1 <1>        0.000
     34 H          -0.0502   -3.7504    1.4405 H.spc      1 <1>        0.000
     35 H          -0.9292    3.4650    1.3483 H.spc      1 <1>        0.000
     36 H          -0.6366    2.1623   -1.4211 H.spc      1 <1>        0.000
     37 H          -0.8041   -0.8905    0.8078 H.spc      1 <1>        0.000
     38 H          -1.8606   -1.4756   -0.5591 H.spc      1 <1>        0.000
     39 H          -1.4652    0.7073    0.4607 H.spc      1 <1>        0.000
     40 H          -3.7958   -1.3469    1.1386 H.spc      1 <1>        0.000
     41 H          -2.7073   -0.4321    2.1788 H.spc      1 <1>        0.000
     42 H          -4.1979    0.7885    0.0035 H.spc      1 <1>        0.000
@<TRIPOS>BOND
     1    4    7 1  
     2    2    4 1  
     3    1    2 1  
     4    3    5 1  
     5    1    3 1  
     6    7    9 1  
     7    5    8 1  
     8   15   16 1  
     9   14   16 2  
    10   13   15 1  
    11    6   13 1  
    12   12   14 1  
    13   11   12 2  
    14   10    6 1  
    15    9   11 1  
    16    8   10 1  
    17    1   17 1  
    18    1   18 1  
    19    2   19 1  
    20    2   20 1  
    21    3   21 1  
    22    3   22 1  
    23    4   23 1  
    24    4   24 1  
    25    5   25 1  
    26    5   26 1  
    27    7   27 1  
    28    7   28 1  
    29    8   29 1  
    30    8   30 1  
    31    9   31 1  
    32    9   32 1  
    33   10   33 1  
    34   10   34 1  
    35   11   35 1  
    36   12   36 1  
    37   13   37 1  
    38   13   38 1  
    39   14   39 1  
    40   15   40 1  
    41   15   41 1  
    42   16   42 1  
