#      Rotatable Fragment
#      Build by yxyuan
#
# Name:          frag3-286-2/31924
# Creation time: Sat Jun  5 12:52:45 2010


@<TRIPOS>MOLECULE
frag3-286-2/31924
    8     7     1     1     1
SMALL
USER_CHARGES


@<TRIPOS>ATOM
      1 C5         -0.7708    0.0797   -0.2444 C.2        1 <1>        0.000
      2 C6          0.5257    0.4176   -0.1303 C.2        1 <1>        0.000
      3 O3          1.5776   -0.2866    0.3321 O.3        1 <1>        0.000
      4 O4         -1.3124   -1.0951    0.1090 O.3        1 <1>        0.000
      5 H          -1.4430    0.8291   -0.6623 H.spc      1 <1>        0.000
      6 H           0.7651    1.4263   -0.4669 H.spc      1 <1>        0.000
      7 H           2.3707    0.2515    0.2766 H.spc      1 <1>        0.000
      8 H          -2.2545   -1.0801   -0.0750 H.spc      1 <1>        0.000
@<TRIPOS>BOND
     1    1    2 2  
     2    1    4 1  
     3    2    3 1  
     4    1    5 1  
     5    2    6 1  
     6    3    7 1  
     7    4    8 1  
# Name:          frag3-286-2/31924 -- energy: -0.205490
# Creation time: Sat Jun  5 12:52:45 2010


@<TRIPOS>MOLECULE
frag3-286-2/31924 -- energy: -0.205490
    8     7     1     1     1
SMALL
USER_CHARGES


@<TRIPOS>ATOM
      1 C5         -0.7708    0.0797   -0.2444 C.2        1 <1>        0.000
      2 C6          0.5257    0.4176   -0.1303 C.2        1 <1>        0.000
      3 O3          1.5776   -0.2866    0.3321 O.3        1 <1>        0.000
      4 O4         -1.3124   -1.0951    0.1090 O.3        1 <1>        0.000
      5 H          -1.4430    0.8291   -0.6623 H.spc      1 <1>        0.000
      6 H           0.7651    1.4263   -0.4669 H.spc      1 <1>        0.000
      7 H           2.3707    0.2515    0.2766 H.spc      1 <1>        0.000
      8 H          -2.2545   -1.0801   -0.0750 H.spc      1 <1>        0.000
@<TRIPOS>BOND
     1    1    2 2  
     2    1    4 1  
     3    2    3 1  
     4    1    5 1  
     5    2    6 1  
     6    3    7 1  
     7    4    8 1  
