#      Rotatable Fragment
#      Build by yxyuan
#
# Name:          frag2-041-282/319335
# Creation time: Sat Jun  5 12:53:35 2010


@<TRIPOS>MOLECULE
frag2-041-282/319335
   17    18     1     1     1
SMALL
USER_CHARGES


@<TRIPOS>ATOM
      1 C1          0.0491    0.7930   -0.0464 C.ar       1 <1>        0.000
      2 C2          1.1285    1.6809   -0.1088 C.ar       1 <1>        0.000
      3 C3          0.3131   -0.5868    0.0307 C.ar       1 <1>        0.000
      4 C4         -1.2794    1.2369   -0.0586 C.ar       1 <1>        0.000
      5 N1          2.4009    1.2273   -0.0965 N.ar       1 <1>        0.000
      6 C6         -0.7576   -1.4883    0.0940 C.ar       1 <1>        0.000
      7 C7          1.6432   -1.0129    0.0414 C.ar       1 <1>        0.000
      8 C8         -2.3324    0.3330    0.0050 C.ar       1 <1>        0.000
      9 C11         2.6745   -0.0925   -0.0222 C.ar       1 <1>        0.000
     10 C12        -2.0718   -1.0318    0.0812 C.ar       1 <1>        0.000
     11 H           0.9403    2.7529   -0.1681 H.spc      1 <1>        0.000
     12 H          -1.4896    2.3048   -0.1187 H.spc      1 <1>        0.000
     13 H          -0.5589   -2.5584    0.1539 H.spc      1 <1>        0.000
     14 H           1.8703   -2.0774    0.1002 H.spc      1 <1>        0.000
     15 H          -3.3614    0.6924   -0.0048 H.spc      1 <1>        0.000
     16 H           3.7096   -0.4338   -0.0123 H.spc      1 <1>        0.000
     17 H          -2.8966   -1.7426    0.1308 H.spc      1 <1>        0.000
@<TRIPOS>BOND
     1    6   10 ar 
     2    8   10 ar 
     3    7    9 ar 
     4    1    3 ar 
     5    1    2 ar 
     6    1    4 ar 
     7    2    5 ar 
     8    3    6 ar 
     9    3    7 ar 
    10    4    8 ar 
    11    5    9 ar 
    12    2   11 1  
    13    4   12 1  
    14    6   13 1  
    15    7   14 1  
    16    8   15 1  
    17    9   16 1  
    18   10   17 1  
# Name:          frag2-041-282/319335 -- energy: -0.110004
# Creation time: Sat Jun  5 12:53:35 2010


@<TRIPOS>MOLECULE
frag2-041-282/319335 -- energy: -0.110004
   17    18     1     1     1
SMALL
USER_CHARGES


@<TRIPOS>ATOM
      1 C1          0.0491    0.7930   -0.0464 C.ar       1 <1>        0.000
      2 C2          1.1285    1.6809   -0.1088 C.ar       1 <1>        0.000
      3 C3          0.3131   -0.5868    0.0307 C.ar       1 <1>        0.000
      4 C4         -1.2794    1.2369   -0.0586 C.ar       1 <1>        0.000
      5 N1          2.4009    1.2273   -0.0965 N.ar       1 <1>        0.000
      6 C6         -0.7576   -1.4883    0.0940 C.ar       1 <1>        0.000
      7 C7          1.6432   -1.0129    0.0414 C.ar       1 <1>        0.000
      8 C8         -2.3324    0.3330    0.0050 C.ar       1 <1>        0.000
      9 C11         2.6745   -0.0925   -0.0222 C.ar       1 <1>        0.000
     10 C12        -2.0718   -1.0318    0.0812 C.ar       1 <1>        0.000
     11 H           0.9403    2.7529   -0.1681 H.spc      1 <1>        0.000
     12 H          -1.4896    2.3048   -0.1187 H.spc      1 <1>        0.000
     13 H          -0.5589   -2.5584    0.1539 H.spc      1 <1>        0.000
     14 H           1.8703   -2.0774    0.1002 H.spc      1 <1>        0.000
     15 H          -3.3614    0.6924   -0.0048 H.spc      1 <1>        0.000
     16 H           3.7096   -0.4338   -0.0123 H.spc      1 <1>        0.000
     17 H          -2.8966   -1.7426    0.1308 H.spc      1 <1>        0.000
@<TRIPOS>BOND
     1    6   10 ar 
     2    8   10 ar 
     3    7    9 ar 
     4    1    3 ar 
     5    1    2 ar 
     6    1    4 ar 
     7    2    5 ar 
     8    3    6 ar 
     9    3    7 ar 
    10    4    8 ar 
    11    5    9 ar 
    12    2   11 1  
    13    4   12 1  
    14    6   13 1  
    15    7   14 1  
    16    8   15 1  
    17    9   16 1  
    18   10   17 1  
