#      Rotatable Fragment
#      Build by yxyuan
#
# Name:          frag2-084-1/92655
# Creation time: Sat Jun  5 12:51:58 2010


@<TRIPOS>MOLECULE
frag2-084-1/92655
   29    32     1     1     1
SMALL
USER_CHARGES


@<TRIPOS>ATOM
      1 C6          1.5362   -1.5307    0.2669 C.ar       1 <1>        0.000
      2 C7          0.1546   -1.3222    0.2242 C.ar       1 <1>        0.000
      3 C8         -0.3350   -0.0281   -0.0030 C.ar       1 <1>        0.000
      4 N3          0.5360    0.9890   -0.1679 N.ar       1 <1>        0.000
      5 C9          1.8759    0.8231   -0.1281 C.ar       1 <1>        0.000
      6 C10         2.4106   -0.4527    0.0918 C.ar       1 <1>        0.000
      7 C11         3.8017   -0.6178    0.1318 C.ar       1 <1>        0.000
      8 C20        -4.4768    0.6733   -0.1721 C.ar       1 <1>        0.000
      9 C12         4.6435    0.4793   -0.0456 C.ar       1 <1>        0.000
     10 C13         4.1042    1.7456   -0.2640 C.ar       1 <1>        0.000
     11 C14         2.7244    1.9138   -0.3048 C.ar       1 <1>        0.000
     12 C15        -1.7161    0.2077   -0.0597 C.ar       1 <1>        0.000
     13 C16        -2.6119   -0.8499    0.1311 C.ar       1 <1>        0.000
     14 C17        -2.1181   -2.1418    0.3552 C.ar       1 <1>        0.000
     15 C18        -0.7474   -2.3755    0.4018 C.ar       1 <1>        0.000
     16 C19        -3.9920   -0.6044    0.1002 C.ar       1 <1>        0.000
     17 C21        -3.5904    1.7353   -0.3033 C.ar       1 <1>        0.000
     18 C22        -2.2177    1.5005   -0.2972 C.ar       1 <1>        0.000
     19 H           1.9318   -2.5321    0.4364 H.spc      1 <1>        0.000
     20 H           4.2268   -1.6069    0.3021 H.spc      1 <1>        0.000
     21 H          -5.5485    0.8392   -0.2819 H.spc      1 <1>        0.000
     22 H           5.7249    0.3464   -0.0134 H.spc      1 <1>        0.000
     23 H           4.7629    2.6029   -0.4026 H.spc      1 <1>        0.000
     24 H           2.3043    2.9049   -0.4760 H.spc      1 <1>        0.000
     25 H          -2.8130   -2.9700    0.4941 H.spc      1 <1>        0.000
     26 H          -0.3749   -3.3847    0.5776 H.spc      1 <1>        0.000
     27 H          -4.6908   -1.4190    0.2906 H.spc      1 <1>        0.000
     28 H          -3.9693    2.7517   -0.4109 H.spc      1 <1>        0.000
     29 H          -1.5270    2.3242   -0.4777 H.spc      1 <1>        0.000
@<TRIPOS>BOND
     1    5    6 ar 
     2    1    2 ar 
     3    3    4 ar 
     4   13   14 ar 
     5   14   15 ar 
     6   17   18 ar 
     7    5   11 ar 
     8    9   10 ar 
     9    2    3 ar 
    10    7    9 ar 
    11    4    5 ar 
    12    6    7 ar 
    13    3   12 ar 
    14   12   13 ar 
    15   13   16 ar 
    16    2   15 ar 
    17   10   11 ar 
    18   16    8 ar 
    19    8   17 ar 
    20    1    6 ar 
    21   12   18 ar 
    22    1   19 1  
    23    7   20 1  
    24    8   21 1  
    25    9   22 1  
    26   10   23 1  
    27   11   24 1  
    28   14   25 1  
    29   15   26 1  
    30   16   27 1  
    31   17   28 1  
    32   18   29 1  
# Name:          frag2-084-1/92655 -- energy: -1.069229
# Creation time: Sat Jun  5 12:51:58 2010


@<TRIPOS>MOLECULE
frag2-084-1/92655 -- energy: -1.069229
   29    32     1     1     1
SMALL
USER_CHARGES


@<TRIPOS>ATOM
      1 C6          1.5362   -1.5307    0.2669 C.ar       1 <1>        0.000
      2 C7          0.1546   -1.3222    0.2242 C.ar       1 <1>        0.000
      3 C8         -0.3350   -0.0281   -0.0030 C.ar       1 <1>        0.000
      4 N3          0.5360    0.9890   -0.1679 N.ar       1 <1>        0.000
      5 C9          1.8759    0.8231   -0.1281 C.ar       1 <1>        0.000
      6 C10         2.4106   -0.4527    0.0918 C.ar       1 <1>        0.000
      7 C11         3.8017   -0.6178    0.1318 C.ar       1 <1>        0.000
      8 C20        -4.4768    0.6733   -0.1721 C.ar       1 <1>        0.000
      9 C12         4.6435    0.4793   -0.0456 C.ar       1 <1>        0.000
     10 C13         4.1042    1.7456   -0.2640 C.ar       1 <1>        0.000
     11 C14         2.7244    1.9138   -0.3048 C.ar       1 <1>        0.000
     12 C15        -1.7161    0.2077   -0.0597 C.ar       1 <1>        0.000
     13 C16        -2.6119   -0.8499    0.1311 C.ar       1 <1>        0.000
     14 C17        -2.1181   -2.1418    0.3552 C.ar       1 <1>        0.000
     15 C18        -0.7474   -2.3755    0.4018 C.ar       1 <1>        0.000
     16 C19        -3.9920   -0.6044    0.1002 C.ar       1 <1>        0.000
     17 C21        -3.5904    1.7353   -0.3033 C.ar       1 <1>        0.000
     18 C22        -2.2177    1.5005   -0.2972 C.ar       1 <1>        0.000
     19 H           1.9318   -2.5321    0.4364 H.spc      1 <1>        0.000
     20 H           4.2268   -1.6069    0.3021 H.spc      1 <1>        0.000
     21 H          -5.5485    0.8392   -0.2819 H.spc      1 <1>        0.000
     22 H           5.7249    0.3464   -0.0134 H.spc      1 <1>        0.000
     23 H           4.7629    2.6029   -0.4026 H.spc      1 <1>        0.000
     24 H           2.3043    2.9049   -0.4760 H.spc      1 <1>        0.000
     25 H          -2.8130   -2.9700    0.4941 H.spc      1 <1>        0.000
     26 H          -0.3749   -3.3847    0.5776 H.spc      1 <1>        0.000
     27 H          -4.6908   -1.4190    0.2906 H.spc      1 <1>        0.000
     28 H          -3.9693    2.7517   -0.4109 H.spc      1 <1>        0.000
     29 H          -1.5270    2.3242   -0.4777 H.spc      1 <1>        0.000
@<TRIPOS>BOND
     1    5    6 ar 
     2    1    2 ar 
     3    3    4 ar 
     4   13   14 ar 
     5   14   15 ar 
     6   17   18 ar 
     7    5   11 ar 
     8    9   10 ar 
     9    2    3 ar 
    10    7    9 ar 
    11    4    5 ar 
    12    6    7 ar 
    13    3   12 ar 
    14   12   13 ar 
    15   13   16 ar 
    16    2   15 ar 
    17   10   11 ar 
    18   16    8 ar 
    19    8   17 ar 
    20    1    6 ar 
    21   12   18 ar 
    22    1   19 1  
    23    7   20 1  
    24    8   21 1  
    25    9   22 1  
    26   10   23 1  
    27   11   24 1  
    28   14   25 1  
    29   15   26 1  
    30   16   27 1  
    31   17   28 1  
    32   18   29 1  
