#      Rotatable Fragment
#      Build by yxyuan
#
# Name:          frag4-362-99/48856
# Creation time: Sat Jun  5 12:53:22 2010


@<TRIPOS>MOLECULE
frag4-362-99/48856
   33    36     1     1     1
SMALL
USER_CHARGES


@<TRIPOS>ATOM
      1 C3          1.5367   -2.3448   -0.6922 C.3        1 <1>        0.000
      2 C4          0.5756   -3.2276    0.0765 C.3        1 <1>        0.000
      3 N2         -0.7719   -2.6589    0.1703 N.4        1 <1>        0.000
      4 C5         -0.8029   -1.2982    0.7262 C.3        1 <1>        0.000
      5 C6          0.1683   -0.3116   -0.0259 C.3        1 <1>        0.000
      6 C7          1.5677   -0.9307   -0.1306 C.3        1 <1>        0.000
      7 C8          0.1547    1.0865    0.5627 C.2        1 <1>        0.000
      8 C16         1.1072    2.0477    0.5571 C.2        1 <1>        0.000
      9 C9         -1.0496    1.4038    1.2352 C.2        1 <1>        0.000
     10 C10        -1.3231    2.6691    1.8942 C.2        1 <1>        0.000
     11 N3         -2.5015    2.6759    2.4220 N.2        1 <1>        0.000
     12 C11        -3.1128    1.4416    2.1296 C.3        1 <1>        0.000
     13 C12        -2.1570    0.6524    1.4128 C.2        1 <1>        0.000
     14 C13        -2.2190   -0.7265    0.8829 C.3        1 <1>        0.000
     15 C14        -0.2321    3.6629    1.8381 C.2        1 <1>        0.000
     16 C15         0.9145    3.3300    1.1930 C.2        1 <1>        0.000
     17 H           2.5368   -2.7705   -0.6101 H.spc      1 <1>        0.000
     18 H           1.2061   -2.2966   -1.7297 H.spc      1 <1>        0.000
     19 H           0.9620   -3.3364    1.0899 H.spc      1 <1>        0.000
     20 H           0.4997   -4.1771   -0.4535 H.spc      1 <1>        0.000
     21 H          -1.3117   -3.2562    0.7966 H.spc      1 <1>        0.000
     22 H          -1.1484   -2.6098   -0.7764 H.spc      1 <1>        0.000
     23 H          -0.4189   -1.3967    1.7416 H.spc      1 <1>        0.000
     24 H          -0.1979   -0.1735   -1.0432 H.spc      1 <1>        0.000
     25 H           2.1599   -0.3129   -0.8057 H.spc      1 <1>        0.000
     26 H           1.9922   -0.9756    0.8723 H.spc      1 <1>        0.000
     27 H           2.0535    1.8470    0.0548 H.spc      1 <1>        0.000
     28 H          -3.4150    0.9370    3.0473 H.spc      1 <1>        0.000
     29 H          -4.0115    1.5915    1.5312 H.spc      1 <1>        0.000
     30 H          -2.7810   -1.3508    1.5775 H.spc      1 <1>        0.000
     31 H          -2.7081   -0.7128   -0.0911 H.spc      1 <1>        0.000
     32 H          -0.3453    4.6417    2.3043 H.spc      1 <1>        0.000
     33 H           1.7229    4.0601    1.1532 H.spc      1 <1>        0.000
@<TRIPOS>BOND
     1    5    7 1  
     2    9   10 1  
     3    1    6 1  
     4    1    2 1  
     5    2    3 1  
     6    5    6 1  
     7    7    9 1  
     8    4    5 1  
     9    3    4 1  
    10    7    8 2  
    11    9   13 2  
    12    4   14 1  
    13   15   16 2  
    14   16    8 1  
    15   13   14 1  
    16   12   13 1  
    17   11   12 1  
    18   10   15 1  
    19   10   11 2  
    20    1   17 1  
    21    1   18 1  
    22    2   19 1  
    23    2   20 1  
    24    3   21 1  
    25    3   22 1  
    26    4   23 1  
    27    5   24 1  
    28    6   25 1  
    29    6   26 1  
    30    8   27 1  
    31   12   28 1  
    32   12   29 1  
    33   14   30 1  
    34   14   31 1  
    35   15   32 1  
    36   16   33 1  
# Name:          frag4-362-99/48856 -- energy: -4.602735
# Creation time: Sat Jun  5 12:53:22 2010


@<TRIPOS>MOLECULE
frag4-362-99/48856 -- energy: -4.602735
   33    36     1     1     1
SMALL
USER_CHARGES


@<TRIPOS>ATOM
      1 C3          1.5367   -2.3448   -0.6922 C.3        1 <1>        0.000
      2 C4          0.5756   -3.2276    0.0765 C.3        1 <1>        0.000
      3 N2         -0.7719   -2.6589    0.1703 N.4        1 <1>        0.000
      4 C5         -0.8029   -1.2982    0.7262 C.3        1 <1>        0.000
      5 C6          0.1683   -0.3116   -0.0259 C.3        1 <1>        0.000
      6 C7          1.5677   -0.9307   -0.1306 C.3        1 <1>        0.000
      7 C8          0.1547    1.0865    0.5627 C.2        1 <1>        0.000
      8 C16         1.1072    2.0477    0.5571 C.2        1 <1>        0.000
      9 C9         -1.0496    1.4038    1.2352 C.2        1 <1>        0.000
     10 C10        -1.3231    2.6691    1.8942 C.2        1 <1>        0.000
     11 N3         -2.5015    2.6759    2.4220 N.2        1 <1>        0.000
     12 C11        -3.1128    1.4416    2.1296 C.3        1 <1>        0.000
     13 C12        -2.1570    0.6524    1.4128 C.2        1 <1>        0.000
     14 C13        -2.2190   -0.7265    0.8829 C.3        1 <1>        0.000
     15 C14        -0.2321    3.6629    1.8381 C.2        1 <1>        0.000
     16 C15         0.9145    3.3300    1.1930 C.2        1 <1>        0.000
     17 H           2.5368   -2.7705   -0.6101 H.spc      1 <1>        0.000
     18 H           1.2061   -2.2966   -1.7297 H.spc      1 <1>        0.000
     19 H           0.9620   -3.3364    1.0899 H.spc      1 <1>        0.000
     20 H           0.4997   -4.1771   -0.4535 H.spc      1 <1>        0.000
     21 H          -1.3117   -3.2562    0.7966 H.spc      1 <1>        0.000
     22 H          -1.1484   -2.6098   -0.7764 H.spc      1 <1>        0.000
     23 H          -0.4189   -1.3967    1.7416 H.spc      1 <1>        0.000
     24 H          -0.1979   -0.1735   -1.0432 H.spc      1 <1>        0.000
     25 H           2.1599   -0.3129   -0.8057 H.spc      1 <1>        0.000
     26 H           1.9922   -0.9756    0.8723 H.spc      1 <1>        0.000
     27 H           2.0535    1.8470    0.0548 H.spc      1 <1>        0.000
     28 H          -3.4150    0.9370    3.0473 H.spc      1 <1>        0.000
     29 H          -4.0115    1.5915    1.5312 H.spc      1 <1>        0.000
     30 H          -2.7810   -1.3508    1.5775 H.spc      1 <1>        0.000
     31 H          -2.7081   -0.7128   -0.0911 H.spc      1 <1>        0.000
     32 H          -0.3453    4.6417    2.3043 H.spc      1 <1>        0.000
     33 H           1.7229    4.0601    1.1532 H.spc      1 <1>        0.000
@<TRIPOS>BOND
     1    5    7 1  
     2    9   10 1  
     3    1    6 1  
     4    1    2 1  
     5    2    3 1  
     6    5    6 1  
     7    7    9 1  
     8    4    5 1  
     9    3    4 1  
    10    7    8 2  
    11    9   13 2  
    12    4   14 1  
    13   15   16 2  
    14   16    8 1  
    15   13   14 1  
    16   12   13 1  
    17   11   12 1  
    18   10   15 1  
    19   10   11 2  
    20    1   17 1  
    21    1   18 1  
    22    2   19 1  
    23    2   20 1  
    24    3   21 1  
    25    3   22 1  
    26    4   23 1  
    27    5   24 1  
    28    6   25 1  
    29    6   26 1  
    30    8   27 1  
    31   12   28 1  
    32   12   29 1  
    33   14   30 1  
    34   14   31 1  
    35   15   32 1  
    36   16   33 1  
