#      Rotatable Fragment
#      Build by yxyuan
#
# Name:          frag4-391-236/150395
# Creation time: Sat Jun  5 12:53:34 2010


@<TRIPOS>MOLECULE
frag4-391-236/150395
   15    16     1     1     1
SMALL
USER_CHARGES


@<TRIPOS>ATOM
      1 C1         -0.7707    0.5421   -0.1129 C.2        1 <1>        0.000
      2 C2         -0.5951   -0.9396   -0.0006 C.2        1 <1>        0.000
      3 C3         -2.2160    0.7400    0.0122 C.2        1 <1>        0.000
      4 C4          0.3041    1.3449   -0.1787 C.2        1 <1>        0.000
      5 C5          0.7364   -1.5457    0.0533 C.2        1 <1>        0.000
      6 O1         -1.7921   -1.4420    0.0941 O.3        1 <1>        0.000
      7 N1         -2.7486   -0.4447    0.1308 N.2        1 <1>        0.000
      8 C7          1.6483    0.7417   -0.0906 C.3        1 <1>        0.000
      9 C8          1.7946   -0.7178    0.0251 C.2        1 <1>        0.000
     10 H          -2.7447    1.6932    0.0072 H.spc      1 <1>        0.000
     11 H           0.1858    2.4222   -0.2950 H.spc      1 <1>        0.000
     12 H           0.8645   -2.6264    0.1139 H.spc      1 <1>        0.000
     13 H           2.0609    1.1312    0.8401 H.spc      1 <1>        0.000
     14 H           2.1200    0.9879   -1.0419 H.spc      1 <1>        0.000
     15 H           2.7964   -1.1424    0.0902 H.spc      1 <1>        0.000
@<TRIPOS>BOND
     1    1    2 1  
     2    1    3 1  
     3    1    4 2  
     4    2    5 1  
     5    2    6 2  
     6    3    7 2  
     7    4    8 1  
     8    5    9 2  
     9    6    7 1  
    10    8    9 1  
    11    3   10 1  
    12    4   11 1  
    13    5   12 1  
    14    8   13 1  
    15    8   14 1  
    16    9   15 1  
# Name:          frag4-391-236/150395 -- energy: -0.746468
# Creation time: Sat Jun  5 12:53:34 2010


@<TRIPOS>MOLECULE
frag4-391-236/150395 -- energy: -0.746468
   15    16     1     1     1
SMALL
USER_CHARGES


@<TRIPOS>ATOM
      1 C1         -0.7707    0.5421   -0.1129 C.2        1 <1>        0.000
      2 C2         -0.5951   -0.9396   -0.0006 C.2        1 <1>        0.000
      3 C3         -2.2160    0.7400    0.0122 C.2        1 <1>        0.000
      4 C4          0.3041    1.3449   -0.1787 C.2        1 <1>        0.000
      5 C5          0.7364   -1.5457    0.0533 C.2        1 <1>        0.000
      6 O1         -1.7921   -1.4420    0.0941 O.3        1 <1>        0.000
      7 N1         -2.7486   -0.4447    0.1308 N.2        1 <1>        0.000
      8 C7          1.6483    0.7417   -0.0906 C.3        1 <1>        0.000
      9 C8          1.7946   -0.7178    0.0251 C.2        1 <1>        0.000
     10 H          -2.7447    1.6932    0.0072 H.spc      1 <1>        0.000
     11 H           0.1858    2.4222   -0.2950 H.spc      1 <1>        0.000
     12 H           0.8645   -2.6264    0.1139 H.spc      1 <1>        0.000
     13 H           2.0609    1.1312    0.8401 H.spc      1 <1>        0.000
     14 H           2.1200    0.9879   -1.0419 H.spc      1 <1>        0.000
     15 H           2.7964   -1.1424    0.0902 H.spc      1 <1>        0.000
@<TRIPOS>BOND
     1    1    2 1  
     2    1    3 1  
     3    1    4 2  
     4    2    5 1  
     5    2    6 2  
     6    3    7 2  
     7    4    8 1  
     8    5    9 2  
     9    6    7 1  
    10    8    9 1  
    11    3   10 1  
    12    4   11 1  
    13    5   12 1  
    14    8   13 1  
    15    8   14 1  
    16    9   15 1  
