#      Rotatable Fragment
#      Build by yxyuan
#
# Name:          frag5-603-99/138278
# Creation time: Sat Jun  5 12:53:46 2010


@<TRIPOS>MOLECULE
frag5-603-99/138278
   21    22     1     1     1
SMALL
USER_CHARGES


@<TRIPOS>ATOM
      1 C1         -2.8612    0.1216    0.3395 C.ar       1 <1>        0.000
      2 C2         -2.7674    1.5206    0.4525 C.ar       1 <1>        0.000
      3 N1         -1.7712   -0.6954    0.7321 N.am       1 <1>        0.000
      4 C3         -4.0259   -0.4568   -0.1595 C.ar       1 <1>        0.000
      5 S1         -1.4127    2.2530    1.3077 S.3        1 <1>        0.000
      6 C4         -3.7616    2.3177   -0.1263 C.ar       1 <1>        0.000
      7 C5         -0.5112   -0.4894    0.2738 C.2        1 <1>        0.000
      8 C7         -5.0367    0.3469   -0.6900 C.ar       1 <1>        0.000
      9 C8         -0.0710    1.9787    0.1171 C.3        1 <1>        0.000
     10 C9         -4.8875    1.7364   -0.7040 C.ar       1 <1>        0.000
     11 C10        -0.2320    0.6593   -0.6722 C.3        1 <1>        0.000
     12 O1          0.4226   -1.2070    0.5997 O.2        1 <1>        0.000
     13 H          -1.9401   -1.4640    1.3810 H.spc      1 <1>        0.000
     14 H          -4.1485   -1.5396   -0.1358 H.spc      1 <1>        0.000
     15 H          -3.6537    3.4024   -0.1249 H.spc      1 <1>        0.000
     16 H          -5.9412   -0.1088   -1.0928 H.spc      1 <1>        0.000
     17 H           0.8640    1.9226    0.6745 H.spc      1 <1>        0.000
     18 H          -0.0866    2.8004   -0.5989 H.spc      1 <1>        0.000
     19 H          -5.6502    2.3634   -1.1658 H.spc      1 <1>        0.000
     20 H           0.6903    0.4557   -1.2162 H.spc      1 <1>        0.000
     21 H          -1.0669    0.7596   -1.3658 H.spc      1 <1>        0.000
@<TRIPOS>BOND
     1    2    5 1  
     2    5    9 1  
     3    8   10 ar 
     4    4    8 ar 
     5    7   12 2  
     6    9   11 1  
     7    7   11 1  
     8    2    6 ar 
     9    6   10 ar 
    10    3    7 am 
    11    1    2 ar 
    12    1    3 1  
    13    1    4 ar 
    14    3   13 1  
    15    4   14 1  
    16    6   15 1  
    17    8   16 1  
    18    9   17 1  
    19    9   18 1  
    20   10   19 1  
    21   11   20 1  
    22   11   21 1  
# Name:          frag5-603-99/138278 -- energy: -1.739433
# Creation time: Sat Jun  5 12:53:46 2010


@<TRIPOS>MOLECULE
frag5-603-99/138278 -- energy: -1.739433
   21    22     1     1     1
SMALL
USER_CHARGES


@<TRIPOS>ATOM
      1 C1         -2.8612    0.1216    0.3395 C.ar       1 <1>        0.000
      2 C2         -2.7674    1.5206    0.4525 C.ar       1 <1>        0.000
      3 N1         -1.7712   -0.6954    0.7321 N.am       1 <1>        0.000
      4 C3         -4.0259   -0.4568   -0.1595 C.ar       1 <1>        0.000
      5 S1         -1.4127    2.2530    1.3077 S.3        1 <1>        0.000
      6 C4         -3.7616    2.3177   -0.1263 C.ar       1 <1>        0.000
      7 C5         -0.5112   -0.4894    0.2738 C.2        1 <1>        0.000
      8 C7         -5.0367    0.3469   -0.6900 C.ar       1 <1>        0.000
      9 C8         -0.0710    1.9787    0.1171 C.3        1 <1>        0.000
     10 C9         -4.8875    1.7364   -0.7040 C.ar       1 <1>        0.000
     11 C10        -0.2320    0.6593   -0.6722 C.3        1 <1>        0.000
     12 O1          0.4226   -1.2070    0.5997 O.2        1 <1>        0.000
     13 H          -1.9401   -1.4640    1.3810 H.spc      1 <1>        0.000
     14 H          -4.1485   -1.5396   -0.1358 H.spc      1 <1>        0.000
     15 H          -3.6537    3.4024   -0.1249 H.spc      1 <1>        0.000
     16 H          -5.9412   -0.1088   -1.0928 H.spc      1 <1>        0.000
     17 H           0.8640    1.9226    0.6745 H.spc      1 <1>        0.000
     18 H          -0.0866    2.8004   -0.5989 H.spc      1 <1>        0.000
     19 H          -5.6502    2.3634   -1.1658 H.spc      1 <1>        0.000
     20 H           0.6903    0.4557   -1.2162 H.spc      1 <1>        0.000
     21 H          -1.0669    0.7596   -1.3658 H.spc      1 <1>        0.000
@<TRIPOS>BOND
     1    2    5 1  
     2    5    9 1  
     3    8   10 ar 
     4    4    8 ar 
     5    7   12 2  
     6    9   11 1  
     7    7   11 1  
     8    2    6 ar 
     9    6   10 ar 
    10    3    7 am 
    11    1    2 ar 
    12    1    3 1  
    13    1    4 ar 
    14    3   13 1  
    15    4   14 1  
    16    6   15 1  
    17    8   16 1  
    18    9   17 1  
    19    9   18 1  
    20   10   19 1  
    21   11   20 1  
    22   11   21 1  
