#      Rotatable Fragment
#      Build by yxyuan
#
# Name:          frag5-583-40/41815
# Creation time: Sat Jun  5 12:52:56 2010


@<TRIPOS>MOLECULE
frag5-583-40/41815
   16    17     1     1     1
SMALL
USER_CHARGES


@<TRIPOS>ATOM
      1 N2          2.5124    0.0043    0.1111 N.am       1 <1>        0.000
      2 C6          1.7204   -1.1161    0.1000 C.2        1 <1>        0.000
      3 C7          0.2876   -0.7019    0.0282 C.ar       1 <1>        0.000
      4 C8          0.2866    0.7028   -0.0042 C.ar       1 <1>        0.000
      5 C9         -0.9088    1.4298   -0.0738 C.ar       1 <1>        0.000
      6 C10        -2.1320    0.7109   -0.1103 C.ar       1 <1>        0.000
      7 C11        -2.1308   -0.7178   -0.0756 C.ar       1 <1>        0.000
      8 C12        -0.9067   -1.4333   -0.0066 C.ar       1 <1>        0.000
      9 C13         1.7188    1.1220    0.0502 C.2        1 <1>        0.000
     10 O2          2.0287    2.3009    0.0376 O.2        1 <1>        0.000
     11 O3          2.0302   -2.2947    0.1383 O.2        1 <1>        0.000
     12 H           3.5313    0.0061    0.1574 H.spc      1 <1>        0.000
     13 H          -0.8998    2.5195   -0.0993 H.spc      1 <1>        0.000
     14 H          -3.0771    1.2512   -0.1651 H.spc      1 <1>        0.000
     15 H          -3.0753   -1.2612   -0.1023 H.spc      1 <1>        0.000
     16 H          -0.8963   -2.5230    0.0186 H.spc      1 <1>        0.000
@<TRIPOS>BOND
     1    6    7 ar 
     2    7    8 ar 
     3    9   10 2  
     4    1    2 am 
     5    1    9 am 
     6    2    3 1  
     7    2   11 2  
     8    3    4 ar 
     9    3    8 ar 
    10    4    5 ar 
    11    4    9 1  
    12    5    6 ar 
    13    1   12 1  
    14    5   13 1  
    15    6   14 1  
    16    7   15 1  
    17    8   16 1  
# Name:          frag5-583-40/41815 -- energy: -0.994704
# Creation time: Sat Jun  5 12:52:56 2010


@<TRIPOS>MOLECULE
frag5-583-40/41815 -- energy: -0.994704
   16    17     1     1     1
SMALL
USER_CHARGES


@<TRIPOS>ATOM
      1 N2          2.5124    0.0043    0.1111 N.am       1 <1>        0.000
      2 C6          1.7204   -1.1161    0.1000 C.2        1 <1>        0.000
      3 C7          0.2876   -0.7019    0.0282 C.ar       1 <1>        0.000
      4 C8          0.2866    0.7028   -0.0042 C.ar       1 <1>        0.000
      5 C9         -0.9088    1.4298   -0.0738 C.ar       1 <1>        0.000
      6 C10        -2.1320    0.7109   -0.1103 C.ar       1 <1>        0.000
      7 C11        -2.1308   -0.7178   -0.0756 C.ar       1 <1>        0.000
      8 C12        -0.9067   -1.4333   -0.0066 C.ar       1 <1>        0.000
      9 C13         1.7188    1.1220    0.0502 C.2        1 <1>        0.000
     10 O2          2.0287    2.3009    0.0376 O.2        1 <1>        0.000
     11 O3          2.0302   -2.2947    0.1383 O.2        1 <1>        0.000
     12 H           3.5313    0.0061    0.1574 H.spc      1 <1>        0.000
     13 H          -0.8998    2.5195   -0.0993 H.spc      1 <1>        0.000
     14 H          -3.0771    1.2512   -0.1651 H.spc      1 <1>        0.000
     15 H          -3.0753   -1.2612   -0.1023 H.spc      1 <1>        0.000
     16 H          -0.8963   -2.5230    0.0186 H.spc      1 <1>        0.000
@<TRIPOS>BOND
     1    6    7 ar 
     2    7    8 ar 
     3    9   10 2  
     4    1    2 am 
     5    1    9 am 
     6    2    3 1  
     7    2   11 2  
     8    3    4 ar 
     9    3    8 ar 
    10    4    5 ar 
    11    4    9 1  
    12    5    6 ar 
    13    1   12 1  
    14    5   13 1  
    15    6   14 1  
    16    7   15 1  
    17    8   16 1  
