#      Rotatable Fragment
#      Build by yxyuan
#
# Name:          frag4-483-89/150395
# Creation time: Sat Jun  5 12:53:38 2010


@<TRIPOS>MOLECULE
frag4-483-89/150395
   19    20     1     1     1
SMALL
USER_CHARGES


@<TRIPOS>ATOM
      1 C1          0.6623    0.2322   -0.2405 C.3        1 <1>        0.000
      2 C2         -0.2652   -0.9482   -0.1147 C.3        1 <1>        0.000
      3 C4         -0.2569    1.4878   -0.0942 C.3        1 <1>        0.000
      4 C6         -1.6853   -0.4579   -0.0404 C.ar       1 <1>        0.000
      5 C9         -1.6782    0.9294   -0.0498 C.ar       1 <1>        0.000
      6 C10        -2.8728   -1.1870    0.0275 C.ar       1 <1>        0.000
      7 C13        -2.8780    1.6425   -0.0162 C.ar       1 <1>        0.000
      8 C14        -4.0777   -0.4753    0.0638 C.ar       1 <1>        0.000
      9 C15        -4.0795    0.9260    0.0371 C.ar       1 <1>        0.000
     10 H           1.1926    0.2290   -1.1928 H.spc      1 <1>        0.000
     11 H           1.4442    0.2138    0.5188 H.spc      1 <1>        0.000
     12 H          -0.0241   -1.5073    0.7894 H.spc      1 <1>        0.000
     13 H          -0.1483   -1.5985   -0.9816 H.spc      1 <1>        0.000
     14 H          -0.1218    2.1874   -0.9191 H.spc      1 <1>        0.000
     15 H          -0.0189    2.0623    0.8010 H.spc      1 <1>        0.000
     16 H          -2.8627   -2.2767    0.0515 H.spc      1 <1>        0.000
     17 H          -2.8792    2.7324   -0.0311 H.spc      1 <1>        0.000
     18 H          -5.0230   -1.0158    0.1133 H.spc      1 <1>        0.000
     19 H          -5.0272    1.4641    0.0581 H.spc      1 <1>        0.000
@<TRIPOS>BOND
     1    5    7 ar 
     2    4    6 ar 
     3    7    9 ar 
     4    6    8 ar 
     5    8    9 ar 
     6    4    5 ar 
     7    1    2 1  
     8    1    3 1  
     9    2    4 1  
    10    3    5 1  
    11    1   10 1  
    12    1   11 1  
    13    2   12 1  
    14    2   13 1  
    15    3   14 1  
    16    3   15 1  
    17    6   16 1  
    18    7   17 1  
    19    8   18 1  
    20    9   19 1  
# Name:          frag4-483-89/150395 -- energy: -1.034609
# Creation time: Sat Jun  5 12:53:38 2010


@<TRIPOS>MOLECULE
frag4-483-89/150395 -- energy: -1.034609
   19    20     1     1     1
SMALL
USER_CHARGES


@<TRIPOS>ATOM
      1 C1          0.6623    0.2322   -0.2405 C.3        1 <1>        0.000
      2 C2         -0.2652   -0.9482   -0.1147 C.3        1 <1>        0.000
      3 C4         -0.2569    1.4878   -0.0942 C.3        1 <1>        0.000
      4 C6         -1.6853   -0.4579   -0.0404 C.ar       1 <1>        0.000
      5 C9         -1.6782    0.9294   -0.0498 C.ar       1 <1>        0.000
      6 C10        -2.8728   -1.1870    0.0275 C.ar       1 <1>        0.000
      7 C13        -2.8780    1.6425   -0.0162 C.ar       1 <1>        0.000
      8 C14        -4.0777   -0.4753    0.0638 C.ar       1 <1>        0.000
      9 C15        -4.0795    0.9260    0.0371 C.ar       1 <1>        0.000
     10 H           1.1926    0.2290   -1.1928 H.spc      1 <1>        0.000
     11 H           1.4442    0.2138    0.5188 H.spc      1 <1>        0.000
     12 H          -0.0241   -1.5073    0.7894 H.spc      1 <1>        0.000
     13 H          -0.1483   -1.5985   -0.9816 H.spc      1 <1>        0.000
     14 H          -0.1218    2.1874   -0.9191 H.spc      1 <1>        0.000
     15 H          -0.0189    2.0623    0.8010 H.spc      1 <1>        0.000
     16 H          -2.8627   -2.2767    0.0515 H.spc      1 <1>        0.000
     17 H          -2.8792    2.7324   -0.0311 H.spc      1 <1>        0.000
     18 H          -5.0230   -1.0158    0.1133 H.spc      1 <1>        0.000
     19 H          -5.0272    1.4641    0.0581 H.spc      1 <1>        0.000
@<TRIPOS>BOND
     1    5    7 ar 
     2    4    6 ar 
     3    7    9 ar 
     4    6    8 ar 
     5    8    9 ar 
     6    4    5 ar 
     7    1    2 1  
     8    1    3 1  
     9    2    4 1  
    10    3    5 1  
    11    1   10 1  
    12    1   11 1  
    13    2   12 1  
    14    2   13 1  
    15    3   14 1  
    16    3   15 1  
    17    6   16 1  
    18    7   17 1  
    19    8   18 1  
    20    9   19 1  
