#      Rotatable Fragment
#      Build by yxyuan
#
# Name:          frag5-563-47/41815
# Creation time: Sat Jun  5 12:52:54 2010


@<TRIPOS>MOLECULE
frag5-563-47/41815
   13    13     1     1     1
SMALL
USER_CHARGES


@<TRIPOS>ATOM
      1 Br1        -2.3848    1.9773   -0.0360 Br         1 <1>        0.000
      2 C1         -1.0279    0.6591   -0.0093 C.ar       1 <1>        0.000
      3 C2          0.3376    1.0235   -0.0602 C.ar       1 <1>        0.000
      4 C3          1.3208    0.0219   -0.0387 C.ar       1 <1>        0.000
      5 C4          0.9383   -1.3239    0.0323 C.ar       1 <1>        0.000
      6 C5         -0.3939   -1.6897    0.0820 C.ar       1 <1>        0.000
      7 C6         -1.3676   -0.7052    0.0613 C.ar       1 <1>        0.000
      8 Br2         3.1489    0.4925   -0.1055 Br         1 <1>        0.000
      9 O1          0.7289    2.3483   -0.1310 O.3        1 <1>        0.000
     10 H           1.7059   -2.0976    0.0487 H.spc      1 <1>        0.000
     11 H          -0.6748   -2.7414    0.1369 H.spc      1 <1>        0.000
     12 H          -2.4183   -0.9925    0.1005 H.spc      1 <1>        0.000
     13 H           1.6873    2.3967   -0.1572 H.spc      1 <1>        0.000
@<TRIPOS>BOND
     1    1    2 1  
     2    2    3 ar 
     3    2    7 ar 
     4    3    4 ar 
     5    3    9 1  
     6    4    5 ar 
     7    4    8 1  
     8    5    6 ar 
     9    6    7 ar 
    10    5   10 1  
    11    6   11 1  
    12    7   12 1  
    13    9   13 1  
# Name:          frag5-563-47/41815 -- energy: 0.755471
# Creation time: Sat Jun  5 12:52:54 2010


@<TRIPOS>MOLECULE
frag5-563-47/41815 -- energy: 0.755471
   13    13     1     1     1
SMALL
USER_CHARGES


@<TRIPOS>ATOM
      1 Br1        -2.3848    1.9773   -0.0360 Br         1 <1>        0.000
      2 C1         -1.0279    0.6591   -0.0093 C.ar       1 <1>        0.000
      3 C2          0.3376    1.0235   -0.0602 C.ar       1 <1>        0.000
      4 C3          1.3208    0.0219   -0.0387 C.ar       1 <1>        0.000
      5 C4          0.9383   -1.3239    0.0323 C.ar       1 <1>        0.000
      6 C5         -0.3939   -1.6897    0.0820 C.ar       1 <1>        0.000
      7 C6         -1.3676   -0.7052    0.0613 C.ar       1 <1>        0.000
      8 Br2         3.1489    0.4925   -0.1055 Br         1 <1>        0.000
      9 O1          0.7289    2.3483   -0.1310 O.3        1 <1>        0.000
     10 H           1.7059   -2.0976    0.0487 H.spc      1 <1>        0.000
     11 H          -0.6748   -2.7414    0.1369 H.spc      1 <1>        0.000
     12 H          -2.4183   -0.9925    0.1005 H.spc      1 <1>        0.000
     13 H           1.6873    2.3967   -0.1572 H.spc      1 <1>        0.000
@<TRIPOS>BOND
     1    1    2 1  
     2    2    3 ar 
     3    2    7 ar 
     4    3    4 ar 
     5    3    9 1  
     6    4    5 ar 
     7    4    8 1  
     8    5    6 ar 
     9    6    7 ar 
    10    5   10 1  
    11    6   11 1  
    12    7   12 1  
    13    9   13 1  
