#      Rotatable Fragment
#      Build by yxyuan
#
# Name:          frag3-248-4/96164
# Creation time: Sat Jun  5 12:53:17 2010


@<TRIPOS>MOLECULE
frag3-248-4/96164
    6     5     1     1     1
SMALL
USER_CHARGES


@<TRIPOS>ATOM
      1 S1          1.2174    0.9350    0.0748 S.3        1 <1>        0.000
      2 C18        -0.1161   -0.1208   -0.1238 C.2        1 <1>        0.000
      3 O5          0.1160   -1.3549   -0.6497 O.3        1 <1>        0.000
      4 S2         -1.7105    0.2039    0.1410 S.2        1 <1>        0.000
      5 H           2.3391    0.2944   -0.2419 H.spc      1 <1>        0.000
      6 H           1.0599   -1.4750   -0.7768 H.spc      1 <1>        0.000
@<TRIPOS>BOND
     1    1    2 1  
     2    2    3 1  
     3    2    4 2  
     4    1    5 1  
     5    3    6 1  
# Name:          frag3-248-4/96164 -- energy: -0.039641
# Creation time: Sat Jun  5 12:53:17 2010


@<TRIPOS>MOLECULE
frag3-248-4/96164 -- energy: -0.039641
    6     5     1     1     1
SMALL
USER_CHARGES


@<TRIPOS>ATOM
      1 S1          1.2174    0.9350    0.0748 S.3        1 <1>        0.000
      2 C18        -0.1161   -0.1208   -0.1238 C.2        1 <1>        0.000
      3 O5          0.1160   -1.3549   -0.6497 O.3        1 <1>        0.000
      4 S2         -1.7105    0.2039    0.1410 S.2        1 <1>        0.000
      5 H           2.3391    0.2944   -0.2419 H.spc      1 <1>        0.000
      6 H           1.0599   -1.4750   -0.7768 H.spc      1 <1>        0.000
@<TRIPOS>BOND
     1    1    2 1  
     2    2    3 1  
     3    2    4 2  
     4    1    5 1  
     5    3    6 1  
