#      Rotatable Fragment
#      Build by yxyuan
#
# Name:          frag3-162-11/31924
# Creation time: Sat Jun  5 12:52:05 2010


@<TRIPOS>MOLECULE
frag3-162-11/31924
    7     6     1     1     1
SMALL
USER_CHARGES


@<TRIPOS>ATOM
      1 S1          1.3049   -0.8936   -0.1824 S.3        1 <1>        0.000
      2 C2          0.1725    0.4008   -0.0524 C.2        1 <1>        0.000
      3 S2         -0.6440    1.3243    1.0606 S.2        1 <1>        0.000
      4 N1         -0.1325    0.7388   -1.3297 N.am       1 <1>        0.000
      5 H           1.5387   -1.1487   -1.4666 H.spc      1 <1>        0.000
      6 H          -0.7993    1.4885   -1.5135 H.spc      1 <1>        0.000
      7 H           0.3049    0.2434   -2.1067 H.spc      1 <1>        0.000
@<TRIPOS>BOND
     1    2    3 2  
     2    1    2 1  
     3    2    4 am 
     4    1    5 1  
     5    4    6 1  
     6    4    7 1  
# Name:          frag3-162-11/31924 -- energy: 0.394101
# Creation time: Sat Jun  5 12:52:05 2010


@<TRIPOS>MOLECULE
frag3-162-11/31924 -- energy: 0.394101
    7     6     1     1     1
SMALL
USER_CHARGES


@<TRIPOS>ATOM
      1 S1          1.3049   -0.8936   -0.1824 S.3        1 <1>        0.000
      2 C2          0.1725    0.4008   -0.0524 C.2        1 <1>        0.000
      3 S2         -0.6440    1.3243    1.0606 S.2        1 <1>        0.000
      4 N1         -0.1325    0.7388   -1.3297 N.am       1 <1>        0.000
      5 H           1.5387   -1.1487   -1.4666 H.spc      1 <1>        0.000
      6 H          -0.7993    1.4885   -1.5135 H.spc      1 <1>        0.000
      7 H           0.3049    0.2434   -2.1067 H.spc      1 <1>        0.000
@<TRIPOS>BOND
     1    2    3 2  
     2    1    2 1  
     3    2    4 am 
     4    1    5 1  
     5    4    6 1  
     6    4    7 1  
