#      Rotatable Fragment
#      Build by yxyuan
#
# Name:          frag5-630-30/41815
# Creation time: Sat Jun  5 12:53:00 2010


@<TRIPOS>MOLECULE
frag5-630-30/41815
   37    39     1     1     1
SMALL
USER_CHARGES


@<TRIPOS>ATOM
      1 O1          3.5699   -0.4859   -0.0945 O.3        1 <1>        0.000
      2 C3          2.2630   -0.3265   -0.2314 C.ar       1 <1>        0.000
      3 C4          1.6045   -0.4465   -1.4357 C.ar       1 <1>        0.000
      4 C5          0.2518   -0.2660   -1.6130 C.ar       1 <1>        0.000
      5 C6         -0.6260    0.0185   -0.6093 C.ar       1 <1>        0.000
      6 C7         -0.0467    0.1942    0.6547 C.ar       1 <1>        0.000
      7 C8          1.3581    0.0044    0.7914 C.ar       1 <1>        0.000
      8 C20        -2.1833   -2.8829    0.2544 C.ar       1 <1>        0.000
      9 C9         -1.9696    0.2034   -1.1805 C.2        1 <1>        0.000
     10 C10        -2.9682   -0.5861   -0.8936 C.2        1 <1>        0.000
     11 C15        -2.3174   -2.1229   -0.9678 C.ar       1 <1>        0.000
     12 C16        -1.7224   -2.8291   -2.0427 C.ar       1 <1>        0.000
     13 C17        -1.1505   -4.1271   -1.9711 C.ar       1 <1>        0.000
     14 C18        -1.0962   -4.7960   -0.7578 C.ar       1 <1>        0.000
     15 C19        -1.6134   -4.1823    0.3707 C.ar       1 <1>        0.000
     16 C21        -2.5976    1.5262   -1.0480 C.ar       1 <1>        0.000
     17 C22        -3.0744    2.1578    0.1795 C.ar       1 <1>        0.000
     18 C23        -3.6386    3.4655    0.2113 C.ar       1 <1>        0.000
     19 C24        -3.7099    4.1914   -0.9680 C.ar       1 <1>        0.000
     20 C25        -3.2445    3.6245   -2.1441 C.ar       1 <1>        0.000
     21 C26        -2.7120    2.3369   -2.1525 C.ar       1 <1>        0.000
     22 H           3.9548   -0.7087   -0.9453 H.spc      1 <1>        0.000
     23 H           2.1988   -0.7033   -2.3126 H.spc      1 <1>        0.000
     24 H          -0.1447   -0.3566   -2.6243 H.spc      1 <1>        0.000
     25 H          -0.6578    0.4700    1.5141 H.spc      1 <1>        0.000
     26 H           1.7737    0.1285    1.7914 H.spc      1 <1>        0.000
     27 H          -2.5517   -2.4193    1.1695 H.spc      1 <1>        0.000
     28 H          -3.9951   -0.3061   -0.6586 H.spc      1 <1>        0.000
     29 H          -1.7018   -2.3311   -3.0121 H.spc      1 <1>        0.000
     30 H          -0.7539   -4.5978   -2.8707 H.spc      1 <1>        0.000
     31 H          -0.6531   -5.7898   -0.6932 H.spc      1 <1>        0.000
     32 H          -1.5845   -4.6878    1.3360 H.spc      1 <1>        0.000
     33 H          -2.9949    1.6030    1.1144 H.spc      1 <1>        0.000
     34 H          -4.0076    3.8879    1.1459 H.spc      1 <1>        0.000
     35 H          -4.1279    5.1981   -0.9701 H.spc      1 <1>        0.000
     36 H          -3.2957    4.1924   -3.0730 H.spc      1 <1>        0.000
     37 H          -2.3599    1.9430   -3.1059 H.spc      1 <1>        0.000
@<TRIPOS>BOND
     1    1    2 1  
     2    3    4 ar 
     3   10   11 1  
     4    5    9 1  
     5    9   16 1  
     6   11   12 ar 
     7    4    5 ar 
     8    2    7 ar 
     9    2    3 ar 
    10   11    8 ar 
    11   12   13 ar 
    12    5    6 ar 
    13    9   10 2  
    14    6    7 ar 
    15   20   21 ar 
    16   19   20 ar 
    17   18   19 ar 
    18   17   18 ar 
    19   16   21 ar 
    20   16   17 ar 
    21   14   15 ar 
    22   15    8 ar 
    23   13   14 ar 
    24    1   22 1  
    25    3   23 1  
    26    4   24 1  
    27    6   25 1  
    28    7   26 1  
    29    8   27 1  
    30   10   28 1  
    31   12   29 1  
    32   13   30 1  
    33   14   31 1  
    34   15   32 1  
    35   17   33 1  
    36   18   34 1  
    37   19   35 1  
    38   20   36 1  
    39   21   37 1  
# Name:          frag5-630-30/41815
# Creation time: Sat Jun  5 12:53:00 2010


@<TRIPOS>MOLECULE
frag5-630-30/41815
   37    39     1     1     1
SMALL
USER_CHARGES


@<TRIPOS>ATOM
      1 O1          3.5583   -0.4899   -0.0440 O.3        1 <1>        0.000
      2 C3          2.2588   -0.2899   -0.2072 C.ar       1 <1>        0.000
      3 C4          1.2689   -0.9674    0.5078 C.ar       1 <1>        0.000
      4 C5         -0.1113   -0.7775    0.3864 C.ar       1 <1>        0.000
      5 C6         -0.5895    0.0075   -0.6254 C.ar       1 <1>        0.000
      6 C7          0.3382    0.8095   -1.2601 C.ar       1 <1>        0.000
      7 C8          1.6915    0.5601   -1.1393 C.ar       1 <1>        0.000
      8 C20        -2.5790   -3.0502    0.1538 C.ar       1 <1>        0.000
      9 C9         -1.9461    0.1679   -1.2108 C.2        1 <1>        0.000
     10 C10        -2.9429   -0.5888   -0.8678 C.2        1 <1>        0.000
     11 C15        -2.3634   -2.1525   -0.9638 C.ar       1 <1>        0.000
     12 C16        -1.3988   -2.7062   -1.8391 C.ar       1 <1>        0.000
     13 C17        -0.8183   -3.9973   -1.7296 C.ar       1 <1>        0.000
     14 C18        -1.1324   -4.8120   -0.6556 C.ar       1 <1>        0.000
     15 C19        -2.0094   -4.3435    0.3066 C.ar       1 <1>        0.000
     16 C21        -2.5208    1.5496   -1.1694 C.ar       1 <1>        0.000
     17 C22        -2.2672    2.5040   -0.1012 C.ar       1 <1>        0.000
     18 C23        -2.7525    3.8362   -0.1126 C.ar       1 <1>        0.000
     19 C24        -3.6593    4.2028   -1.0920 C.ar       1 <1>        0.000
     20 C25        -4.0670    3.2599   -2.0198 C.ar       1 <1>        0.000
     21 C26        -3.5812    1.9492   -1.9645 C.ar       1 <1>        0.000
     22 H           3.6970   -1.1231    0.6641 H.spc      1 <1>        0.000
     23 H           1.6033   -1.7142    1.2279 H.spc      1 <1>        0.000
     24 H          -0.7972   -1.2496    1.0898 H.spc      1 <1>        0.000
     25 H          -0.0018    1.6505   -1.8644 H.spc      1 <1>        0.000
     26 H           2.3622    1.0712   -1.8299 H.spc      1 <1>        0.000
     27 H          -3.2378   -2.7018    0.9493 H.spc      1 <1>        0.000
     28 H          -3.9448   -0.2716   -0.5787 H.spc      1 <1>        0.000
     29 H          -1.0719   -2.0850   -2.6730 H.spc      1 <1>        0.000
     30 H          -0.1237   -4.3477   -2.4930 H.spc      1 <1>        0.000
     31 H          -0.6957   -5.8070   -0.5692 H.spc      1 <1>        0.000
     32 H          -2.2603   -4.9584    1.1709 H.spc      1 <1>        0.000
     33 H          -1.6731    2.1780    0.7525 H.spc      1 <1>        0.000
     34 H          -2.4185    4.5565    0.6342 H.spc      1 <1>        0.000
     35 H          -4.0473    5.2206   -1.1321 H.spc      1 <1>        0.000
     36 H          -4.7733    3.5413   -2.8009 H.spc      1 <1>        0.000
     37 H          -4.0673    1.1967   -2.5854 H.spc      1 <1>        0.000
@<TRIPOS>BOND
     1    1    2 1  
     2    3    4 ar 
     3   10   11 1  
     4    5    9 1  
     5    9   16 1  
     6   11   12 ar 
     7    4    5 ar 
     8    2    7 ar 
     9    2    3 ar 
    10   11    8 ar 
    11   12   13 ar 
    12    5    6 ar 
    13    9   10 2  
    14    6    7 ar 
    15   20   21 ar 
    16   19   20 ar 
    17   18   19 ar 
    18   17   18 ar 
    19   16   21 ar 
    20   16   17 ar 
    21   14   15 ar 
    22   15    8 ar 
    23   13   14 ar 
    24    1   22 1  
    25    3   23 1  
    26    4   24 1  
    27    6   25 1  
    28    7   26 1  
    29    8   27 1  
    30   10   28 1  
    31   12   29 1  
    32   13   30 1  
    33   14   31 1  
    34   15   32 1  
    35   17   33 1  
    36   18   34 1  
    37   19   35 1  
    38   20   36 1  
    39   21   37 1  
# Name:          frag5-630-30/41815
# Creation time: Sat Jun  5 12:53:00 2010


@<TRIPOS>MOLECULE
frag5-630-30/41815
   37    39     1     1     1
SMALL
USER_CHARGES


@<TRIPOS>ATOM
      1 O1          3.5951   -0.4351   -0.3748 O.3        1 <1>        0.000
      2 C3          2.2823   -0.2923   -0.4552 C.ar       1 <1>        0.000
      3 C4          1.3955   -0.2726    0.6370 C.ar       1 <1>        0.000
      4 C5         -0.0156   -0.1036    0.5848 C.ar       1 <1>        0.000
      5 C6         -0.6377   -0.0190   -0.6788 C.ar       1 <1>        0.000
      6 C7          0.2324    0.0347   -1.7349 C.ar       1 <1>        0.000
      7 C8          1.5898   -0.1534   -1.6367 C.ar       1 <1>        0.000
      8 C20        -1.8269   -2.8651   -1.8988 C.ar       1 <1>        0.000
      9 C9         -2.0074    0.1713   -1.1972 C.2        1 <1>        0.000
     10 C10        -3.0128   -0.6389   -0.7354 C.2        1 <1>        0.000
     11 C15        -2.3505   -2.1359   -0.8086 C.ar       1 <1>        0.000
     12 C16        -2.1433   -2.8668    0.4236 C.ar       1 <1>        0.000
     13 C17        -1.5274   -4.1461    0.5389 C.ar       1 <1>        0.000
     14 C18        -1.0824   -4.7853   -0.6058 C.ar       1 <1>        0.000
     15 C19        -1.2203   -4.1456   -1.8284 C.ar       1 <1>        0.000
     16 C21        -2.6638    1.5072   -1.1680 C.ar       1 <1>        0.000
     17 C22        -1.8358    2.6530   -1.2108 C.ar       1 <1>        0.000
     18 C23        -2.3320    3.9629   -1.2903 C.ar       1 <1>        0.000
     19 C24        -3.6626    4.2038   -0.9973 C.ar       1 <1>        0.000
     20 C25        -4.4771    3.1449   -0.6390 C.ar       1 <1>        0.000
     21 C26        -3.9231    1.8534   -0.5722 C.ar       1 <1>        0.000
     22 H           3.8515   -0.5136    0.5470 H.spc      1 <1>        0.000
     23 H           1.8358   -0.4001    1.6259 H.spc      1 <1>        0.000
     24 H          -0.6035   -0.0408    1.5005 H.spc      1 <1>        0.000
     25 H          -0.1808    0.2411   -2.7222 H.spc      1 <1>        0.000
     26 H           2.1612   -0.1958   -2.5639 H.spc      1 <1>        0.000
     27 H          -1.8950   -2.4022   -2.8833 H.spc      1 <1>        0.000
     28 H          -4.0107   -0.3557   -0.4007 H.spc      1 <1>        0.000
     29 H          -2.4890   -2.3969    1.3443 H.spc      1 <1>        0.000
     30 H          -1.4080   -4.6155    1.5154 H.spc      1 <1>        0.000
     31 H          -0.6308   -5.7756   -0.5469 H.spc      1 <1>        0.000
     32 H          -0.8617   -4.6279   -2.7377 H.spc      1 <1>        0.000
     33 H          -0.7555    2.5109   -1.1804 H.spc      1 <1>        0.000
     34 H          -1.6754    4.7832   -1.5802 H.spc      1 <1>        0.000
     35 H          -4.0641    5.2159   -1.0482 H.spc      1 <1>        0.000
     36 H          -5.5306    3.3083   -0.4122 H.spc      1 <1>        0.000
     37 H          -4.4768    1.0782   -0.0425 H.spc      1 <1>        0.000
@<TRIPOS>BOND
     1    1    2 1  
     2    3    4 ar 
     3   10   11 1  
     4    5    9 1  
     5    9   16 1  
     6   11   12 ar 
     7    4    5 ar 
     8    2    7 ar 
     9    2    3 ar 
    10   11    8 ar 
    11   12   13 ar 
    12    5    6 ar 
    13    9   10 2  
    14    6    7 ar 
    15   20   21 ar 
    16   19   20 ar 
    17   18   19 ar 
    18   17   18 ar 
    19   16   21 ar 
    20   16   17 ar 
    21   14   15 ar 
    22   15    8 ar 
    23   13   14 ar 
    24    1   22 1  
    25    3   23 1  
    26    4   24 1  
    27    6   25 1  
    28    7   26 1  
    29    8   27 1  
    30   10   28 1  
    31   12   29 1  
    32   13   30 1  
    33   14   31 1  
    34   15   32 1  
    35   17   33 1  
    36   18   34 1  
    37   19   35 1  
    38   20   36 1  
    39   21   37 1  
# Name:          frag5-630-30/41815 -- energy: -3.834539
# Creation time: Sat Jun  5 12:53:00 2010


@<TRIPOS>MOLECULE
frag5-630-30/41815 -- energy: -3.834539
   37    39     1     1     1
SMALL
USER_CHARGES


@<TRIPOS>ATOM
      1 O1          3.5699   -0.4859   -0.0945 O.3        1 <1>        0.000
      2 C3          2.2630   -0.3265   -0.2314 C.ar       1 <1>        0.000
      3 C4          1.6045   -0.4465   -1.4357 C.ar       1 <1>        0.000
      4 C5          0.2518   -0.2660   -1.6130 C.ar       1 <1>        0.000
      5 C6         -0.6260    0.0185   -0.6093 C.ar       1 <1>        0.000
      6 C7         -0.0467    0.1942    0.6547 C.ar       1 <1>        0.000
      7 C8          1.3581    0.0044    0.7914 C.ar       1 <1>        0.000
      8 C20        -2.1833   -2.8829    0.2544 C.ar       1 <1>        0.000
      9 C9         -1.9696    0.2034   -1.1805 C.2        1 <1>        0.000
     10 C10        -2.9682   -0.5861   -0.8936 C.2        1 <1>        0.000
     11 C15        -2.3174   -2.1229   -0.9678 C.ar       1 <1>        0.000
     12 C16        -1.7224   -2.8291   -2.0427 C.ar       1 <1>        0.000
     13 C17        -1.1505   -4.1271   -1.9711 C.ar       1 <1>        0.000
     14 C18        -1.0962   -4.7960   -0.7578 C.ar       1 <1>        0.000
     15 C19        -1.6134   -4.1823    0.3707 C.ar       1 <1>        0.000
     16 C21        -2.5976    1.5262   -1.0480 C.ar       1 <1>        0.000
     17 C22        -3.0744    2.1578    0.1795 C.ar       1 <1>        0.000
     18 C23        -3.6386    3.4655    0.2113 C.ar       1 <1>        0.000
     19 C24        -3.7099    4.1914   -0.9680 C.ar       1 <1>        0.000
     20 C25        -3.2445    3.6245   -2.1441 C.ar       1 <1>        0.000
     21 C26        -2.7120    2.3369   -2.1525 C.ar       1 <1>        0.000
     22 H           3.9548   -0.7087   -0.9453 H.spc      1 <1>        0.000
     23 H           2.1988   -0.7033   -2.3126 H.spc      1 <1>        0.000
     24 H          -0.1447   -0.3566   -2.6243 H.spc      1 <1>        0.000
     25 H          -0.6578    0.4700    1.5141 H.spc      1 <1>        0.000
     26 H           1.7737    0.1285    1.7914 H.spc      1 <1>        0.000
     27 H          -2.5517   -2.4193    1.1695 H.spc      1 <1>        0.000
     28 H          -3.9951   -0.3061   -0.6586 H.spc      1 <1>        0.000
     29 H          -1.7018   -2.3311   -3.0121 H.spc      1 <1>        0.000
     30 H          -0.7539   -4.5978   -2.8707 H.spc      1 <1>        0.000
     31 H          -0.6531   -5.7898   -0.6932 H.spc      1 <1>        0.000
     32 H          -1.5845   -4.6878    1.3360 H.spc      1 <1>        0.000
     33 H          -2.9949    1.6030    1.1144 H.spc      1 <1>        0.000
     34 H          -4.0076    3.8879    1.1459 H.spc      1 <1>        0.000
     35 H          -4.1279    5.1981   -0.9701 H.spc      1 <1>        0.000
     36 H          -3.2957    4.1924   -3.0730 H.spc      1 <1>        0.000
     37 H          -2.3599    1.9430   -3.1059 H.spc      1 <1>        0.000
@<TRIPOS>BOND
     1    1    2 1  
     2    3    4 ar 
     3   10   11 1  
     4    5    9 1  
     5    9   16 1  
     6   11   12 ar 
     7    4    5 ar 
     8    2    7 ar 
     9    2    3 ar 
    10   11    8 ar 
    11   12   13 ar 
    12    5    6 ar 
    13    9   10 2  
    14    6    7 ar 
    15   20   21 ar 
    16   19   20 ar 
    17   18   19 ar 
    18   17   18 ar 
    19   16   21 ar 
    20   16   17 ar 
    21   14   15 ar 
    22   15    8 ar 
    23   13   14 ar 
    24    1   22 1  
    25    3   23 1  
    26    4   24 1  
    27    6   25 1  
    28    7   26 1  
    29    8   27 1  
    30   10   28 1  
    31   12   29 1  
    32   13   30 1  
    33   14   31 1  
    34   15   32 1  
    35   17   33 1  
    36   18   34 1  
    37   19   35 1  
    38   20   36 1  
    39   21   37 1  
# Name:          frag5-630-30/41815 -- energy: -3.710019
# Creation time: Sat Jun  5 12:53:00 2010


@<TRIPOS>MOLECULE
frag5-630-30/41815 -- energy: -3.710019
   37    39     1     1     1
SMALL
USER_CHARGES


@<TRIPOS>ATOM
      1 O1          3.5583   -0.4899   -0.0440 O.3        1 <1>        0.000
      2 C3          2.2588   -0.2899   -0.2072 C.ar       1 <1>        0.000
      3 C4          1.2689   -0.9674    0.5078 C.ar       1 <1>        0.000
      4 C5         -0.1113   -0.7775    0.3864 C.ar       1 <1>        0.000
      5 C6         -0.5895    0.0075   -0.6254 C.ar       1 <1>        0.000
      6 C7          0.3382    0.8095   -1.2601 C.ar       1 <1>        0.000
      7 C8          1.6915    0.5601   -1.1393 C.ar       1 <1>        0.000
      8 C20        -2.5790   -3.0502    0.1538 C.ar       1 <1>        0.000
      9 C9         -1.9461    0.1679   -1.2108 C.2        1 <1>        0.000
     10 C10        -2.9429   -0.5888   -0.8678 C.2        1 <1>        0.000
     11 C15        -2.3634   -2.1525   -0.9638 C.ar       1 <1>        0.000
     12 C16        -1.3988   -2.7062   -1.8391 C.ar       1 <1>        0.000
     13 C17        -0.8183   -3.9973   -1.7296 C.ar       1 <1>        0.000
     14 C18        -1.1324   -4.8120   -0.6556 C.ar       1 <1>        0.000
     15 C19        -2.0094   -4.3435    0.3066 C.ar       1 <1>        0.000
     16 C21        -2.5208    1.5496   -1.1694 C.ar       1 <1>        0.000
     17 C22        -2.2672    2.5040   -0.1012 C.ar       1 <1>        0.000
     18 C23        -2.7525    3.8362   -0.1126 C.ar       1 <1>        0.000
     19 C24        -3.6593    4.2028   -1.0920 C.ar       1 <1>        0.000
     20 C25        -4.0670    3.2599   -2.0198 C.ar       1 <1>        0.000
     21 C26        -3.5812    1.9492   -1.9645 C.ar       1 <1>        0.000
     22 H           3.6970   -1.1231    0.6641 H.spc      1 <1>        0.000
     23 H           1.6033   -1.7142    1.2279 H.spc      1 <1>        0.000
     24 H          -0.7972   -1.2496    1.0898 H.spc      1 <1>        0.000
     25 H          -0.0018    1.6505   -1.8644 H.spc      1 <1>        0.000
     26 H           2.3622    1.0712   -1.8299 H.spc      1 <1>        0.000
     27 H          -3.2378   -2.7018    0.9493 H.spc      1 <1>        0.000
     28 H          -3.9448   -0.2716   -0.5787 H.spc      1 <1>        0.000
     29 H          -1.0719   -2.0850   -2.6730 H.spc      1 <1>        0.000
     30 H          -0.1237   -4.3477   -2.4930 H.spc      1 <1>        0.000
     31 H          -0.6957   -5.8070   -0.5692 H.spc      1 <1>        0.000
     32 H          -2.2603   -4.9584    1.1709 H.spc      1 <1>        0.000
     33 H          -1.6731    2.1780    0.7525 H.spc      1 <1>        0.000
     34 H          -2.4185    4.5565    0.6342 H.spc      1 <1>        0.000
     35 H          -4.0473    5.2206   -1.1321 H.spc      1 <1>        0.000
     36 H          -4.7733    3.5413   -2.8009 H.spc      1 <1>        0.000
     37 H          -4.0673    1.1967   -2.5854 H.spc      1 <1>        0.000
@<TRIPOS>BOND
     1    1    2 1  
     2    3    4 ar 
     3   10   11 1  
     4    5    9 1  
     5    9   16 1  
     6   11   12 ar 
     7    4    5 ar 
     8    2    7 ar 
     9    2    3 ar 
    10   11    8 ar 
    11   12   13 ar 
    12    5    6 ar 
    13    9   10 2  
    14    6    7 ar 
    15   20   21 ar 
    16   19   20 ar 
    17   18   19 ar 
    18   17   18 ar 
    19   16   21 ar 
    20   16   17 ar 
    21   14   15 ar 
    22   15    8 ar 
    23   13   14 ar 
    24    1   22 1  
    25    3   23 1  
    26    4   24 1  
    27    6   25 1  
    28    7   26 1  
    29    8   27 1  
    30   10   28 1  
    31   12   29 1  
    32   13   30 1  
    33   14   31 1  
    34   15   32 1  
    35   17   33 1  
    36   18   34 1  
    37   19   35 1  
    38   20   36 1  
    39   21   37 1  
