#      Rotatable Fragment
#      Build by yxyuan
#
# Name:          frag5-662-24/41815
# Creation time: Sat Jun  5 12:53:02 2010


@<TRIPOS>MOLECULE
frag5-662-24/41815
    9     9     1     1     1
SMALL
USER_CHARGES


@<TRIPOS>ATOM
      1 O1          5.6206    1.7600   -0.3575 O.3        1 <1>        0.000
      2 C1          4.1830    1.7539   -0.3650 C.3        1 <1>        0.000
      3 C2          4.1754    2.6470   -1.6338 C.3        1 <1>        0.000
      4 C3          5.6661    2.5277   -1.4474 C.2        1 <1>        0.000
      5 O2          6.6061    2.9674   -2.0606 O.2        1 <1>        0.000
      6 H           3.6357    2.0702    0.5230 H.spc      1 <1>        0.000
      7 H           3.6457    0.8055   -0.3673 H.spc      1 <1>        0.000
      8 H           3.6290    3.5844   -1.7382 H.spc      1 <1>        0.000
      9 H           3.6383    2.4233   -2.5555 H.spc      1 <1>        0.000
@<TRIPOS>BOND
     1    1    2 1  
     2    1    4 1  
     3    2    3 1  
     4    3    4 1  
     5    4    5 2  
     6    2    6 1  
     7    2    7 1  
     8    3    8 1  
     9    3    9 1  
# Name:          frag5-662-24/41815 -- energy: -0.299302
# Creation time: Sat Jun  5 12:53:02 2010


@<TRIPOS>MOLECULE
frag5-662-24/41815 -- energy: -0.299302
    9     9     1     1     1
SMALL
USER_CHARGES


@<TRIPOS>ATOM
      1 O1          5.6206    1.7600   -0.3575 O.3        1 <1>        0.000
      2 C1          4.1830    1.7539   -0.3650 C.3        1 <1>        0.000
      3 C2          4.1754    2.6470   -1.6338 C.3        1 <1>        0.000
      4 C3          5.6661    2.5277   -1.4474 C.2        1 <1>        0.000
      5 O2          6.6061    2.9674   -2.0606 O.2        1 <1>        0.000
      6 H           3.6357    2.0702    0.5230 H.spc      1 <1>        0.000
      7 H           3.6457    0.8055   -0.3673 H.spc      1 <1>        0.000
      8 H           3.6290    3.5844   -1.7382 H.spc      1 <1>        0.000
      9 H           3.6383    2.4233   -2.5555 H.spc      1 <1>        0.000
@<TRIPOS>BOND
     1    1    2 1  
     2    1    4 1  
     3    2    3 1  
     4    3    4 1  
     5    4    5 2  
     6    2    6 1  
     7    2    7 1  
     8    3    8 1  
     9    3    9 1  
