#      Rotatable Fragment
#      Build by yxyuan
#
# Name:          frag5-614-94/138278
# Creation time: Sat Jun  5 12:53:47 2010


@<TRIPOS>MOLECULE
frag5-614-94/138278
   12    12     1     1     1
SMALL
USER_CHARGES


@<TRIPOS>ATOM
      1 C1         -4.0595    0.3668    0.1764 C.ar       1 <1>        0.000
      2 C2         -2.8552    1.0743    0.1825 C.ar       1 <1>        0.000
      3 C4         -4.0309   -1.0296    0.1933 C.ar       1 <1>        0.000
      4 C5         -1.6441    0.3778    0.2191 C.ar       1 <1>        0.000
      5 C6         -2.7955   -1.6832    0.2073 C.ar       1 <1>        0.000
      6 N2         -1.6471   -0.9744    0.2210 N.ar       1 <1>        0.000
      7 O1         -0.4441    1.0836    0.2547 O.3        1 <1>        0.000
      8 H          -5.0109    0.8984    0.1587 H.spc      1 <1>        0.000
      9 H          -2.8599    2.1640    0.1588 H.spc      1 <1>        0.000
     10 H          -4.9588   -1.6015    0.1955 H.spc      1 <1>        0.000
     11 H          -2.7593   -2.7726    0.2072 H.spc      1 <1>        0.000
     12 H           0.2894    0.4646    0.2770 H.spc      1 <1>        0.000
@<TRIPOS>BOND
     1    1    2 ar 
     2    1    3 ar 
     3    2    4 ar 
     4    3    5 ar 
     5    4    6 ar 
     6    5    6 ar 
     7    4    7 1  
     8    1    8 1  
     9    2    9 1  
    10    3   10 1  
    11    5   11 1  
    12    7   12 1  
# Name:          frag5-614-94/138278 -- energy: 0.082855
# Creation time: Sat Jun  5 12:53:47 2010


@<TRIPOS>MOLECULE
frag5-614-94/138278 -- energy: 0.082855
   12    12     1     1     1
SMALL
USER_CHARGES


@<TRIPOS>ATOM
      1 C1         -4.0595    0.3668    0.1764 C.ar       1 <1>        0.000
      2 C2         -2.8552    1.0743    0.1825 C.ar       1 <1>        0.000
      3 C4         -4.0309   -1.0296    0.1933 C.ar       1 <1>        0.000
      4 C5         -1.6441    0.3778    0.2191 C.ar       1 <1>        0.000
      5 C6         -2.7955   -1.6832    0.2073 C.ar       1 <1>        0.000
      6 N2         -1.6471   -0.9744    0.2210 N.ar       1 <1>        0.000
      7 O1         -0.4441    1.0836    0.2547 O.3        1 <1>        0.000
      8 H          -5.0109    0.8984    0.1587 H.spc      1 <1>        0.000
      9 H          -2.8599    2.1640    0.1588 H.spc      1 <1>        0.000
     10 H          -4.9588   -1.6015    0.1955 H.spc      1 <1>        0.000
     11 H          -2.7593   -2.7726    0.2072 H.spc      1 <1>        0.000
     12 H           0.2894    0.4646    0.2770 H.spc      1 <1>        0.000
@<TRIPOS>BOND
     1    1    2 ar 
     2    1    3 ar 
     3    2    4 ar 
     4    3    5 ar 
     5    4    6 ar 
     6    5    6 ar 
     7    4    7 1  
     8    1    8 1  
     9    2    9 1  
    10    3   10 1  
    11    5   11 1  
    12    7   12 1  
