#      Rotatable Fragment
#      Build by yxyuan
#
# Name:          frag5-578-130/138278
# Creation time: Sat Jun  5 12:53:45 2010


@<TRIPOS>MOLECULE
frag5-578-130/138278
   19    19     1     1     1
SMALL
USER_CHARGES


@<TRIPOS>ATOM
      1 N1          2.1461   -0.3619    0.3357 N.am       1 <1>        0.000
      2 C2          2.7427    0.7777    0.7431 C.2        1 <1>        0.000
      3 C3          2.7259   -1.4913   -0.3189 C.3        1 <1>        0.000
      4 C5          4.1965    1.0072    0.4352 C.3        1 <1>        0.000
      5 O1          2.0782    1.6079    1.3648 O.2        1 <1>        0.000
      6 C6          3.8770   -2.2010    0.3404 C.3        1 <1>        0.000
      7 C8          5.1726   -0.0189    0.9354 C.3        1 <1>        0.000
      8 C9          5.1771   -1.4340    0.4249 C.3        1 <1>        0.000
      9 H           1.1450   -0.4255    0.5203 H.spc      1 <1>        0.000
     10 H           3.1332   -1.0987   -1.2506 H.spc      1 <1>        0.000
     11 H           1.9271   -2.2315   -0.3644 H.spc      1 <1>        0.000
     12 H           4.2762    0.9872   -0.6517 H.spc      1 <1>        0.000
     13 H           4.4623    1.9382    0.9359 H.spc      1 <1>        0.000
     14 H           3.5685   -2.3895    1.3687 H.spc      1 <1>        0.000
     15 H           4.0822   -3.0797   -0.2711 H.spc      1 <1>        0.000
     16 H           4.9113   -0.1280    1.9880 H.spc      1 <1>        0.000
     17 H           6.1390    0.3709    0.6157 H.spc      1 <1>        0.000
     18 H           5.5179   -1.3539   -0.6074 H.spc      1 <1>        0.000
     19 H           5.7769   -1.9864    1.1482 H.spc      1 <1>        0.000
@<TRIPOS>BOND
     1    6    8 1  
     2    4    7 1  
     3    7    8 1  
     4    1    2 am 
     5    1    3 1  
     6    2    4 1  
     7    2    5 2  
     8    3    6 1  
     9    1    9 1  
    10    3   10 1  
    11    3   11 1  
    12    4   12 1  
    13    4   13 1  
    14    6   14 1  
    15    6   15 1  
    16    7   16 1  
    17    7   17 1  
    18    8   18 1  
    19    8   19 1  
# Name:          frag5-578-130/138278
# Creation time: Sat Jun  5 12:53:45 2010


@<TRIPOS>MOLECULE
frag5-578-130/138278
   19    19     1     1     1
SMALL
USER_CHARGES


@<TRIPOS>ATOM
      1 N1          2.1811   -0.3633    0.2671 N.am       1 <1>        0.000
      2 C2          2.7581    0.7580    0.7512 C.2        1 <1>        0.000
      3 C3          2.6036   -1.7207    0.4101 C.3        1 <1>        0.000
      4 C5          4.0511    0.6758    1.5208 C.3        1 <1>        0.000
      5 O1          2.2081    1.8502    0.5946 O.2        1 <1>        0.000
      6 C6          3.9688   -2.1568   -0.0531 C.3        1 <1>        0.000
      7 C8          5.2312    0.0111    0.8567 C.3        1 <1>        0.000
      8 C9          5.1141   -1.1686   -0.0868 C.3        1 <1>        0.000
      9 H           1.3281   -0.2218   -0.2739 H.spc      1 <1>        0.000
     10 H           1.9163   -2.2812   -0.2236 H.spc      1 <1>        0.000
     11 H           2.6252   -1.8802    1.4882 H.spc      1 <1>        0.000
     12 H           4.3561    1.7095    1.6838 H.spc      1 <1>        0.000
     13 H           3.8286    0.0630    2.3943 H.spc      1 <1>        0.000
     14 H           4.2771   -2.9032    0.6790 H.spc      1 <1>        0.000
     15 H           3.8234   -2.4379   -1.0961 H.spc      1 <1>        0.000
     16 H           5.7789   -0.4081    1.7008 H.spc      1 <1>        0.000
     17 H           5.6205    0.7987    0.2115 H.spc      1 <1>        0.000
     18 H           4.9956   -0.6915   -1.0597 H.spc      1 <1>        0.000
     19 H           5.9734   -1.7825    0.1830 H.spc      1 <1>        0.000
@<TRIPOS>BOND
     1    6    8 1  
     2    4    7 1  
     3    7    8 1  
     4    1    2 am 
     5    1    3 1  
     6    2    4 1  
     7    2    5 2  
     8    3    6 1  
     9    1    9 1  
    10    3   10 1  
    11    3   11 1  
    12    4   12 1  
    13    4   13 1  
    14    6   14 1  
    15    6   15 1  
    16    7   16 1  
    17    7   17 1  
    18    8   18 1  
    19    8   19 1  
# Name:          frag5-578-130/138278 -- energy: -2.193271
# Creation time: Sat Jun  5 12:53:45 2010


@<TRIPOS>MOLECULE
frag5-578-130/138278 -- energy: -2.193271
   19    19     1     1     1
SMALL
USER_CHARGES


@<TRIPOS>ATOM
      1 N1          2.1461   -0.3619    0.3357 N.am       1 <1>        0.000
      2 C2          2.7427    0.7777    0.7431 C.2        1 <1>        0.000
      3 C3          2.7259   -1.4913   -0.3189 C.3        1 <1>        0.000
      4 C5          4.1965    1.0072    0.4352 C.3        1 <1>        0.000
      5 O1          2.0782    1.6079    1.3648 O.2        1 <1>        0.000
      6 C6          3.8770   -2.2010    0.3404 C.3        1 <1>        0.000
      7 C8          5.1726   -0.0189    0.9354 C.3        1 <1>        0.000
      8 C9          5.1771   -1.4340    0.4249 C.3        1 <1>        0.000
      9 H           1.1450   -0.4255    0.5203 H.spc      1 <1>        0.000
     10 H           3.1332   -1.0987   -1.2506 H.spc      1 <1>        0.000
     11 H           1.9271   -2.2315   -0.3644 H.spc      1 <1>        0.000
     12 H           4.2762    0.9872   -0.6517 H.spc      1 <1>        0.000
     13 H           4.4623    1.9382    0.9359 H.spc      1 <1>        0.000
     14 H           3.5685   -2.3895    1.3687 H.spc      1 <1>        0.000
     15 H           4.0822   -3.0797   -0.2711 H.spc      1 <1>        0.000
     16 H           4.9113   -0.1280    1.9880 H.spc      1 <1>        0.000
     17 H           6.1390    0.3709    0.6157 H.spc      1 <1>        0.000
     18 H           5.5179   -1.3539   -0.6074 H.spc      1 <1>        0.000
     19 H           5.7769   -1.9864    1.1482 H.spc      1 <1>        0.000
@<TRIPOS>BOND
     1    6    8 1  
     2    4    7 1  
     3    7    8 1  
     4    1    2 am 
     5    1    3 1  
     6    2    4 1  
     7    2    5 2  
     8    3    6 1  
     9    1    9 1  
    10    3   10 1  
    11    3   11 1  
    12    4   12 1  
    13    4   13 1  
    14    6   14 1  
    15    6   15 1  
    16    7   16 1  
    17    7   17 1  
    18    8   18 1  
    19    8   19 1  
# Name:          frag5-578-130/138278 -- energy: -1.905527
# Creation time: Sat Jun  5 12:53:45 2010


@<TRIPOS>MOLECULE
frag5-578-130/138278 -- energy: -1.905527
   19    19     1     1     1
SMALL
USER_CHARGES


@<TRIPOS>ATOM
      1 N1          2.1811   -0.3633    0.2671 N.am       1 <1>        0.000
      2 C2          2.7581    0.7580    0.7512 C.2        1 <1>        0.000
      3 C3          2.6036   -1.7207    0.4101 C.3        1 <1>        0.000
      4 C5          4.0511    0.6758    1.5208 C.3        1 <1>        0.000
      5 O1          2.2081    1.8502    0.5946 O.2        1 <1>        0.000
      6 C6          3.9688   -2.1568   -0.0531 C.3        1 <1>        0.000
      7 C8          5.2312    0.0111    0.8567 C.3        1 <1>        0.000
      8 C9          5.1141   -1.1686   -0.0868 C.3        1 <1>        0.000
      9 H           1.3281   -0.2218   -0.2739 H.spc      1 <1>        0.000
     10 H           1.9163   -2.2812   -0.2236 H.spc      1 <1>        0.000
     11 H           2.6252   -1.8802    1.4882 H.spc      1 <1>        0.000
     12 H           4.3561    1.7095    1.6838 H.spc      1 <1>        0.000
     13 H           3.8286    0.0630    2.3943 H.spc      1 <1>        0.000
     14 H           4.2771   -2.9032    0.6790 H.spc      1 <1>        0.000
     15 H           3.8234   -2.4379   -1.0961 H.spc      1 <1>        0.000
     16 H           5.7789   -0.4081    1.7008 H.spc      1 <1>        0.000
     17 H           5.6205    0.7987    0.2115 H.spc      1 <1>        0.000
     18 H           4.9956   -0.6915   -1.0597 H.spc      1 <1>        0.000
     19 H           5.9734   -1.7825    0.1830 H.spc      1 <1>        0.000
@<TRIPOS>BOND
     1    6    8 1  
     2    4    7 1  
     3    7    8 1  
     4    1    2 am 
     5    1    3 1  
     6    2    4 1  
     7    2    5 2  
     8    3    6 1  
     9    1    9 1  
    10    3   10 1  
    11    3   11 1  
    12    4   12 1  
    13    4   13 1  
    14    6   14 1  
    15    6   15 1  
    16    7   16 1  
    17    7   17 1  
    18    8   18 1  
    19    8   19 1  
