#      Rotatable Fragment
#      Build by yxyuan
#
# Name:          frag5-570-148/138278
# Creation time: Sat Jun  5 12:53:44 2010


@<TRIPOS>MOLECULE
frag5-570-148/138278
   12    12     1     1     1
SMALL
USER_CHARGES


@<TRIPOS>ATOM
      1 N1          1.7363    0.1691    0.1318 N.ar       1 <1>        0.000
      2 C2          1.1897    1.2907    0.0407 C.ar       1 <1>        0.000
      3 C3          1.0401   -1.0386    0.0605 C.ar       1 <1>        0.000
      4 N2         -0.1373    1.2109   -0.1233 N.ar       1 <1>        0.000
      5 O1          1.8190    2.2913    0.0731 O.2        1 <1>        0.000
      6 C5         -0.2913   -1.1646   -0.0726 C.ar       1 <1>        0.000
      7 C7         -0.9269    0.1805   -0.1160 C.ar       1 <1>        0.000
      8 N3         -2.2708    0.2689   -0.1476 N.pl3      1 <1>        0.000
      9 H           1.6253   -1.9564    0.1176 H.spc      1 <1>        0.000
     10 H          -0.8265   -2.1118   -0.1390 H.spc      1 <1>        0.000
     11 H          -2.7211    1.1836   -0.1793 H.spc      1 <1>        0.000
     12 H          -2.8380   -0.5788   -0.1398 H.spc      1 <1>        0.000
@<TRIPOS>BOND
     1    1    2 ar 
     2    1    3 ar 
     3    2    5 2  
     4    2    4 ar 
     5    3    6 ar 
     6    4    7 ar 
     7    6    7 ar 
     8    7    8 1  
     9    3    9 1  
    10    6   10 1  
    11    8   11 1  
    12    8   12 1  
# Name:          frag5-570-148/138278 -- energy: 0.148322
# Creation time: Sat Jun  5 12:53:44 2010


@<TRIPOS>MOLECULE
frag5-570-148/138278 -- energy: 0.148322
   12    12     1     1     1
SMALL
USER_CHARGES


@<TRIPOS>ATOM
      1 N1          1.7363    0.1691    0.1318 N.ar       1 <1>        0.000
      2 C2          1.1897    1.2907    0.0407 C.ar       1 <1>        0.000
      3 C3          1.0401   -1.0386    0.0605 C.ar       1 <1>        0.000
      4 N2         -0.1373    1.2109   -0.1233 N.ar       1 <1>        0.000
      5 O1          1.8190    2.2913    0.0731 O.2        1 <1>        0.000
      6 C5         -0.2913   -1.1646   -0.0726 C.ar       1 <1>        0.000
      7 C7         -0.9269    0.1805   -0.1160 C.ar       1 <1>        0.000
      8 N3         -2.2708    0.2689   -0.1476 N.pl3      1 <1>        0.000
      9 H           1.6253   -1.9564    0.1176 H.spc      1 <1>        0.000
     10 H          -0.8265   -2.1118   -0.1390 H.spc      1 <1>        0.000
     11 H          -2.7211    1.1836   -0.1793 H.spc      1 <1>        0.000
     12 H          -2.8380   -0.5788   -0.1398 H.spc      1 <1>        0.000
@<TRIPOS>BOND
     1    1    2 ar 
     2    1    3 ar 
     3    2    5 2  
     4    2    4 ar 
     5    3    6 ar 
     6    4    7 ar 
     7    6    7 ar 
     8    7    8 1  
     9    3    9 1  
    10    6   10 1  
    11    8   11 1  
    12    8   12 1  
