#      Rotatable Fragment
#      Build by yxyuan
#
# Name:          frag2-050-52/319335
# Creation time: Sat Jun  5 12:53:40 2010


@<TRIPOS>MOLECULE
frag2-050-52/319335
   14    15     1     1     1
SMALL
USER_CHARGES


@<TRIPOS>ATOM
      1 C1          0.1204    0.7851    0.0742 C.ar       1 <1>        0.000
      2 C2          0.1547   -0.6107   -0.0453 C.ar       1 <1>        0.000
      3 N1         -1.0679    1.4208    0.0719 N.ar       1 <1>        0.000
      4 N2          1.2884    1.4589    0.1890 N.ar       1 <1>        0.000
      5 N3         -1.0069   -1.2887   -0.1595 N.ar       1 <1>        0.000
      6 C3          1.3898   -1.2448   -0.0414 C.ar       1 <1>        0.000
      7 C4         -2.2194    0.7365   -0.0435 C.ar       1 <1>        0.000
      8 C5          2.4677    0.8114    0.1892 C.ar       1 <1>        0.000
      9 C6         -2.1904   -0.6399   -0.1604 C.ar       1 <1>        0.000
     10 N4          2.5188   -0.5334    0.0739 N.ar       1 <1>        0.000
     11 H           1.4411   -2.3297   -0.1329 H.spc      1 <1>        0.000
     12 H          -3.1724    1.2656   -0.0448 H.spc      1 <1>        0.000
     13 H           3.3934    1.3791    0.2836 H.spc      1 <1>        0.000
     14 H          -3.1207   -1.2002   -0.2531 H.spc      1 <1>        0.000
@<TRIPOS>BOND
     1    1    2 ar 
     2    1    3 ar 
     3    2    5 ar 
     4    1    4 ar 
     5    2    6 ar 
     6    3    7 ar 
     7    4    8 ar 
     8    5    9 ar 
     9    6   10 ar 
    10    7    9 ar 
    11    8   10 ar 
    12    6   11 1  
    13    7   12 1  
    14    8   13 1  
    15    9   14 1  
# Name:          frag2-050-52/319335 -- energy: 0.452697
# Creation time: Sat Jun  5 12:53:40 2010


@<TRIPOS>MOLECULE
frag2-050-52/319335 -- energy: 0.452697
   14    15     1     1     1
SMALL
USER_CHARGES


@<TRIPOS>ATOM
      1 C1          0.1204    0.7851    0.0742 C.ar       1 <1>        0.000
      2 C2          0.1547   -0.6107   -0.0453 C.ar       1 <1>        0.000
      3 N1         -1.0679    1.4208    0.0719 N.ar       1 <1>        0.000
      4 N2          1.2884    1.4589    0.1890 N.ar       1 <1>        0.000
      5 N3         -1.0069   -1.2887   -0.1595 N.ar       1 <1>        0.000
      6 C3          1.3898   -1.2448   -0.0414 C.ar       1 <1>        0.000
      7 C4         -2.2194    0.7365   -0.0435 C.ar       1 <1>        0.000
      8 C5          2.4677    0.8114    0.1892 C.ar       1 <1>        0.000
      9 C6         -2.1904   -0.6399   -0.1604 C.ar       1 <1>        0.000
     10 N4          2.5188   -0.5334    0.0739 N.ar       1 <1>        0.000
     11 H           1.4411   -2.3297   -0.1329 H.spc      1 <1>        0.000
     12 H          -3.1724    1.2656   -0.0448 H.spc      1 <1>        0.000
     13 H           3.3934    1.3791    0.2836 H.spc      1 <1>        0.000
     14 H          -3.1207   -1.2002   -0.2531 H.spc      1 <1>        0.000
@<TRIPOS>BOND
     1    1    2 ar 
     2    1    3 ar 
     3    2    5 ar 
     4    1    4 ar 
     5    2    6 ar 
     6    3    7 ar 
     7    4    8 ar 
     8    5    9 ar 
     9    6   10 ar 
    10    7    9 ar 
    11    8   10 ar 
    12    6   11 1  
    13    7   12 1  
    14    8   13 1  
    15    9   14 1  
