#      Rotatable Fragment
#      Build by yxyuan
#
# Name:          frag3-236-5/96164
# Creation time: Sat Jun  5 12:53:15 2010


@<TRIPOS>MOLECULE
frag3-236-5/96164
    9     8     1     1     1
SMALL
USER_CHARGES


@<TRIPOS>ATOM
      1 C17         1.3556   -1.8456    0.0205 C.2        1 <1>        0.000
      2 N3          2.5124   -1.2575   -0.3508 N.am       1 <1>        0.000
      3 O3          1.2659   -2.8447    0.7108 O.2        1 <1>        0.000
      4 N4          2.5698    0.0638   -0.7894 N.2        1 <1>        0.000
      5 C29         3.6055    0.6028   -1.2749 C.2        1 <1>        0.000
      6 H           0.4277   -1.3898   -0.3251 H.spc      1 <1>        0.000
      7 H           3.3754   -1.7997   -0.3088 H.spc      1 <1>        0.000
      8 H           4.5260    0.0269   -1.3701 H.spc      1 <1>        0.000
      9 H           3.5778    1.6434   -1.5982 H.spc      1 <1>        0.000
@<TRIPOS>BOND
     1    1    2 am 
     2    1    3 2  
     3    2    4 1  
     4    4    5 2  
     5    1    6 1  
     6    2    7 1  
     7    5    8 1  
     8    5    9 1  
# Name:          frag3-236-5/96164
# Creation time: Sat Jun  5 12:53:15 2010


@<TRIPOS>MOLECULE
frag3-236-5/96164
    9     8     1     1     1
SMALL
USER_CHARGES


@<TRIPOS>ATOM
      1 C17         2.0071   -1.7944    0.3071 C.2        1 <1>        0.000
      2 N3          1.8874   -1.1712   -0.8899 N.am       1 <1>        0.000
      3 O3          1.2973   -2.6878    0.7378 O.2        1 <1>        0.000
      4 N4          2.5179    0.0024   -1.1975 N.2        1 <1>        0.000
      5 C29         3.5993    0.3698   -0.6414 C.2        1 <1>        0.000
      6 H           2.8215   -1.4633    0.9515 H.spc      1 <1>        0.000
      7 H           1.2947   -1.6009   -1.6002 H.spc      1 <1>        0.000
      8 H           4.0639   -0.2607    0.1167 H.spc      1 <1>        0.000
      9 H           4.0626    1.3156   -0.9223 H.spc      1 <1>        0.000
@<TRIPOS>BOND
     1    1    2 am 
     2    1    3 2  
     3    2    4 1  
     4    4    5 2  
     5    1    6 1  
     6    2    7 1  
     7    5    8 1  
     8    5    9 1  
# Name:          frag3-236-5/96164
# Creation time: Sat Jun  5 12:53:15 2010


@<TRIPOS>MOLECULE
frag3-236-5/96164
    9     8     1     1     1
SMALL
USER_CHARGES


@<TRIPOS>ATOM
      1 C17         1.3357   -1.7764    0.1169 C.2        1 <1>        0.000
      2 N3          1.4181   -0.6432   -0.6270 N.am       1 <1>        0.000
      3 O3          2.2954   -2.4591    0.4682 O.2        1 <1>        0.000
      4 N4          2.5771   -0.1879   -1.1352 N.2        1 <1>        0.000
      5 C29         3.6829   -0.2146   -0.5067 C.2        1 <1>        0.000
      6 H           0.3435   -2.1053    0.4257 H.spc      1 <1>        0.000
      7 H           0.5646   -0.1148   -0.8080 H.spc      1 <1>        0.000
      8 H           3.7263   -0.6235    0.5028 H.spc      1 <1>        0.000
      9 H           4.5869    0.1714   -0.9777 H.spc      1 <1>        0.000
@<TRIPOS>BOND
     1    1    2 am 
     2    1    3 2  
     3    2    4 1  
     4    4    5 2  
     5    1    6 1  
     6    2    7 1  
     7    5    8 1  
     8    5    9 1  
# Name:          frag3-236-5/96164
# Creation time: Sat Jun  5 12:53:15 2010


@<TRIPOS>MOLECULE
frag3-236-5/96164
    9     8     1     1     1
SMALL
USER_CHARGES


@<TRIPOS>ATOM
      1 C17         1.5879   -2.2568   -0.2322 C.2        1 <1>        0.000
      2 N3          2.0446   -1.2615   -1.0253 N.am       1 <1>        0.000
      3 O3          1.5020   -2.1505    0.9857 O.2        1 <1>        0.000
      4 N4          2.5804   -0.1066   -0.4802 N.2        1 <1>        0.000
      5 C29         3.5943    0.4942   -0.9317 C.2        1 <1>        0.000
      6 H           1.2828   -3.1947   -0.6963 H.spc      1 <1>        0.000
      7 H           1.9938   -1.3626   -2.0390 H.spc      1 <1>        0.000
      8 H           4.1108    0.1073   -1.8102 H.spc      1 <1>        0.000
      9 H           3.9535    1.4000   -0.4432 H.spc      1 <1>        0.000
@<TRIPOS>BOND
     1    1    2 am 
     2    1    3 2  
     3    2    4 1  
     4    4    5 2  
     5    1    6 1  
     6    2    7 1  
     7    5    8 1  
     8    5    9 1  
# Name:          frag3-236-5/96164 -- energy: -0.335024
# Creation time: Sat Jun  5 12:53:15 2010


@<TRIPOS>MOLECULE
frag3-236-5/96164 -- energy: -0.335024
    9     8     1     1     1
SMALL
USER_CHARGES


@<TRIPOS>ATOM
      1 C17         1.3556   -1.8456    0.0205 C.2        1 <1>        0.000
      2 N3          2.5124   -1.2575   -0.3508 N.am       1 <1>        0.000
      3 O3          1.2659   -2.8447    0.7108 O.2        1 <1>        0.000
      4 N4          2.5698    0.0638   -0.7894 N.2        1 <1>        0.000
      5 C29         3.6055    0.6028   -1.2749 C.2        1 <1>        0.000
      6 H           0.4277   -1.3898   -0.3251 H.spc      1 <1>        0.000
      7 H           3.3754   -1.7997   -0.3088 H.spc      1 <1>        0.000
      8 H           4.5260    0.0269   -1.3701 H.spc      1 <1>        0.000
      9 H           3.5778    1.6434   -1.5982 H.spc      1 <1>        0.000
@<TRIPOS>BOND
     1    1    2 am 
     2    1    3 2  
     3    2    4 1  
     4    4    5 2  
     5    1    6 1  
     6    2    7 1  
     7    5    8 1  
     8    5    9 1  
# Name:          frag3-236-5/96164 -- energy: 0.177726
# Creation time: Sat Jun  5 12:53:15 2010


@<TRIPOS>MOLECULE
frag3-236-5/96164 -- energy: 0.177726
    9     8     1     1     1
SMALL
USER_CHARGES


@<TRIPOS>ATOM
      1 C17         2.0071   -1.7944    0.3071 C.2        1 <1>        0.000
      2 N3          1.8874   -1.1712   -0.8899 N.am       1 <1>        0.000
      3 O3          1.2973   -2.6878    0.7378 O.2        1 <1>        0.000
      4 N4          2.5179    0.0024   -1.1975 N.2        1 <1>        0.000
      5 C29         3.5993    0.3698   -0.6414 C.2        1 <1>        0.000
      6 H           2.8215   -1.4633    0.9515 H.spc      1 <1>        0.000
      7 H           1.2947   -1.6009   -1.6002 H.spc      1 <1>        0.000
      8 H           4.0639   -0.2607    0.1167 H.spc      1 <1>        0.000
      9 H           4.0626    1.3156   -0.9223 H.spc      1 <1>        0.000
@<TRIPOS>BOND
     1    1    2 am 
     2    1    3 2  
     3    2    4 1  
     4    4    5 2  
     5    1    6 1  
     6    2    7 1  
     7    5    8 1  
     8    5    9 1  
# Name:          frag3-236-5/96164 -- energy: -0.017236
# Creation time: Sat Jun  5 12:53:15 2010


@<TRIPOS>MOLECULE
frag3-236-5/96164 -- energy: -0.017236
    9     8     1     1     1
SMALL
USER_CHARGES


@<TRIPOS>ATOM
      1 C17         1.3357   -1.7764    0.1169 C.2        1 <1>        0.000
      2 N3          1.4181   -0.6432   -0.6270 N.am       1 <1>        0.000
      3 O3          2.2954   -2.4591    0.4682 O.2        1 <1>        0.000
      4 N4          2.5771   -0.1879   -1.1352 N.2        1 <1>        0.000
      5 C29         3.6829   -0.2146   -0.5067 C.2        1 <1>        0.000
      6 H           0.3435   -2.1053    0.4257 H.spc      1 <1>        0.000
      7 H           0.5646   -0.1148   -0.8080 H.spc      1 <1>        0.000
      8 H           3.7263   -0.6235    0.5028 H.spc      1 <1>        0.000
      9 H           4.5869    0.1714   -0.9777 H.spc      1 <1>        0.000
@<TRIPOS>BOND
     1    1    2 am 
     2    1    3 2  
     3    2    4 1  
     4    4    5 2  
     5    1    6 1  
     6    2    7 1  
     7    5    8 1  
     8    5    9 1  
# Name:          frag3-236-5/96164 -- energy: -0.344323
# Creation time: Sat Jun  5 12:53:15 2010


@<TRIPOS>MOLECULE
frag3-236-5/96164 -- energy: -0.344323
    9     8     1     1     1
SMALL
USER_CHARGES


@<TRIPOS>ATOM
      1 C17         1.5879   -2.2568   -0.2322 C.2        1 <1>        0.000
      2 N3          2.0446   -1.2615   -1.0253 N.am       1 <1>        0.000
      3 O3          1.5020   -2.1505    0.9857 O.2        1 <1>        0.000
      4 N4          2.5804   -0.1066   -0.4802 N.2        1 <1>        0.000
      5 C29         3.5943    0.4942   -0.9317 C.2        1 <1>        0.000
      6 H           1.2828   -3.1947   -0.6963 H.spc      1 <1>        0.000
      7 H           1.9938   -1.3626   -2.0390 H.spc      1 <1>        0.000
      8 H           4.1108    0.1073   -1.8102 H.spc      1 <1>        0.000
      9 H           3.9535    1.4000   -0.4432 H.spc      1 <1>        0.000
@<TRIPOS>BOND
     1    1    2 am 
     2    1    3 2  
     3    2    4 1  
     4    4    5 2  
     5    1    6 1  
     6    2    7 1  
     7    5    8 1  
     8    5    9 1  
