#      Rotatable Fragment
#      Build by yxyuan
#
# Name:          frag4-487-87/150395
# Creation time: Sat Jun  5 12:53:38 2010


@<TRIPOS>MOLECULE
frag4-487-87/150395
   44    45     1     1     1
SMALL
USER_CHARGES


@<TRIPOS>ATOM
      1 C1         -1.6176    0.2877    3.7350 C.3        1 <1>        0.000
      2 C2         -1.8045   -0.9890    2.8844 C.3        1 <1>        0.000
      3 N1         -2.1557   -0.2248    4.9575 N.3        1 <1>        0.000
      4 C3         -0.3118    1.0224    3.8797 C.3        1 <1>        0.000
      5 C4         -0.5766   -1.8788    2.6879 C.3        1 <1>        0.000
      6 O1         -2.9099   -1.7273    3.4428 O.3        1 <1>        0.000
      7 C6         -2.9515   -1.3459    4.7050 C.3        1 <1>        0.000
      8 C13         1.0963   -2.5343    1.2955 C.3        1 <1>        0.000
      9 C8          0.1392    1.8316    2.7283 C.3        1 <1>        0.000
     10 O2          0.3998   -1.5261    1.7430 O.3        1 <1>        0.000
     11 C12         1.4780    2.2348    2.2563 C.3        1 <1>        0.000
     12 C16         2.0064    1.4316    1.1032 C.3        1 <1>        0.000
     13 C18         1.8090   -2.7370    0.0422 C.3        1 <1>        0.000
     14 C20         3.0675    0.4062    1.4294 C.3        1 <1>        0.000
     15 C21         2.2077   -1.7689   -0.9794 C.3        1 <1>        0.000
     16 C24         3.8272   -0.2905    0.3233 C.3        1 <1>        0.000
     17 C26         3.1731   -0.6444   -0.9809 C.3        1 <1>        0.000
     18 H          -2.0741    1.1458    3.2417 H.spc      1 <1>        0.000
     19 H          -2.0023   -0.6521    1.8668 H.spc      1 <1>        0.000
     20 H          -1.3877   -0.4933    5.5727 H.spc      1 <1>        0.000
     21 H          -0.4582    1.7277    4.6978 H.spc      1 <1>        0.000
     22 H           0.4475    0.2523    4.0156 H.spc      1 <1>        0.000
     23 H          -0.9796   -2.8241    2.3244 H.spc      1 <1>        0.000
     24 H          -0.0564   -1.8417    3.6450 H.spc      1 <1>        0.000
     25 H          -2.5751   -2.1672    5.3149 H.spc      1 <1>        0.000
     26 H          -3.9828   -1.0837    4.9411 H.spc      1 <1>        0.000
     27 H           0.2991   -3.2676    1.1734 H.spc      1 <1>        0.000
     28 H           1.9419   -2.4917    1.9820 H.spc      1 <1>        0.000
     29 H          -0.2400    2.8056    3.0375 H.spc      1 <1>        0.000
     30 H          -0.1378    1.1566    1.9185 H.spc      1 <1>        0.000
     31 H           2.1658    2.0846    3.0885 H.spc      1 <1>        0.000
     32 H           1.3955    3.2659    1.9127 H.spc      1 <1>        0.000
     33 H           1.1573    0.8737    0.7085 H.spc      1 <1>        0.000
     34 H           2.4738    2.1460    0.4255 H.spc      1 <1>        0.000
     35 H           2.7869   -3.0353    0.4202 H.spc      1 <1>        0.000
     36 H           1.0676   -3.3118   -0.5128 H.spc      1 <1>        0.000
     37 H           3.8308    0.9708    1.9648 H.spc      1 <1>        0.000
     38 H           2.5219   -0.3958    1.9266 H.spc      1 <1>        0.000
     39 H           2.7227   -2.4416   -1.6652 H.spc      1 <1>        0.000
     40 H           1.2797   -1.2019   -1.0537 H.spc      1 <1>        0.000
     41 H           4.5933    0.4316    0.0410 H.spc      1 <1>        0.000
     42 H           4.0836   -1.2579    0.7551 H.spc      1 <1>        0.000
     43 H           3.9834   -0.9543   -1.6409 H.spc      1 <1>        0.000
     44 H           2.5980    0.2356   -1.2689 H.spc      1 <1>        0.000
@<TRIPOS>BOND
     1   10    8 1  
     2    1    2 1  
     3    4    9 1  
     4    6    7 1  
     5    1    4 1  
     6    2    5 1  
     7    3    7 1  
     8    1    3 1  
     9    2    6 1  
    10    9   11 1  
    11    5   10 1  
    12   16   17 1  
    13   15   17 1  
    14   14   16 1  
    15   13   15 1  
    16   12   14 1  
    17    8   13 1  
    18   11   12 1  
    19    1   18 1  
    20    2   19 1  
    21    3   20 1  
    22    4   21 1  
    23    4   22 1  
    24    5   23 1  
    25    5   24 1  
    26    7   25 1  
    27    7   26 1  
    28    8   27 1  
    29    8   28 1  
    30    9   29 1  
    31    9   30 1  
    32   11   31 1  
    33   11   32 1  
    34   12   33 1  
    35   12   34 1  
    36   13   35 1  
    37   13   36 1  
    38   14   37 1  
    39   14   38 1  
    40   15   39 1  
    41   15   40 1  
    42   16   41 1  
    43   16   42 1  
    44   17   43 1  
    45   17   44 1  
# Name:          frag4-487-87/150395
# Creation time: Sat Jun  5 12:53:38 2010


@<TRIPOS>MOLECULE
frag4-487-87/150395
   44    45     1     1     1
SMALL
USER_CHARGES


@<TRIPOS>ATOM
      1 C1         -1.2068    0.2454    3.5213 C.3        1 <1>        0.000
      2 C2         -1.4620   -1.0322    2.6773 C.3        1 <1>        0.000
      3 N1         -2.3502    0.1538    4.3808 N.3        1 <1>        0.000
      4 C3          0.1074    0.5095    4.2588 C.3        1 <1>        0.000
      5 C4         -0.4755   -2.1958    2.9000 C.3        1 <1>        0.000
      6 O1         -2.8546   -1.4026    2.8200 O.3        1 <1>        0.000
      7 C6         -3.2670   -0.7576    3.8782 C.3        1 <1>        0.000
      8 C13         1.2543   -3.0091    1.6311 C.3        1 <1>        0.000
      9 C8          0.9237    1.6343    3.7085 C.3        1 <1>        0.000
     10 O2          0.8576   -2.0520    2.4297 O.3        1 <1>        0.000
     11 C12         2.0717    1.6940    2.7620 C.3        1 <1>        0.000
     12 C16         1.6838    2.0718    1.3609 C.3        1 <1>        0.000
     13 C18         1.9839   -2.9825    0.3683 C.3        1 <1>        0.000
     14 C20         1.4700    0.9644    0.3548 C.3        1 <1>        0.000
     15 C21         2.8597   -1.9763   -0.2132 C.3        1 <1>        0.000
     16 C24         2.6699    0.5113   -0.4511 C.3        1 <1>        0.000
     17 C26         2.6105   -0.8293   -1.1344 C.3        1 <1>        0.000
     18 H          -1.0819    1.1103    2.8699 H.spc      1 <1>        0.000
     19 H          -1.2538   -0.7841    1.6365 H.spc      1 <1>        0.000
     20 H          -2.0461   -0.1578    5.3032 H.spc      1 <1>        0.000
     21 H          -0.1541    0.7807    5.2816 H.spc      1 <1>        0.000
     22 H           0.7099   -0.3937    4.1627 H.spc      1 <1>        0.000
     23 H          -0.8885   -3.0322    2.3361 H.spc      1 <1>        0.000
     24 H          -0.3876   -2.2924    3.9821 H.spc      1 <1>        0.000
     25 H          -3.4449   -1.4984    4.6577 H.spc      1 <1>        0.000
     26 H          -4.1538   -0.1947    3.5868 H.spc      1 <1>        0.000
     27 H           0.2863   -3.3606    1.2741 H.spc      1 <1>        0.000
     28 H           2.0077   -3.4750    2.2663 H.spc      1 <1>        0.000
     29 H           1.4379    1.9356    4.6211 H.spc      1 <1>        0.000
     30 H           0.1644    2.1095    3.0874 H.spc      1 <1>        0.000
     31 H           2.5103    0.6970    2.7200 H.spc      1 <1>        0.000
     32 H           2.7549    2.4605    3.1278 H.spc      1 <1>        0.000
     33 H           0.7166    2.5658    1.4540 H.spc      1 <1>        0.000
     34 H           2.5237    2.6506    0.9766 H.spc      1 <1>        0.000
     35 H           2.7096   -3.7737    0.5566 H.spc      1 <1>        0.000
     36 H           1.1474   -2.9252   -0.3281 H.spc      1 <1>        0.000
     37 H           1.1614    0.0953    0.9359 H.spc      1 <1>        0.000
     38 H           0.7609    1.3608   -0.3719 H.spc      1 <1>        0.000
     39 H           3.1162   -1.4233    0.6904 H.spc      1 <1>        0.000
     40 H           3.4413   -2.6135   -0.8794 H.spc      1 <1>        0.000
     41 H           2.7632    1.2387   -1.2575 H.spc      1 <1>        0.000
     42 H           3.4831    0.4282    0.2700 H.spc      1 <1>        0.000
     43 H           3.3902   -0.8445   -1.8959 H.spc      1 <1>        0.000
     44 H           1.6058   -0.9466   -1.5404 H.spc      1 <1>        0.000
@<TRIPOS>BOND
     1   10    8 1  
     2    1    2 1  
     3    4    9 1  
     4    6    7 1  
     5    1    4 1  
     6    2    5 1  
     7    3    7 1  
     8    1    3 1  
     9    2    6 1  
    10    9   11 1  
    11    5   10 1  
    12   16   17 1  
    13   15   17 1  
    14   14   16 1  
    15   13   15 1  
    16   12   14 1  
    17    8   13 1  
    18   11   12 1  
    19    1   18 1  
    20    2   19 1  
    21    3   20 1  
    22    4   21 1  
    23    4   22 1  
    24    5   23 1  
    25    5   24 1  
    26    7   25 1  
    27    7   26 1  
    28    8   27 1  
    29    8   28 1  
    30    9   29 1  
    31    9   30 1  
    32   11   31 1  
    33   11   32 1  
    34   12   33 1  
    35   12   34 1  
    36   13   35 1  
    37   13   36 1  
    38   14   37 1  
    39   14   38 1  
    40   15   39 1  
    41   15   40 1  
    42   16   41 1  
    43   16   42 1  
    44   17   43 1  
    45   17   44 1  
# Name:          frag4-487-87/150395
# Creation time: Sat Jun  5 12:53:38 2010


@<TRIPOS>MOLECULE
frag4-487-87/150395
   44    45     1     1     1
SMALL
USER_CHARGES


@<TRIPOS>ATOM
      1 C1         -0.9568    0.3161    3.2116 C.3        1 <1>        0.000
      2 C2         -1.1682   -1.0698    2.5154 C.3        1 <1>        0.000
      3 N1         -2.1631    0.3481    3.9804 N.3        1 <1>        0.000
      4 C3          0.2369    0.7045    4.0683 C.3        1 <1>        0.000
      5 C4         -0.0813   -2.1252    2.6855 C.3        1 <1>        0.000
      6 O1         -2.4674   -1.5821    2.8501 O.3        1 <1>        0.000
      7 C6         -2.9603   -0.7585    3.7450 C.3        1 <1>        0.000
      8 C13         0.8333   -3.6784    1.1709 C.3        1 <1>        0.000
      9 C8          1.5311    1.0734    3.4249 C.3        1 <1>        0.000
     10 O2         -0.1723   -3.3128    1.9127 O.3        1 <1>        0.000
     11 C12         2.0793    2.3656    2.9248 C.3        1 <1>        0.000
     12 C16         1.8771    2.6531    1.4634 C.3        1 <1>        0.000
     13 C18         2.1077   -3.1065    0.7635 C.3        1 <1>        0.000
     14 C20         2.3621    1.6275    0.4727 C.3        1 <1>        0.000
     15 C21         2.4730   -1.7109    0.4896 C.3        1 <1>        0.000
     16 C24         1.3995    0.5397    0.0753 C.3        1 <1>        0.000
     17 C26         1.9460   -0.7366   -0.5008 C.3        1 <1>        0.000
     18 H          -0.7272    1.0399    2.4297 H.spc      1 <1>        0.000
     19 H          -1.0918   -0.8491    1.4507 H.spc      1 <1>        0.000
     20 H          -1.9104    0.3537    4.9686 H.spc      1 <1>        0.000
     21 H          -0.0804    1.6128    4.5806 H.spc      1 <1>        0.000
     22 H           0.4646   -0.1948    4.6406 H.spc      1 <1>        0.000
     23 H          -0.1568   -2.4509    3.7230 H.spc      1 <1>        0.000
     24 H           0.8412   -1.6424    2.3629 H.spc      1 <1>        0.000
     25 H          -3.0421   -1.3072    4.6833 H.spc      1 <1>        0.000
     26 H          -3.9158   -0.3973    3.3646 H.spc      1 <1>        0.000
     27 H           0.3317   -3.6296    0.2044 H.spc      1 <1>        0.000
     28 H           1.2221   -4.4617    1.8216 H.spc      1 <1>        0.000
     29 H           1.4079    0.5555    2.4738 H.spc      1 <1>        0.000
     30 H           2.1990    0.9157    4.2717 H.spc      1 <1>        0.000
     31 H           3.1573    2.3181    3.0787 H.spc      1 <1>        0.000
     32 H           1.5489    3.1499    3.4649 H.spc      1 <1>        0.000
     33 H           0.7973    2.7049    1.3236 H.spc      1 <1>        0.000
     34 H           2.4592    3.5520    1.2603 H.spc      1 <1>        0.000
     35 H           2.6984   -3.2893    1.6611 H.spc      1 <1>        0.000
     36 H           2.2005   -3.5313   -0.2360 H.spc      1 <1>        0.000
     37 H           2.5762    2.1800   -0.4422 H.spc      1 <1>        0.000
     38 H           3.1957    1.1202    0.9583 H.spc      1 <1>        0.000
     39 H           2.1269   -1.2440    1.4117 H.spc      1 <1>        0.000
     40 H           3.4769   -1.8566    0.0907 H.spc      1 <1>        0.000
     41 H           0.9095    0.2437    1.0029 H.spc      1 <1>        0.000
     42 H           0.7965    0.9739   -0.7222 H.spc      1 <1>        0.000
     43 H           2.7853   -0.4558   -1.1370 H.spc      1 <1>        0.000
     44 H           1.1164   -1.2282   -1.0089 H.spc      1 <1>        0.000
@<TRIPOS>BOND
     1   10    8 1  
     2    1    2 1  
     3    4    9 1  
     4    6    7 1  
     5    1    4 1  
     6    2    5 1  
     7    3    7 1  
     8    1    3 1  
     9    2    6 1  
    10    9   11 1  
    11    5   10 1  
    12   16   17 1  
    13   15   17 1  
    14   14   16 1  
    15   13   15 1  
    16   12   14 1  
    17    8   13 1  
    18   11   12 1  
    19    1   18 1  
    20    2   19 1  
    21    3   20 1  
    22    4   21 1  
    23    4   22 1  
    24    5   23 1  
    25    5   24 1  
    26    7   25 1  
    27    7   26 1  
    28    8   27 1  
    29    8   28 1  
    30    9   29 1  
    31    9   30 1  
    32   11   31 1  
    33   11   32 1  
    34   12   33 1  
    35   12   34 1  
    36   13   35 1  
    37   13   36 1  
    38   14   37 1  
    39   14   38 1  
    40   15   39 1  
    41   15   40 1  
    42   16   41 1  
    43   16   42 1  
    44   17   43 1  
    45   17   44 1  
# Name:          frag4-487-87/150395
# Creation time: Sat Jun  5 12:53:38 2010


@<TRIPOS>MOLECULE
frag4-487-87/150395
   44    45     1     1     1
SMALL
USER_CHARGES


@<TRIPOS>ATOM
      1 C1         -0.9925    0.1924    3.1867 C.3        1 <1>        0.000
      2 C2         -1.1021   -1.2502    2.6224 C.3        1 <1>        0.000
      3 N1         -2.2829    0.2741    3.8142 N.3        1 <1>        0.000
      4 C3          0.1614    0.6341    4.0659 C.3        1 <1>        0.000
      5 C4         -0.1291   -2.2838    3.1762 C.3        1 <1>        0.000
      6 O1         -2.4693   -1.6776    2.6754 O.3        1 <1>        0.000
      7 C6         -3.0916   -0.8075    3.4522 C.3        1 <1>        0.000
      8 C13         1.3700   -3.1591    1.7398 C.3        1 <1>        0.000
      9 C8          0.6747    2.0127    3.8128 C.3        1 <1>        0.000
     10 O2          1.1863   -2.2794    2.6831 O.3        1 <1>        0.000
     11 C12         1.3456    2.6507    2.6489 C.3        1 <1>        0.000
     12 C16         2.3461    1.7886    1.9229 C.3        1 <1>        0.000
     13 C18         1.4758   -3.0294    0.2834 C.3        1 <1>        0.000
     14 C20         1.9003    1.0737    0.6709 C.3        1 <1>        0.000
     15 C21         1.3257   -1.8220   -0.5359 C.3        1 <1>        0.000
     16 C24         2.8409    0.0642    0.0580 C.3        1 <1>        0.000
     17 C26         2.3170   -0.8344   -1.0237 C.3        1 <1>        0.000
     18 H          -0.7407    0.8972    2.3943 H.spc      1 <1>        0.000
     19 H          -0.7702   -1.1857    1.5862 H.spc      1 <1>        0.000
     20 H          -2.1541    0.2596    4.8259 H.spc      1 <1>        0.000
     21 H          -0.2096    0.6255    5.0908 H.spc      1 <1>        0.000
     22 H           0.9870   -0.0465    3.8578 H.spc      1 <1>        0.000
     23 H          -0.5419   -3.2518    2.8921 H.spc      1 <1>        0.000
     24 H          -0.0409   -2.0586    4.2390 H.spc      1 <1>        0.000
     25 H          -3.3832   -1.3257    4.3657 H.spc      1 <1>        0.000
     26 H          -3.9435   -0.4151    2.8969 H.spc      1 <1>        0.000
     27 H           0.4220   -3.6931    1.8046 H.spc      1 <1>        0.000
     28 H           2.3931   -3.4575    1.9687 H.spc      1 <1>        0.000
     29 H           1.5076    2.0181    4.5159 H.spc      1 <1>        0.000
     30 H          -0.2751    2.5464    3.7779 H.spc      1 <1>        0.000
     31 H           1.8983    3.5051    3.0396 H.spc      1 <1>        0.000
     32 H           0.5610    2.8874    1.9302 H.spc      1 <1>        0.000
     33 H           3.1309    2.4720    1.5984 H.spc      1 <1>        0.000
     34 H           2.6069    0.9981    2.6266 H.spc      1 <1>        0.000
     35 H           2.5320   -3.2522    0.1320 H.spc      1 <1>        0.000
     36 H           0.6098   -3.6074   -0.0393 H.spc      1 <1>        0.000
     37 H           1.0163    0.5061    0.9613 H.spc      1 <1>        0.000
     38 H           1.7833    1.8538   -0.0813 H.spc      1 <1>        0.000
     39 H           1.0400   -2.2782   -1.4837 H.spc      1 <1>        0.000
     40 H           0.7707   -1.1950    0.1619 H.spc      1 <1>        0.000
     41 H           3.6249    0.6549   -0.4158 H.spc      1 <1>        0.000
     42 H           3.1165   -0.6026    0.8750 H.spc      1 <1>        0.000
     43 H           3.1628   -1.3894   -1.4295 H.spc      1 <1>        0.000
     44 H           1.8198   -0.2057   -1.7624 H.spc      1 <1>        0.000
@<TRIPOS>BOND
     1   10    8 1  
     2    1    2 1  
     3    4    9 1  
     4    6    7 1  
     5    1    4 1  
     6    2    5 1  
     7    3    7 1  
     8    1    3 1  
     9    2    6 1  
    10    9   11 1  
    11    5   10 1  
    12   16   17 1  
    13   15   17 1  
    14   14   16 1  
    15   13   15 1  
    16   12   14 1  
    17    8   13 1  
    18   11   12 1  
    19    1   18 1  
    20    2   19 1  
    21    3   20 1  
    22    4   21 1  
    23    4   22 1  
    24    5   23 1  
    25    5   24 1  
    26    7   25 1  
    27    7   26 1  
    28    8   27 1  
    29    8   28 1  
    30    9   29 1  
    31    9   30 1  
    32   11   31 1  
    33   11   32 1  
    34   12   33 1  
    35   12   34 1  
    36   13   35 1  
    37   13   36 1  
    38   14   37 1  
    39   14   38 1  
    40   15   39 1  
    41   15   40 1  
    42   16   41 1  
    43   16   42 1  
    44   17   43 1  
    45   17   44 1  
# Name:          frag4-487-87/150395
# Creation time: Sat Jun  5 12:53:38 2010


@<TRIPOS>MOLECULE
frag4-487-87/150395
   44    45     1     1     1
SMALL
USER_CHARGES


@<TRIPOS>ATOM
      1 C1         -1.7718    0.2007    3.1277 C.3        1 <1>        0.000
      2 C2         -1.4206   -1.2768    2.8118 C.3        1 <1>        0.000
      3 N1         -2.3167    0.0138    4.4271 N.3        1 <1>        0.000
      4 C3         -0.8380    1.4097    3.1661 C.3        1 <1>        0.000
      5 C4          0.0312   -1.5533    2.5045 C.3        1 <1>        0.000
      6 O1         -1.9386   -2.1244    3.8399 O.3        1 <1>        0.000
      7 C6         -2.3215   -1.3146    4.8022 C.3        1 <1>        0.000
      8 C13         0.4001   -3.1127    0.8042 C.3        1 <1>        0.000
      9 C8          0.3171    1.6931    2.2441 C.3        1 <1>        0.000
     10 O2          0.3017   -2.8973    2.0981 O.3        1 <1>        0.000
     11 C12         1.7066    2.0639    2.6754 C.3        1 <1>        0.000
     12 C16         2.8749    2.2738    1.7315 C.3        1 <1>        0.000
     13 C18         0.6286   -2.2405   -0.3489 C.3        1 <1>        0.000
     14 C20         3.1858    1.2041    0.7024 C.3        1 <1>        0.000
     15 C21         1.7156   -1.2938   -0.5294 C.3        1 <1>        0.000
     16 C24         3.2470   -0.2303    1.1367 C.3        1 <1>        0.000
     17 C26         3.0753   -1.2682    0.0598 C.3        1 <1>        0.000
     18 H          -2.3141    0.5504    2.2492 H.spc      1 <1>        0.000
     19 H          -1.9109   -1.5087    1.8664 H.spc      1 <1>        0.000
     20 H          -1.7396    0.5298    5.0913 H.spc      1 <1>        0.000
     21 H          -1.5218    2.2196    2.9119 H.spc      1 <1>        0.000
     22 H          -0.3248    1.2569    4.1155 H.spc      1 <1>        0.000
     23 H           0.5923   -1.3769    3.4222 H.spc      1 <1>        0.000
     24 H           0.3123   -0.9048    1.6747 H.spc      1 <1>        0.000
     25 H          -1.6198   -1.4276    5.6286 H.spc      1 <1>        0.000
     26 H          -3.3445   -1.5792    5.0699 H.spc      1 <1>        0.000
     27 H          -0.6326   -3.3959    0.6005 H.spc      1 <1>        0.000
     28 H           1.3441   -3.6575    0.7944 H.spc      1 <1>        0.000
     29 H          -0.0135    2.5987    1.7354 H.spc      1 <1>        0.000
     30 H           0.4756    0.7236    1.7718 H.spc      1 <1>        0.000
     31 H           2.0181    1.1877    3.2441 H.spc      1 <1>        0.000
     32 H           1.5642    3.0584    3.0982 H.spc      1 <1>        0.000
     33 H           2.6120    3.1571    1.1495 H.spc      1 <1>        0.000
     34 H           3.7541    2.3102    2.3748 H.spc      1 <1>        0.000
     35 H           0.8433   -2.9682   -1.1315 H.spc      1 <1>        0.000
     36 H          -0.2315   -1.5736   -0.2896 H.spc      1 <1>        0.000
     37 H           2.3578    1.2473   -0.0051 H.spc      1 <1>        0.000
     38 H           4.1928    1.4345    0.3547 H.spc      1 <1>        0.000
     39 H           1.9629   -1.4828   -1.5740 H.spc      1 <1>        0.000
     40 H           1.2839   -0.4133   -0.0535 H.spc      1 <1>        0.000
     41 H           4.2477   -0.3797    1.5421 H.spc      1 <1>        0.000
     42 H           2.4151   -0.3718    1.8266 H.spc      1 <1>        0.000
     43 H           3.2525   -2.2429    0.5145 H.spc      1 <1>        0.000
     44 H           3.7738   -1.0262   -0.7413 H.spc      1 <1>        0.000
@<TRIPOS>BOND
     1   10    8 1  
     2    1    2 1  
     3    4    9 1  
     4    6    7 1  
     5    1    4 1  
     6    2    5 1  
     7    3    7 1  
     8    1    3 1  
     9    2    6 1  
    10    9   11 1  
    11    5   10 1  
    12   16   17 1  
    13   15   17 1  
    14   14   16 1  
    15   13   15 1  
    16   12   14 1  
    17    8   13 1  
    18   11   12 1  
    19    1   18 1  
    20    2   19 1  
    21    3   20 1  
    22    4   21 1  
    23    4   22 1  
    24    5   23 1  
    25    5   24 1  
    26    7   25 1  
    27    7   26 1  
    28    8   27 1  
    29    8   28 1  
    30    9   29 1  
    31    9   30 1  
    32   11   31 1  
    33   11   32 1  
    34   12   33 1  
    35   12   34 1  
    36   13   35 1  
    37   13   36 1  
    38   14   37 1  
    39   14   38 1  
    40   15   39 1  
    41   15   40 1  
    42   16   41 1  
    43   16   42 1  
    44   17   43 1  
    45   17   44 1  
# Name:          frag4-487-87/150395
# Creation time: Sat Jun  5 12:53:38 2010


@<TRIPOS>MOLECULE
frag4-487-87/150395
   44    45     1     1     1
SMALL
USER_CHARGES


@<TRIPOS>ATOM
      1 C1         -0.9273    0.3117    3.5542 C.3        1 <1>        0.000
      2 C2         -1.2366   -0.8400    2.5503 C.3        1 <1>        0.000
      3 N1         -1.9690    0.0468    4.4933 N.3        1 <1>        0.000
      4 C3          0.4083    0.5727    4.2300 C.3        1 <1>        0.000
      5 C4         -0.1917   -1.9393    2.4194 C.3        1 <1>        0.000
      6 O1         -2.5518   -1.3517    2.8148 O.3        1 <1>        0.000
      7 C6         -2.8763   -0.8801    4.0014 C.3        1 <1>        0.000
      8 C13         0.7340   -3.3403    0.8261 C.3        1 <1>        0.000
      9 C8          1.2368    1.7150    3.7401 C.3        1 <1>        0.000
     10 O2         -0.3598   -2.8956    1.3955 O.3        1 <1>        0.000
     11 C12         1.0413    2.7193    2.6692 C.3        1 <1>        0.000
     12 C16         1.6675    2.3295    1.3565 C.3        1 <1>        0.000
     13 C18         2.1608   -3.0757    0.9723 C.3        1 <1>        0.000
     14 C20         1.7687    0.8632    0.9947 C.3        1 <1>        0.000
     15 C21         2.9528   -2.1104    0.1875 C.3        1 <1>        0.000
     16 C24         2.5259    0.4291   -0.2386 C.3        1 <1>        0.000
     17 C26         2.4929   -1.0071   -0.7135 C.3        1 <1>        0.000
     18 H          -0.8665    1.2410    2.9878 H.spc      1 <1>        0.000
     19 H          -1.1950   -0.3867    1.5599 H.spc      1 <1>        0.000
     20 H          -1.5491   -0.3323    5.3420 H.spc      1 <1>        0.000
     21 H           0.1641    0.8176    5.2637 H.spc      1 <1>        0.000
     22 H           1.0060   -0.3185    4.0386 H.spc      1 <1>        0.000
     23 H          -0.2458   -2.5017    3.3516 H.spc      1 <1>        0.000
     24 H           0.7404   -1.4254    2.1844 H.spc      1 <1>        0.000
     25 H          -2.8955   -1.7208    4.6949 H.spc      1 <1>        0.000
     26 H          -3.8385   -0.3775    3.9031 H.spc      1 <1>        0.000
     27 H           0.5913   -2.8947   -0.1584 H.spc      1 <1>        0.000
     28 H           0.7198   -4.3535    1.2278 H.spc      1 <1>        0.000
     29 H           2.0631    1.1545    3.3029 H.spc      1 <1>        0.000
     30 H           1.1589    2.3700    4.6079 H.spc      1 <1>        0.000
     31 H           1.5171    3.6436    2.9968 H.spc      1 <1>        0.000
     32 H          -0.0317    2.8163    2.5037 H.spc      1 <1>        0.000
     33 H           1.0155    2.7606    0.5968 H.spc      1 <1>        0.000
     34 H           2.6999    2.6721    1.4265 H.spc      1 <1>        0.000
     35 H           2.2059   -2.6415    1.9711 H.spc      1 <1>        0.000
     36 H           2.5967   -4.0256    0.6629 H.spc      1 <1>        0.000
     37 H           2.3246    0.4203    1.8211 H.spc      1 <1>        0.000
     38 H           0.7395    0.5634    0.7975 H.spc      1 <1>        0.000
     39 H           3.4107   -1.5321    0.9900 H.spc      1 <1>        0.000
     40 H           3.4152   -2.7787   -0.5389 H.spc      1 <1>        0.000
     41 H           2.0509    0.9842   -1.0475 H.spc      1 <1>        0.000
     42 H           3.5710    0.5954    0.0227 H.spc      1 <1>        0.000
     43 H           3.1921   -1.0315   -1.5494 H.spc      1 <1>        0.000
     44 H           1.4351   -1.2139   -0.8758 H.spc      1 <1>        0.000
@<TRIPOS>BOND
     1   10    8 1  
     2    1    2 1  
     3    4    9 1  
     4    6    7 1  
     5    1    4 1  
     6    2    5 1  
     7    3    7 1  
     8    1    3 1  
     9    2    6 1  
    10    9   11 1  
    11    5   10 1  
    12   16   17 1  
    13   15   17 1  
    14   14   16 1  
    15   13   15 1  
    16   12   14 1  
    17    8   13 1  
    18   11   12 1  
    19    1   18 1  
    20    2   19 1  
    21    3   20 1  
    22    4   21 1  
    23    4   22 1  
    24    5   23 1  
    25    5   24 1  
    26    7   25 1  
    27    7   26 1  
    28    8   27 1  
    29    8   28 1  
    30    9   29 1  
    31    9   30 1  
    32   11   31 1  
    33   11   32 1  
    34   12   33 1  
    35   12   34 1  
    36   13   35 1  
    37   13   36 1  
    38   14   37 1  
    39   14   38 1  
    40   15   39 1  
    41   15   40 1  
    42   16   41 1  
    43   16   42 1  
    44   17   43 1  
    45   17   44 1  
# Name:          frag4-487-87/150395
# Creation time: Sat Jun  5 12:53:38 2010


@<TRIPOS>MOLECULE
frag4-487-87/150395
   44    45     1     1     1
SMALL
USER_CHARGES


@<TRIPOS>ATOM
      1 C1         -1.2233    0.3458    3.3030 C.3        1 <1>        0.000
      2 C2         -1.3439   -1.0398    2.6081 C.3        1 <1>        0.000
      3 N1         -2.4107    0.2933    4.1333 N.3        1 <1>        0.000
      4 C3          0.0022    0.7269    4.0933 C.3        1 <1>        0.000
      5 C4         -0.2106   -2.0592    2.8596 C.3        1 <1>        0.000
      6 O1         -2.6400   -1.5975    2.9156 O.3        1 <1>        0.000
      7 C6         -3.1854   -0.8296    3.8441 C.3        1 <1>        0.000
      8 C13         0.9313   -3.4299    1.3265 C.3        1 <1>        0.000
      9 C8          1.2990    0.9859    3.4049 C.3        1 <1>        0.000
     10 O2         -0.1431   -3.2422    2.0721 O.3        1 <1>        0.000
     11 C12         1.6677    1.9666    2.3471 C.3        1 <1>        0.000
     12 C16         2.9866    1.5870    1.7111 C.3        1 <1>        0.000
     13 C18         2.1560   -2.7037    1.0044 C.3        1 <1>        0.000
     14 C20         3.0998    1.5682    0.2048 C.3        1 <1>        0.000
     15 C21         2.3993   -1.4866    0.2186 C.3        1 <1>        0.000
     16 C24         2.0431    0.8770   -0.6343 C.3        1 <1>        0.000
     17 C26         1.4486   -0.4149   -0.1588 C.3        1 <1>        0.000
     18 H          -1.1266    1.1276    2.5496 H.spc      1 <1>        0.000
     19 H          -1.2320   -0.8393    1.5426 H.spc      1 <1>        0.000
     20 H          -2.1208    0.2437    5.1100 H.spc      1 <1>        0.000
     21 H          -0.2574    1.6847    4.5442 H.spc      1 <1>        0.000
     22 H           0.1999   -0.1447    4.7173 H.spc      1 <1>        0.000
     23 H          -0.3787   -2.4137    3.8766 H.spc      1 <1>        0.000
     24 H           0.7054   -1.5176    2.6234 H.spc      1 <1>        0.000
     25 H          -3.2760   -1.4190    4.7565 H.spc      1 <1>        0.000
     26 H          -4.1498   -0.4850    3.4709 H.spc      1 <1>        0.000
     27 H           0.4490   -3.3373    0.3534 H.spc      1 <1>        0.000
     28 H           1.3855   -4.2196    1.9250 H.spc      1 <1>        0.000
     29 H           1.3999    0.0579    2.8421 H.spc      1 <1>        0.000
     30 H           1.8762    1.3853    4.2388 H.spc      1 <1>        0.000
     31 H           1.7625    2.9548    2.7972 H.spc      1 <1>        0.000
     32 H           0.8925    1.9699    1.5809 H.spc      1 <1>        0.000
     33 H           3.6848    2.3593    2.0339 H.spc      1 <1>        0.000
     34 H           3.1571    0.5547    2.0168 H.spc      1 <1>        0.000
     35 H           2.4114   -2.3318    1.9966 H.spc      1 <1>        0.000
     36 H           2.6346   -3.4365    0.3547 H.spc      1 <1>        0.000
     37 H           3.0299    2.6169   -0.0839 H.spc      1 <1>        0.000
     38 H           4.0111    1.0028    0.0100 H.spc      1 <1>        0.000
     39 H           3.0620   -0.9413    0.8907 H.spc      1 <1>        0.000
     40 H           2.6166   -1.9173   -0.7588 H.spc      1 <1>        0.000
     41 H           1.2062    1.5751   -0.6541 H.spc      1 <1>        0.000
     42 H           2.5524    0.6210   -1.5634 H.spc      1 <1>        0.000
     43 H           0.8725   -0.8065   -0.9971 H.spc      1 <1>        0.000
     44 H           0.8931   -0.1739    0.7475 H.spc      1 <1>        0.000
@<TRIPOS>BOND
     1   10    8 1  
     2    1    2 1  
     3    4    9 1  
     4    6    7 1  
     5    1    4 1  
     6    2    5 1  
     7    3    7 1  
     8    1    3 1  
     9    2    6 1  
    10    9   11 1  
    11    5   10 1  
    12   16   17 1  
    13   15   17 1  
    14   14   16 1  
    15   13   15 1  
    16   12   14 1  
    17    8   13 1  
    18   11   12 1  
    19    1   18 1  
    20    2   19 1  
    21    3   20 1  
    22    4   21 1  
    23    4   22 1  
    24    5   23 1  
    25    5   24 1  
    26    7   25 1  
    27    7   26 1  
    28    8   27 1  
    29    8   28 1  
    30    9   29 1  
    31    9   30 1  
    32   11   31 1  
    33   11   32 1  
    34   12   33 1  
    35   12   34 1  
    36   13   35 1  
    37   13   36 1  
    38   14   37 1  
    39   14   38 1  
    40   15   39 1  
    41   15   40 1  
    42   16   41 1  
    43   16   42 1  
    44   17   43 1  
    45   17   44 1  
# Name:          frag4-487-87/150395
# Creation time: Sat Jun  5 12:53:38 2010


@<TRIPOS>MOLECULE
frag4-487-87/150395
   44    45     1     1     1
SMALL
USER_CHARGES


@<TRIPOS>ATOM
      1 C1         -1.5693    0.3452    3.3437 C.3        1 <1>        0.000
      2 C2         -1.5133   -1.1146    2.8114 C.3        1 <1>        0.000
      3 N1         -1.9242    0.0729    4.7021 N.3        1 <1>        0.000
      4 C3         -0.4273    1.3215    3.3146 C.3        1 <1>        0.000
      5 C4         -0.1760   -1.6521    2.2954 C.3        1 <1>        0.000
      6 O1         -2.0525   -2.0027    3.8101 O.3        1 <1>        0.000
      7 C6         -2.1560   -1.2759    4.9087 C.3        1 <1>        0.000
      8 C13         0.2354   -3.1550    0.5324 C.3        1 <1>        0.000
      9 C8          0.0247    1.9649    2.0422 C.3        1 <1>        0.000
     10 O2         -0.2234   -2.9501    1.7251 O.3        1 <1>        0.000
     11 C12         1.3659    2.2916    1.5049 C.3        1 <1>        0.000
     12 C16         2.5330    1.8341    2.3330 C.3        1 <1>        0.000
     13 C18         0.9694   -2.3613   -0.4431 C.3        1 <1>        0.000
     14 C20         3.0407    0.4141    2.1902 C.3        1 <1>        0.000
     15 C21         2.3188   -1.7887   -0.3512 C.3        1 <1>        0.000
     16 C24         3.6433   -0.0172    0.8636 C.3        1 <1>        0.000
     17 C26         2.7873   -0.3792   -0.3297 C.3        1 <1>        0.000
     18 H          -2.2073    0.9037    2.6588 H.spc      1 <1>        0.000
     19 H          -2.1157   -1.0776    1.9037 H.spc      1 <1>        0.000
     20 H          -1.1508    0.3620    5.3010 H.spc      1 <1>        0.000
     21 H          -0.7869    2.1580    3.9138 H.spc      1 <1>        0.000
     22 H           0.4313    0.7243    3.6216 H.spc      1 <1>        0.000
     23 H           0.4887   -1.7140    3.1571 H.spc      1 <1>        0.000
     24 H           0.1479   -0.9755    1.5046 H.spc      1 <1>        0.000
     25 H          -1.4029   -1.6340    5.6106 H.spc      1 <1>        0.000
     26 H          -3.1770   -1.3804    5.2757 H.spc      1 <1>        0.000
     27 H          -0.7165   -3.2135    0.0046 H.spc      1 <1>        0.000
     28 H           1.0243   -3.8632    0.7859 H.spc      1 <1>        0.000
     29 H          -0.3469    2.9751    2.2141 H.spc      1 <1>        0.000
     30 H          -0.2612    1.1832    1.3384 H.spc      1 <1>        0.000
     31 H           1.4246    3.3793    1.4657 H.spc      1 <1>        0.000
     32 H           1.4474    1.7762    0.5479 H.spc      1 <1>        0.000
     33 H           3.3646    2.4585    2.0064 H.spc      1 <1>        0.000
     34 H           2.1828    1.8996    3.3631 H.spc      1 <1>        0.000
     35 H           1.1194   -3.1007   -1.2298 H.spc      1 <1>        0.000
     36 H           0.3674   -1.4527   -0.4548 H.spc      1 <1>        0.000
     37 H           3.8544    0.3310    2.9107 H.spc      1 <1>        0.000
     38 H           2.1600   -0.2152    2.3186 H.spc      1 <1>        0.000
     39 H           2.5766   -2.0848    0.6656 H.spc      1 <1>        0.000
     40 H           2.7187   -2.1019   -1.3156 H.spc      1 <1>        0.000
     41 H           4.1848    0.8680    0.5298 H.spc      1 <1>        0.000
     42 H           4.1510   -0.9509    1.1058 H.spc      1 <1>        0.000
     43 H           3.4029   -0.2354   -1.2177 H.spc      1 <1>        0.000
     44 H           1.8986    0.2504   -0.2859 H.spc      1 <1>        0.000
@<TRIPOS>BOND
     1   10    8 1  
     2    1    2 1  
     3    4    9 1  
     4    6    7 1  
     5    1    4 1  
     6    2    5 1  
     7    3    7 1  
     8    1    3 1  
     9    2    6 1  
    10    9   11 1  
    11    5   10 1  
    12   16   17 1  
    13   15   17 1  
    14   14   16 1  
    15   13   15 1  
    16   12   14 1  
    17    8   13 1  
    18   11   12 1  
    19    1   18 1  
    20    2   19 1  
    21    3   20 1  
    22    4   21 1  
    23    4   22 1  
    24    5   23 1  
    25    5   24 1  
    26    7   25 1  
    27    7   26 1  
    28    8   27 1  
    29    8   28 1  
    30    9   29 1  
    31    9   30 1  
    32   11   31 1  
    33   11   32 1  
    34   12   33 1  
    35   12   34 1  
    36   13   35 1  
    37   13   36 1  
    38   14   37 1  
    39   14   38 1  
    40   15   39 1  
    41   15   40 1  
    42   16   41 1  
    43   16   42 1  
    44   17   43 1  
    45   17   44 1  
# Name:          frag4-487-87/150395
# Creation time: Sat Jun  5 12:53:38 2010


@<TRIPOS>MOLECULE
frag4-487-87/150395
   44    45     1     1     1
SMALL
USER_CHARGES


@<TRIPOS>ATOM
      1 C1         -1.2028    0.4015    3.3619 C.3        1 <1>        0.000
      2 C2         -1.3465   -0.9425    2.5635 C.3        1 <1>        0.000
      3 N1         -2.3080    0.2445    4.2779 N.3        1 <1>        0.000
      4 C3          0.1128    0.7704    4.0364 C.3        1 <1>        0.000
      5 C4         -0.0864   -1.8194    2.4973 C.3        1 <1>        0.000
      6 O1         -2.4905   -1.6572    3.0540 O.3        1 <1>        0.000
      7 C6         -2.9873   -0.9513    4.0546 C.3        1 <1>        0.000
      8 C13         0.8151   -3.6821    1.3099 C.3        1 <1>        0.000
      9 C8          1.3634    1.0322    3.2840 C.3        1 <1>        0.000
     10 O2         -0.1199   -3.1782    2.0721 O.3        1 <1>        0.000
     11 C12         1.8476    2.3498    2.8486 C.3        1 <1>        0.000
     12 C16         2.3449    2.3877    1.4402 C.3        1 <1>        0.000
     13 C18         1.9196   -3.1169    0.5282 C.3        1 <1>        0.000
     14 C20         1.6373    1.5730    0.3685 C.3        1 <1>        0.000
     15 C21         2.0008   -1.8076   -0.1251 C.3        1 <1>        0.000
     16 C24         2.4661    0.6199   -0.4537 C.3        1 <1>        0.000
     17 C26         2.9103   -0.6765    0.1352 C.3        1 <1>        0.000
     18 H          -1.2105    1.2583    2.6881 H.spc      1 <1>        0.000
     19 H          -1.4947   -0.6676    1.5192 H.spc      1 <1>        0.000
     20 H          -1.9412    0.2359    5.2296 H.spc      1 <1>        0.000
     21 H          -0.1063    1.7347    4.4950 H.spc      1 <1>        0.000
     22 H           0.3537   -0.1224    4.6134 H.spc      1 <1>        0.000
     23 H           0.2267   -1.8892    3.5390 H.spc      1 <1>        0.000
     24 H           0.5199   -1.3316    1.7341 H.spc      1 <1>        0.000
     25 H          -2.8981   -1.5540    4.9584 H.spc      1 <1>        0.000
     26 H          -4.0177   -0.7019    3.8014 H.spc      1 <1>        0.000
     27 H           0.1881   -4.0207    0.4850 H.spc      1 <1>        0.000
     28 H           1.4007   -4.1838    2.0803 H.spc      1 <1>        0.000
     29 H           1.1610    0.5407    2.3324 H.spc      1 <1>        0.000
     30 H           2.1260    0.7389    4.0054 H.spc      1 <1>        0.000
     31 H           2.6874    2.6116    3.4923 H.spc      1 <1>        0.000
     32 H           1.0041    3.0375    2.9094 H.spc      1 <1>        0.000
     33 H           2.2124    3.4241    1.1298 H.spc      1 <1>        0.000
     34 H           3.3474    1.9628    1.4912 H.spc      1 <1>        0.000
     35 H           2.6824   -3.0090    1.2993 H.spc      1 <1>        0.000
     36 H           1.9174   -3.7785   -0.3380 H.spc      1 <1>        0.000
     37 H           0.9220    0.9484    0.9036 H.spc      1 <1>        0.000
     38 H           1.2460    2.3030   -0.3401 H.spc      1 <1>        0.000
     39 H           2.3374   -2.1049   -1.1183 H.spc      1 <1>        0.000
     40 H           1.0523   -1.3726    0.1897 H.spc      1 <1>        0.000
     41 H           1.8160    0.3360   -1.2813 H.spc      1 <1>        0.000
     42 H           3.3910    1.1619   -0.6511 H.spc      1 <1>        0.000
     43 H           2.9496   -0.5400    1.2159 H.spc      1 <1>        0.000
     44 H           3.8679   -0.9243   -0.3227 H.spc      1 <1>        0.000
@<TRIPOS>BOND
     1   10    8 1  
     2    1    2 1  
     3    4    9 1  
     4    6    7 1  
     5    1    4 1  
     6    2    5 1  
     7    3    7 1  
     8    1    3 1  
     9    2    6 1  
    10    9   11 1  
    11    5   10 1  
    12   16   17 1  
    13   15   17 1  
    14   14   16 1  
    15   13   15 1  
    16   12   14 1  
    17    8   13 1  
    18   11   12 1  
    19    1   18 1  
    20    2   19 1  
    21    3   20 1  
    22    4   21 1  
    23    4   22 1  
    24    5   23 1  
    25    5   24 1  
    26    7   25 1  
    27    7   26 1  
    28    8   27 1  
    29    8   28 1  
    30    9   29 1  
    31    9   30 1  
    32   11   31 1  
    33   11   32 1  
    34   12   33 1  
    35   12   34 1  
    36   13   35 1  
    37   13   36 1  
    38   14   37 1  
    39   14   38 1  
    40   15   39 1  
    41   15   40 1  
    42   16   41 1  
    43   16   42 1  
    44   17   43 1  
    45   17   44 1  
# Name:          frag4-487-87/150395
# Creation time: Sat Jun  5 12:53:38 2010


@<TRIPOS>MOLECULE
frag4-487-87/150395
   44    45     1     1     1
SMALL
USER_CHARGES


@<TRIPOS>ATOM
      1 C1         -1.1678    0.3147    3.3055 C.3        1 <1>        0.000
      2 C2         -1.6530   -0.8703    2.4529 C.3        1 <1>        0.000
      3 N1         -2.2879    0.3628    4.1967 N.3        1 <1>        0.000
      4 C3          0.1352    0.3055    4.0773 C.3        1 <1>        0.000
      5 C4         -0.5865   -1.7533    1.8352 C.3        1 <1>        0.000
      6 O1         -2.6764   -1.5965    3.1358 O.3        1 <1>        0.000
      7 C6         -3.0467   -0.8060    4.1204 C.3        1 <1>        0.000
      8 C13         1.4813   -2.8202    2.1175 C.3        1 <1>        0.000
      9 C8          1.4299    0.4696    3.3570 C.3        1 <1>        0.000
     10 O2          0.3217   -2.4937    2.6230 O.3        1 <1>        0.000
     11 C12         2.1300    1.6600    2.8080 C.3        1 <1>        0.000
     12 C16         1.6319    2.1909    1.4925 C.3        1 <1>        0.000
     13 C18         2.2574   -2.5877    0.9029 C.3        1 <1>        0.000
     14 C20         1.5624    1.2612    0.3078 C.3        1 <1>        0.000
     15 C21         1.9624   -1.8866   -0.3497 C.3        1 <1>        0.000
     16 C24         2.7930    0.5023   -0.1265 C.3        1 <1>        0.000
     17 C26         2.5894   -0.7055   -1.0031 C.3        1 <1>        0.000
     18 H          -0.9015    1.1490    2.6566 H.spc      1 <1>        0.000
     19 H          -2.0843   -0.4135    1.5621 H.spc      1 <1>        0.000
     20 H          -1.9402    0.4626    5.1504 H.spc      1 <1>        0.000
     21 H           0.0728    1.1782    4.7274 H.spc      1 <1>        0.000
     22 H           0.1887   -0.6938    4.5094 H.spc      1 <1>        0.000
     23 H           0.0522   -1.0486    1.3026 H.spc      1 <1>        0.000
     24 H          -1.1595   -2.5212    1.3155 H.spc      1 <1>        0.000
     25 H          -2.9099   -1.3520    5.0538 H.spc      1 <1>        0.000
     26 H          -4.0829   -0.5180    3.9430 H.spc      1 <1>        0.000
     27 H           1.2566   -3.8709    1.9340 H.spc      1 <1>        0.000
     28 H           2.0941   -2.2155    2.7860 H.spc      1 <1>        0.000
     29 H           1.1776   -0.0331    2.4234 H.spc      1 <1>        0.000
     30 H           2.1154    0.2192    4.1666 H.spc      1 <1>        0.000
     31 H           3.1601    1.3485    2.6349 H.spc      1 <1>        0.000
     32 H           1.9745    2.4597    3.5322 H.spc      1 <1>        0.000
     33 H           0.5988    2.4831    1.6809 H.spc      1 <1>        0.000
     34 H           2.3541    2.9558    1.2070 H.spc      1 <1>        0.000
     35 H           3.0138   -1.9141    1.3057 H.spc      1 <1>        0.000
     36 H           2.2999   -3.6092    0.5250 H.spc      1 <1>        0.000
     37 H           0.8561    0.4874    0.6087 H.spc      1 <1>        0.000
     38 H           1.3299    1.9107   -0.5361 H.spc      1 <1>        0.000
     39 H           2.2515   -2.6602   -1.0611 H.spc      1 <1>        0.000
     40 H           0.9947   -1.4566   -0.0914 H.spc      1 <1>        0.000
     41 H           3.3759    1.2039   -0.7232 H.spc      1 <1>        0.000
     42 H           3.2460    0.1268    0.7910 H.spc      1 <1>        0.000
     43 H           3.5820   -1.0231   -1.3226 H.spc      1 <1>        0.000
     44 H           1.9087   -0.3970   -1.7965 H.spc      1 <1>        0.000
@<TRIPOS>BOND
     1   10    8 1  
     2    1    2 1  
     3    4    9 1  
     4    6    7 1  
     5    1    4 1  
     6    2    5 1  
     7    3    7 1  
     8    1    3 1  
     9    2    6 1  
    10    9   11 1  
    11    5   10 1  
    12   16   17 1  
    13   15   17 1  
    14   14   16 1  
    15   13   15 1  
    16   12   14 1  
    17    8   13 1  
    18   11   12 1  
    19    1   18 1  
    20    2   19 1  
    21    3   20 1  
    22    4   21 1  
    23    4   22 1  
    24    5   23 1  
    25    5   24 1  
    26    7   25 1  
    27    7   26 1  
    28    8   27 1  
    29    8   28 1  
    30    9   29 1  
    31    9   30 1  
    32   11   31 1  
    33   11   32 1  
    34   12   33 1  
    35   12   34 1  
    36   13   35 1  
    37   13   36 1  
    38   14   37 1  
    39   14   38 1  
    40   15   39 1  
    41   15   40 1  
    42   16   41 1  
    43   16   42 1  
    44   17   43 1  
    45   17   44 1  
# Name:          frag4-487-87/150395
# Creation time: Sat Jun  5 12:53:38 2010


@<TRIPOS>MOLECULE
frag4-487-87/150395
   44    45     1     1     1
SMALL
USER_CHARGES


@<TRIPOS>ATOM
      1 C1         -1.1290    0.2149    3.1434 C.3        1 <1>        0.000
      2 C2         -1.2321   -1.2372    2.5826 C.3        1 <1>        0.000
      3 N1         -2.2564    0.1702    4.0250 N.3        1 <1>        0.000
      4 C3          0.0933    0.8187    3.8102 C.3        1 <1>        0.000
      5 C4         -0.1758   -2.2725    2.9723 C.3        1 <1>        0.000
      6 O1         -2.5554   -1.7332    2.8453 O.3        1 <1>        0.000
      7 C6         -3.0373   -0.9579    3.7941 C.3        1 <1>        0.000
      8 C13         0.6470   -3.6815    1.2859 C.3        1 <1>        0.000
      9 C8          0.9781    1.7397    3.0294 C.3        1 <1>        0.000
     10 O2         -0.1863   -3.5065    2.2687 O.3        1 <1>        0.000
     11 C12         2.4461    1.7311    2.7772 C.3        1 <1>        0.000
     12 C16         3.0082    2.3497    1.5222 C.3        1 <1>        0.000
     13 C18         1.7391   -2.9273    0.6904 C.3        1 <1>        0.000
     14 C20         2.5055    2.0400    0.1283 C.3        1 <1>        0.000
     15 C21         2.0173   -1.4965    0.7828 C.3        1 <1>        0.000
     16 C24         2.5260    0.6373   -0.4319 C.3        1 <1>        0.000
     17 C26         1.4884   -0.3417    0.0272 C.3        1 <1>        0.000
     18 H          -1.0706    0.9005    2.2981 H.spc      1 <1>        0.000
     19 H          -1.0139   -1.1159    1.5216 H.spc      1 <1>        0.000
     20 H          -1.9151    0.1367    4.9856 H.spc      1 <1>        0.000
     21 H          -0.3065    1.4351    4.6154 H.spc      1 <1>        0.000
     22 H           0.7267   -0.0347    4.0525 H.spc      1 <1>        0.000
     23 H          -0.3774   -2.5237    4.0136 H.spc      1 <1>        0.000
     24 H           0.7866   -1.8123    2.7486 H.spc      1 <1>        0.000
     25 H          -3.0619   -1.5386    4.7162 H.spc      1 <1>        0.000
     26 H          -4.0235   -0.6192    3.4766 H.spc      1 <1>        0.000
     27 H          -0.0648   -3.5925    0.4652 H.spc      1 <1>        0.000
     28 H           1.2389   -4.4823    1.7290 H.spc      1 <1>        0.000
     29 H           0.9063    2.6314    3.6522 H.spc      1 <1>        0.000
     30 H           0.6199    1.5250    2.0226 H.spc      1 <1>        0.000
     31 H           2.6986    0.6741    2.6928 H.spc      1 <1>        0.000
     32 H           2.8615    2.3346    3.5842 H.spc      1 <1>        0.000
     33 H           2.7565    3.4037    1.6400 H.spc      1 <1>        0.000
     34 H           4.0282    1.9659    1.5009 H.spc      1 <1>        0.000
     35 H           2.5905   -3.3366    1.2342 H.spc      1 <1>        0.000
     36 H           1.4984   -3.0207   -0.3686 H.spc      1 <1>        0.000
     37 H           1.4440    2.2826    0.1773 H.spc      1 <1>        0.000
     38 H           3.1903    2.5866   -0.5201 H.spc      1 <1>        0.000
     39 H           1.5834   -1.2889    1.7609 H.spc      1 <1>        0.000
     40 H           3.0489   -1.4880    0.4309 H.spc      1 <1>        0.000
     41 H           2.3458    0.7582   -1.5001 H.spc      1 <1>        0.000
     42 H           3.4757    0.2163   -0.1019 H.spc      1 <1>        0.000
     43 H           1.0117   -0.7408   -0.8681 H.spc      1 <1>        0.000
     44 H           0.8203    0.1970    0.6992 H.spc      1 <1>        0.000
@<TRIPOS>BOND
     1   10    8 1  
     2    1    2 1  
     3    4    9 1  
     4    6    7 1  
     5    1    4 1  
     6    2    5 1  
     7    3    7 1  
     8    1    3 1  
     9    2    6 1  
    10    9   11 1  
    11    5   10 1  
    12   16   17 1  
    13   15   17 1  
    14   14   16 1  
    15   13   15 1  
    16   12   14 1  
    17    8   13 1  
    18   11   12 1  
    19    1   18 1  
    20    2   19 1  
    21    3   20 1  
    22    4   21 1  
    23    4   22 1  
    24    5   23 1  
    25    5   24 1  
    26    7   25 1  
    27    7   26 1  
    28    8   27 1  
    29    8   28 1  
    30    9   29 1  
    31    9   30 1  
    32   11   31 1  
    33   11   32 1  
    34   12   33 1  
    35   12   34 1  
    36   13   35 1  
    37   13   36 1  
    38   14   37 1  
    39   14   38 1  
    40   15   39 1  
    41   15   40 1  
    42   16   41 1  
    43   16   42 1  
    44   17   43 1  
    45   17   44 1  
# Name:          frag4-487-87/150395
# Creation time: Sat Jun  5 12:53:38 2010


@<TRIPOS>MOLECULE
frag4-487-87/150395
   44    45     1     1     1
SMALL
USER_CHARGES


@<TRIPOS>ATOM
      1 C1         -1.4039    0.4247    3.4140 C.3        1 <1>        0.000
      2 C2         -1.5381   -0.9565    2.7199 C.3        1 <1>        0.000
      3 N1         -2.5659    0.3194    4.2469 N.3        1 <1>        0.000
      4 C3         -0.1836    0.7654    4.2638 C.3        1 <1>        0.000
      5 C4         -0.2767   -1.5592    2.1078 C.3        1 <1>        0.000
      6 O1         -2.2912   -1.8237    3.5866 O.3        1 <1>        0.000
      7 C6         -2.9534   -1.0150    4.3890 C.3        1 <1>        0.000
      8 C13         0.6167   -3.3962    0.9522 C.3        1 <1>        0.000
      9 C8          1.0791    1.2240    3.6190 C.3        1 <1>        0.000
     10 O2         -0.4097   -2.8472    1.5314 O.3        1 <1>        0.000
     11 C12         1.4063    2.0194    2.4099 C.3        1 <1>        0.000
     12 C16         2.7100    1.6585    1.7425 C.3        1 <1>        0.000
     13 C18         1.9647   -3.0040    0.5782 C.3        1 <1>        0.000
     14 C20         2.7868    1.6959    0.2372 C.3        1 <1>        0.000
     15 C21         2.6487   -1.7101    0.5699 C.3        1 <1>        0.000
     16 C24         2.2778    0.5341   -0.5840 C.3        1 <1>        0.000
     17 C26         3.0090   -0.7823   -0.5310 C.3        1 <1>        0.000
     18 H          -1.2998    1.2180    2.6738 H.spc      1 <1>        0.000
     19 H          -2.0938   -0.8033    1.7948 H.spc      1 <1>        0.000
     20 H          -2.3464    0.6985    5.1680 H.spc      1 <1>        0.000
     21 H          -0.5033    1.6161    4.8656 H.spc      1 <1>        0.000
     22 H           0.0843   -0.1773    4.7408 H.spc      1 <1>        0.000
     23 H           0.4357   -1.6657    2.9259 H.spc      1 <1>        0.000
     24 H           0.0141   -0.8927    1.2958 H.spc      1 <1>        0.000
     25 H          -2.7454   -1.3170    5.4155 H.spc      1 <1>        0.000
     26 H          -4.0116   -1.0854    4.1372 H.spc      1 <1>        0.000
     27 H           0.1997   -3.4600   -0.0528 H.spc      1 <1>        0.000
     28 H           0.8829   -4.0870    1.7523 H.spc      1 <1>        0.000
     29 H           1.4474    0.2559    3.2795 H.spc      1 <1>        0.000
     30 H           1.3941    1.9432    4.3750 H.spc      1 <1>        0.000
     31 H           1.4939    3.0575    2.7305 H.spc      1 <1>        0.000
     32 H           0.6170    1.8264    1.6834 H.spc      1 <1>        0.000
     33 H           3.4203    2.4126    2.0814 H.spc      1 <1>        0.000
     34 H           2.8863    0.6165    2.0096 H.spc      1 <1>        0.000
     35 H           2.5207   -3.4939    1.3776 H.spc      1 <1>        0.000
     36 H           1.9107   -3.1835   -0.4956 H.spc      1 <1>        0.000
     37 H           2.1413    2.5278   -0.0445 H.spc      1 <1>        0.000
     38 H           3.8550    1.7292    0.0231 H.spc      1 <1>        0.000
     39 H           1.8955   -1.1055    1.0752 H.spc      1 <1>        0.000
     40 H           3.6466   -2.0325    0.8670 H.spc      1 <1>        0.000
     41 H           1.2886    0.3196   -0.1797 H.spc      1 <1>        0.000
     42 H           2.3709    0.8628   -1.6191 H.spc      1 <1>        0.000
     43 H           4.0591   -0.5332   -0.3782 H.spc      1 <1>        0.000
     44 H           2.7525   -1.3023   -1.4540 H.spc      1 <1>        0.000
@<TRIPOS>BOND
     1   10    8 1  
     2    1    2 1  
     3    4    9 1  
     4    6    7 1  
     5    1    4 1  
     6    2    5 1  
     7    3    7 1  
     8    1    3 1  
     9    2    6 1  
    10    9   11 1  
    11    5   10 1  
    12   16   17 1  
    13   15   17 1  
    14   14   16 1  
    15   13   15 1  
    16   12   14 1  
    17    8   13 1  
    18   11   12 1  
    19    1   18 1  
    20    2   19 1  
    21    3   20 1  
    22    4   21 1  
    23    4   22 1  
    24    5   23 1  
    25    5   24 1  
    26    7   25 1  
    27    7   26 1  
    28    8   27 1  
    29    8   28 1  
    30    9   29 1  
    31    9   30 1  
    32   11   31 1  
    33   11   32 1  
    34   12   33 1  
    35   12   34 1  
    36   13   35 1  
    37   13   36 1  
    38   14   37 1  
    39   14   38 1  
    40   15   39 1  
    41   15   40 1  
    42   16   41 1  
    43   16   42 1  
    44   17   43 1  
    45   17   44 1  
# Name:          frag4-487-87/150395
# Creation time: Sat Jun  5 12:53:38 2010


@<TRIPOS>MOLECULE
frag4-487-87/150395
   44    45     1     1     1
SMALL
USER_CHARGES


@<TRIPOS>ATOM
      1 C1         -1.6192    0.2687    3.3430 C.3        1 <1>        0.000
      2 C2         -1.5248   -1.1874    2.8174 C.3        1 <1>        0.000
      3 N1         -2.3467    0.0353    4.5467 N.3        1 <1>        0.000
      4 C3         -0.4579    1.2084    3.5943 C.3        1 <1>        0.000
      5 C4         -0.1473   -1.8587    2.7815 C.3        1 <1>        0.000
      6 O1         -2.5064   -1.9817    3.5084 O.3        1 <1>        0.000
      7 C6         -2.8788   -1.2623    4.5551 C.3        1 <1>        0.000
      8 C13         0.3294   -3.3357    1.0011 C.3        1 <1>        0.000
      9 C8          0.4510    1.5986    2.4724 C.3        1 <1>        0.000
     10 O2         -0.0830   -3.1706    2.2200 O.3        1 <1>        0.000
     11 C12         1.9270    1.8206    2.4792 C.3        1 <1>        0.000
     12 C16         2.5803    2.2970    1.2103 C.3        1 <1>        0.000
     13 C18         0.8758   -2.4998   -0.0753 C.3        1 <1>        0.000
     14 C20         3.8553    1.6010    0.7855 C.3        1 <1>        0.000
     15 C21         2.1822   -1.7948   -0.1806 C.3        1 <1>        0.000
     16 C24         3.7797    0.1378    0.3973 C.3        1 <1>        0.000
     17 C26         2.4599   -0.3293   -0.2032 C.3        1 <1>        0.000
     18 H          -2.0097    0.8624    2.5165 H.spc      1 <1>        0.000
     19 H          -1.7340   -1.1191    1.7498 H.spc      1 <1>        0.000
     20 H          -1.7154    0.1398    5.3411 H.spc      1 <1>        0.000
     21 H          -0.9275    2.1434    3.9000 H.spc      1 <1>        0.000
     22 H           0.1849    0.6652    4.2870 H.spc      1 <1>        0.000
     23 H           0.1611   -1.9635    3.8217 H.spc      1 <1>        0.000
     24 H           0.4748   -1.2302    2.1442 H.spc      1 <1>        0.000
     25 H          -2.5128   -1.7651    5.4503 H.spc      1 <1>        0.000
     26 H          -3.9650   -1.1756    4.5284 H.spc      1 <1>        0.000
     27 H          -0.6400   -3.5409    0.5470 H.spc      1 <1>        0.000
     28 H           1.2397   -3.8898    1.2302 H.spc      1 <1>        0.000
     29 H           0.0992    2.6113    2.2753 H.spc      1 <1>        0.000
     30 H           0.3874    0.7082    1.8469 H.spc      1 <1>        0.000
     31 H           2.3639    0.8419    2.6775 H.spc      1 <1>        0.000
     32 H           2.0946    2.6163    3.2051 H.spc      1 <1>        0.000
     33 H           1.8592    2.1046    0.4158 H.spc      1 <1>        0.000
     34 H           2.8564    3.3358    1.3915 H.spc      1 <1>        0.000
     35 H           0.9991   -3.2498   -0.8566 H.spc      1 <1>        0.000
     36 H           0.2012   -1.6457   -0.0159 H.spc      1 <1>        0.000
     37 H           4.1789    2.1206   -0.1164 H.spc      1 <1>        0.000
     38 H           4.5044    1.6323    1.6606 H.spc      1 <1>        0.000
     39 H           2.6381   -2.0719    0.7699 H.spc      1 <1>        0.000
     40 H           2.4802   -2.0722   -1.1917 H.spc      1 <1>        0.000
     41 H           4.5358   -0.0129   -0.3732 H.spc      1 <1>        0.000
     42 H           3.9136   -0.4295    1.3183 H.spc      1 <1>        0.000
     43 H           2.4989   -0.0514   -1.2565 H.spc      1 <1>        0.000
     44 H           1.6795    0.1294    0.4039 H.spc      1 <1>        0.000
@<TRIPOS>BOND
     1   10    8 1  
     2    1    2 1  
     3    4    9 1  
     4    6    7 1  
     5    1    4 1  
     6    2    5 1  
     7    3    7 1  
     8    1    3 1  
     9    2    6 1  
    10    9   11 1  
    11    5   10 1  
    12   16   17 1  
    13   15   17 1  
    14   14   16 1  
    15   13   15 1  
    16   12   14 1  
    17    8   13 1  
    18   11   12 1  
    19    1   18 1  
    20    2   19 1  
    21    3   20 1  
    22    4   21 1  
    23    4   22 1  
    24    5   23 1  
    25    5   24 1  
    26    7   25 1  
    27    7   26 1  
    28    8   27 1  
    29    8   28 1  
    30    9   29 1  
    31    9   30 1  
    32   11   31 1  
    33   11   32 1  
    34   12   33 1  
    35   12   34 1  
    36   13   35 1  
    37   13   36 1  
    38   14   37 1  
    39   14   38 1  
    40   15   39 1  
    41   15   40 1  
    42   16   41 1  
    43   16   42 1  
    44   17   43 1  
    45   17   44 1  
# Name:          frag4-487-87/150395
# Creation time: Sat Jun  5 12:53:38 2010


@<TRIPOS>MOLECULE
frag4-487-87/150395
   44    45     1     1     1
SMALL
USER_CHARGES


@<TRIPOS>ATOM
      1 C1         -1.5591    0.1280    2.7503 C.3        1 <1>        0.000
      2 C2         -1.0715   -1.3440    2.9540 C.3        1 <1>        0.000
      3 N1         -2.6723    0.0541    3.6571 N.3        1 <1>        0.000
      4 C3         -0.8521    1.4386    3.0444 C.3        1 <1>        0.000
      5 C4          0.3585   -1.7684    2.6506 C.3        1 <1>        0.000
      6 O1         -1.5179   -1.7796    4.2410 O.3        1 <1>        0.000
      7 C6         -2.5176   -0.9834    4.5457 C.3        1 <1>        0.000
      8 C13         0.5691   -3.2881    0.9051 C.3        1 <1>        0.000
      9 C8          0.2464    1.9315    2.1236 C.3        1 <1>        0.000
     10 O2          0.5436   -3.1059    2.1912 O.3        1 <1>        0.000
     11 C12         1.6240    2.3953    2.4693 C.3        1 <1>        0.000
     12 C16         2.6220    1.2925    2.7210 C.3        1 <1>        0.000
     13 C18         0.5812   -2.4239   -0.2926 C.3        1 <1>        0.000
     14 C20         3.5831    0.9108    1.6040 C.3        1 <1>        0.000
     15 C21         1.6327   -1.5016   -0.7499 C.3        1 <1>        0.000
     16 C24         3.2612   -0.2376    0.6609 C.3        1 <1>        0.000
     17 C26         2.0452   -0.1711   -0.2224 C.3        1 <1>        0.000
     18 H          -1.5628    0.2741    1.6701 H.spc      1 <1>        0.000
     19 H          -1.5341   -1.8685    2.1179 H.spc      1 <1>        0.000
     20 H          -2.7256    0.9277    4.1809 H.spc      1 <1>        0.000
     21 H          -1.6340    2.1937    2.9638 H.spc      1 <1>        0.000
     22 H          -0.3524    1.2702    3.9984 H.spc      1 <1>        0.000
     23 H           0.9005   -1.6962    3.5936 H.spc      1 <1>        0.000
     24 H           0.6991   -1.1223    1.8415 H.spc      1 <1>        0.000
     25 H          -2.3103   -0.5520    5.5250 H.spc      1 <1>        0.000
     26 H          -3.4316   -1.5768    4.5237 H.spc      1 <1>        0.000
     27 H          -0.4355   -3.6948    0.7891 H.spc      1 <1>        0.000
     28 H           1.5862   -3.6720    0.8260 H.spc      1 <1>        0.000
     29 H          -0.1948    2.8600    1.7611 H.spc      1 <1>        0.000
     30 H           0.4725    1.0191    1.5717 H.spc      1 <1>        0.000
     31 H           1.5420    2.9637    3.3958 H.spc      1 <1>        0.000
     32 H           1.9899    2.9621    1.6132 H.spc      1 <1>        0.000
     33 H           3.2557    1.6614    3.5275 H.spc      1 <1>        0.000
     34 H           2.0212    0.4001    2.8962 H.spc      1 <1>        0.000
     35 H           0.6068   -3.1723   -1.0847 H.spc      1 <1>        0.000
     36 H          -0.2144   -1.7209   -0.0457 H.spc      1 <1>        0.000
     37 H           3.6032    1.7886    0.9581 H.spc      1 <1>        0.000
     38 H           4.4820    0.5830    2.1262 H.spc      1 <1>        0.000
     39 H           2.5199   -2.0872   -0.5088 H.spc      1 <1>        0.000
     40 H           1.2225   -1.2065   -1.7157 H.spc      1 <1>        0.000
     41 H           4.1006   -0.2616   -0.0341 H.spc      1 <1>        0.000
     42 H           3.0721   -1.0851    1.3198 H.spc      1 <1>        0.000
     43 H           2.2896    0.4621   -1.0753 H.spc      1 <1>        0.000
     44 H           1.2216    0.2176    0.3766 H.spc      1 <1>        0.000
@<TRIPOS>BOND
     1   10    8 1  
     2    1    2 1  
     3    4    9 1  
     4    6    7 1  
     5    1    4 1  
     6    2    5 1  
     7    3    7 1  
     8    1    3 1  
     9    2    6 1  
    10    9   11 1  
    11    5   10 1  
    12   16   17 1  
    13   15   17 1  
    14   14   16 1  
    15   13   15 1  
    16   12   14 1  
    17    8   13 1  
    18   11   12 1  
    19    1   18 1  
    20    2   19 1  
    21    3   20 1  
    22    4   21 1  
    23    4   22 1  
    24    5   23 1  
    25    5   24 1  
    26    7   25 1  
    27    7   26 1  
    28    8   27 1  
    29    8   28 1  
    30    9   29 1  
    31    9   30 1  
    32   11   31 1  
    33   11   32 1  
    34   12   33 1  
    35   12   34 1  
    36   13   35 1  
    37   13   36 1  
    38   14   37 1  
    39   14   38 1  
    40   15   39 1  
    41   15   40 1  
    42   16   41 1  
    43   16   42 1  
    44   17   43 1  
    45   17   44 1  
# Name:          frag4-487-87/150395
# Creation time: Sat Jun  5 12:53:38 2010


@<TRIPOS>MOLECULE
frag4-487-87/150395
   44    45     1     1     1
SMALL
USER_CHARGES


@<TRIPOS>ATOM
      1 C1         -1.4076    0.2811    3.3408 C.3        1 <1>        0.000
      2 C2         -1.2787   -1.1777    2.7918 C.3        1 <1>        0.000
      3 N1         -2.3256    0.0216    4.4185 N.3        1 <1>        0.000
      4 C3         -0.2057    1.1452    3.7834 C.3        1 <1>        0.000
      5 C4          0.0997   -1.8316    2.7212 C.3        1 <1>        0.000
      6 O1         -2.2131   -2.0341    3.4741 O.3        1 <1>        0.000
      7 C6         -2.7545   -1.3063    4.4278 C.3        1 <1>        0.000
      8 C13         0.2760   -3.1581    0.8015 C.3        1 <1>        0.000
      9 C8          0.1361    2.2608    2.8143 C.3        1 <1>        0.000
     10 O2          0.1591   -3.1063    2.1011 O.3        1 <1>        0.000
     11 C12         1.2957    2.4691    1.8963 C.3        1 <1>        0.000
     12 C16         2.3672    1.4120    1.9006 C.3        1 <1>        0.000
     13 C18         0.6625   -2.2179   -0.2596 C.3        1 <1>        0.000
     14 C20         3.2701    1.3083    0.6954 C.3        1 <1>        0.000
     15 C21         1.7543   -1.2226   -0.3279 C.3        1 <1>        0.000
     16 C24         3.9262   -0.0140    0.3732 C.3        1 <1>        0.000
     17 C26         3.1149   -1.2822    0.3007 C.3        1 <1>        0.000
     18 H          -1.6747    0.9459    2.5194 H.spc      1 <1>        0.000
     19 H          -1.5109   -1.0550    1.7339 H.spc      1 <1>        0.000
     20 H          -1.8464    0.2093    5.2992 H.spc      1 <1>        0.000
     21 H          -0.4715    1.6096    4.7330 H.spc      1 <1>        0.000
     22 H           0.6624    0.4887    3.8425 H.spc      1 <1>        0.000
     23 H           0.4184   -1.9805    3.7529 H.spc      1 <1>        0.000
     24 H           0.7191   -1.1700    2.1156 H.spc      1 <1>        0.000
     25 H          -2.4593   -1.7415    5.3826 H.spc      1 <1>        0.000
     26 H          -3.8330   -1.3056    4.2701 H.spc      1 <1>        0.000
     27 H          -0.7823   -3.2429    0.5546 H.spc      1 <1>        0.000
     28 H           1.1452   -3.8139    0.7507 H.spc      1 <1>        0.000
     29 H           0.3230    3.0656    3.5253 H.spc      1 <1>        0.000
     30 H          -0.6514    2.1057    2.0768 H.spc      1 <1>        0.000
     31 H           1.7803    3.3861    2.2315 H.spc      1 <1>        0.000
     32 H           0.8814    2.4696    0.8881 H.spc      1 <1>        0.000
     33 H           3.0240    1.6713    2.7309 H.spc      1 <1>        0.000
     34 H           1.8343    0.4621    1.9437 H.spc      1 <1>        0.000
     35 H           1.0051   -2.9226   -1.0173 H.spc      1 <1>        0.000
     36 H          -0.1981   -1.5493   -0.2387 H.spc      1 <1>        0.000
     37 H           2.6210    1.5113   -0.1564 H.spc      1 <1>        0.000
     38 H           4.0979    1.9844    0.9093 H.spc      1 <1>        0.000
     39 H           2.0142   -1.2754   -1.3851 H.spc      1 <1>        0.000
     40 H           1.3103   -0.3929    0.2222 H.spc      1 <1>        0.000
     41 H           4.3046    0.1174   -0.6405 H.spc      1 <1>        0.000
     42 H           4.6079   -0.1822    1.2069 H.spc      1 <1>        0.000
     43 H           2.9388   -1.5689    1.3375 H.spc      1 <1>        0.000
     44 H           3.6930   -1.9560   -0.3317 H.spc      1 <1>        0.000
@<TRIPOS>BOND
     1   10    8 1  
     2    1    2 1  
     3    4    9 1  
     4    6    7 1  
     5    1    4 1  
     6    2    5 1  
     7    3    7 1  
     8    1    3 1  
     9    2    6 1  
    10    9   11 1  
    11    5   10 1  
    12   16   17 1  
    13   15   17 1  
    14   14   16 1  
    15   13   15 1  
    16   12   14 1  
    17    8   13 1  
    18   11   12 1  
    19    1   18 1  
    20    2   19 1  
    21    3   20 1  
    22    4   21 1  
    23    4   22 1  
    24    5   23 1  
    25    5   24 1  
    26    7   25 1  
    27    7   26 1  
    28    8   27 1  
    29    8   28 1  
    30    9   29 1  
    31    9   30 1  
    32   11   31 1  
    33   11   32 1  
    34   12   33 1  
    35   12   34 1  
    36   13   35 1  
    37   13   36 1  
    38   14   37 1  
    39   14   38 1  
    40   15   39 1  
    41   15   40 1  
    42   16   41 1  
    43   16   42 1  
    44   17   43 1  
    45   17   44 1  
# Name:          frag4-487-87/150395
# Creation time: Sat Jun  5 12:53:38 2010


@<TRIPOS>MOLECULE
frag4-487-87/150395
   44    45     1     1     1
SMALL
USER_CHARGES


@<TRIPOS>ATOM
      1 C1         -1.6653    0.3251    3.1066 C.3        1 <1>        0.000
      2 C2         -1.2954   -1.1270    2.7099 C.3        1 <1>        0.000
      3 N1         -2.6112    0.0165    4.1329 N.3        1 <1>        0.000
      4 C3         -0.6630    1.3748    3.5602 C.3        1 <1>        0.000
      5 C4          0.1519   -1.5351    2.9302 C.3        1 <1>        0.000
      6 O1         -2.2005   -2.0499    3.3249 O.3        1 <1>        0.000
      7 C6         -2.8584   -1.3473    4.2292 C.3        1 <1>        0.000
      8 C13         0.8142   -3.2168    1.4606 C.3        1 <1>        0.000
      9 C8          0.3875    1.8807    2.6144 C.3        1 <1>        0.000
     10 O2          0.5260   -2.8713    2.6709 O.3        1 <1>        0.000
     11 C12         1.8690    2.0864    2.7867 C.3        1 <1>        0.000
     12 C16         2.8050    1.0943    2.1546 C.3        1 <1>        0.000
     13 C18         1.0360   -2.5741    0.1646 C.3        1 <1>        0.000
     14 C20         3.1709    1.2559    0.7032 C.3        1 <1>        0.000
     15 C21         1.3536   -1.2021   -0.2322 C.3        1 <1>        0.000
     16 C24         3.5521    0.0437   -0.1014 C.3        1 <1>        0.000
     17 C26         2.5040   -0.6063   -0.9622 C.3        1 <1>        0.000
     18 H          -1.9448    0.8725    2.2064 H.spc      1 <1>        0.000
     19 H          -1.4017   -1.1577    1.6255 H.spc      1 <1>        0.000
     20 H          -2.2264    0.3320    5.0233 H.spc      1 <1>        0.000
     21 H          -1.2722    2.2516    3.7800 H.spc      1 <1>        0.000
     22 H          -0.0980    0.8832    4.3522 H.spc      1 <1>        0.000
     23 H           0.3271   -1.3936    3.9967 H.spc      1 <1>        0.000
     24 H           0.7258   -0.9375    2.2219 H.spc      1 <1>        0.000
     25 H          -2.5294   -1.6782    5.2143 H.spc      1 <1>        0.000
     26 H          -3.9243   -1.5065    4.0660 H.spc      1 <1>        0.000
     27 H          -0.1393   -3.6871    1.2203 H.spc      1 <1>        0.000
     28 H           1.8458   -3.5169    1.6444 H.spc      1 <1>        0.000
     29 H           0.0672    2.9185    2.5217 H.spc      1 <1>        0.000
     30 H           0.3979    1.0613    1.8957 H.spc      1 <1>        0.000
     31 H           2.0467    2.0049    3.8590 H.spc      1 <1>        0.000
     32 H           2.0852    3.0361    2.2974 H.spc      1 <1>        0.000
     33 H           3.7443    1.2115    2.6951 H.spc      1 <1>        0.000
     34 H           2.2795    0.1408    2.2066 H.spc      1 <1>        0.000
     35 H           1.9769   -3.0533   -0.1060 H.spc      1 <1>        0.000
     36 H           0.0237   -2.6383   -0.2345 H.spc      1 <1>        0.000
     37 H           2.2639    1.6302    0.2284 H.spc      1 <1>        0.000
     38 H           4.0665    1.8771    0.7103 H.spc      1 <1>        0.000
     39 H           0.5735   -1.0494   -0.9780 H.spc      1 <1>        0.000
     40 H           1.5270   -0.7694    0.7531 H.spc      1 <1>        0.000
     41 H           4.3155    0.3924   -0.7970 H.spc      1 <1>        0.000
     42 H           3.8246   -0.7124    0.6349 H.spc      1 <1>        0.000
     43 H           2.9970   -1.4257   -1.4853 H.spc      1 <1>        0.000
     44 H           2.0946    0.1787   -1.5980 H.spc      1 <1>        0.000
@<TRIPOS>BOND
     1   10    8 1  
     2    1    2 1  
     3    4    9 1  
     4    6    7 1  
     5    1    4 1  
     6    2    5 1  
     7    3    7 1  
     8    1    3 1  
     9    2    6 1  
    10    9   11 1  
    11    5   10 1  
    12   16   17 1  
    13   15   17 1  
    14   14   16 1  
    15   13   15 1  
    16   12   14 1  
    17    8   13 1  
    18   11   12 1  
    19    1   18 1  
    20    2   19 1  
    21    3   20 1  
    22    4   21 1  
    23    4   22 1  
    24    5   23 1  
    25    5   24 1  
    26    7   25 1  
    27    7   26 1  
    28    8   27 1  
    29    8   28 1  
    30    9   29 1  
    31    9   30 1  
    32   11   31 1  
    33   11   32 1  
    34   12   33 1  
    35   12   34 1  
    36   13   35 1  
    37   13   36 1  
    38   14   37 1  
    39   14   38 1  
    40   15   39 1  
    41   15   40 1  
    42   16   41 1  
    43   16   42 1  
    44   17   43 1  
    45   17   44 1  
# Name:          frag4-487-87/150395
# Creation time: Sat Jun  5 12:53:38 2010


@<TRIPOS>MOLECULE
frag4-487-87/150395
   44    45     1     1     1
SMALL
USER_CHARGES


@<TRIPOS>ATOM
      1 C1         -1.5949    0.2656    3.8369 C.3        1 <1>        0.000
      2 C2         -1.9705   -0.6294    2.6296 C.3        1 <1>        0.000
      3 N1         -1.8613   -0.6855    4.8758 N.3        1 <1>        0.000
      4 C3         -0.2531    0.9688    3.9948 C.3        1 <1>        0.000
      5 C4         -0.8003   -1.0546    1.7663 C.3        1 <1>        0.000
      6 O1         -2.7256   -1.7592    3.0807 O.3        1 <1>        0.000
      7 C6         -2.4814   -1.8282    4.3713 C.3        1 <1>        0.000
      8 C13         1.0768   -2.4714    1.8121 C.3        1 <1>        0.000
      9 C8          0.1704    1.9897    2.9840 C.3        1 <1>        0.000
     10 O2          0.2400   -1.7196    2.4533 O.3        1 <1>        0.000
     11 C12         1.4358    2.2174    2.2083 C.3        1 <1>        0.000
     12 C16         1.9576    1.0295    1.4436 C.3        1 <1>        0.000
     13 C18         1.4234   -2.6984    0.4176 C.3        1 <1>        0.000
     14 C20         3.1774    1.0817    0.5571 C.3        1 <1>        0.000
     15 C21         1.9307   -1.7355   -0.5631 C.3        1 <1>        0.000
     16 C24         3.8605   -0.2275    0.1972 C.3        1 <1>        0.000
     17 C26         3.2909   -1.1962   -0.8121 C.3        1 <1>        0.000
     18 H          -2.1414    1.2068    3.7777 H.spc      1 <1>        0.000
     19 H          -2.5821   -0.0122    1.9714 H.spc      1 <1>        0.000
     20 H          -0.9751   -0.9583    5.3008 H.spc      1 <1>        0.000
     21 H          -0.3412    1.5248    4.9282 H.spc      1 <1>        0.000
     22 H           0.4870    0.1731    3.9100 H.spc      1 <1>        0.000
     23 H          -0.3698   -0.1438    1.3500 H.spc      1 <1>        0.000
     24 H          -1.1914   -1.7583    1.0315 H.spc      1 <1>        0.000
     25 H          -1.8074   -2.6690    4.5351 H.spc      1 <1>        0.000
     26 H          -3.4377   -1.9377    4.8827 H.spc      1 <1>        0.000
     27 H           0.6019   -3.4323    2.0101 H.spc      1 <1>        0.000
     28 H           1.9964   -1.9733    2.1192 H.spc      1 <1>        0.000
     29 H           0.2111    2.8639    3.6338 H.spc      1 <1>        0.000
     30 H          -0.4807    1.6932    2.1616 H.spc      1 <1>        0.000
     31 H           2.2029    2.4748    2.9387 H.spc      1 <1>        0.000
     32 H           1.2096    2.9851    1.4683 H.spc      1 <1>        0.000
     33 H           2.2592    0.3427    2.2345 H.spc      1 <1>        0.000
     34 H           1.1525    0.8188    0.7397 H.spc      1 <1>        0.000
     35 H           2.2848   -3.3577    0.5239 H.spc      1 <1>        0.000
     36 H           0.4442   -2.9256   -0.0039 H.spc      1 <1>        0.000
     37 H           2.8272    1.4929   -0.3897 H.spc      1 <1>        0.000
     38 H           3.9189    1.6471    1.1215 H.spc      1 <1>        0.000
     39 H           1.7980   -2.3187   -1.4743 H.spc      1 <1>        0.000
     40 H           1.4420   -0.8319   -0.1987 H.spc      1 <1>        0.000
     41 H           4.7931    0.0959   -0.2652 H.spc      1 <1>        0.000
     42 H           3.8289   -0.7907    1.1299 H.spc      1 <1>        0.000
     43 H           3.9546   -2.0606   -0.7921 H.spc      1 <1>        0.000
     44 H           3.2151   -0.6348   -1.7433 H.spc      1 <1>        0.000
@<TRIPOS>BOND
     1   10    8 1  
     2    1    2 1  
     3    4    9 1  
     4    6    7 1  
     5    1    4 1  
     6    2    5 1  
     7    3    7 1  
     8    1    3 1  
     9    2    6 1  
    10    9   11 1  
    11    5   10 1  
    12   16   17 1  
    13   15   17 1  
    14   14   16 1  
    15   13   15 1  
    16   12   14 1  
    17    8   13 1  
    18   11   12 1  
    19    1   18 1  
    20    2   19 1  
    21    3   20 1  
    22    4   21 1  
    23    4   22 1  
    24    5   23 1  
    25    5   24 1  
    26    7   25 1  
    27    7   26 1  
    28    8   27 1  
    29    8   28 1  
    30    9   29 1  
    31    9   30 1  
    32   11   31 1  
    33   11   32 1  
    34   12   33 1  
    35   12   34 1  
    36   13   35 1  
    37   13   36 1  
    38   14   37 1  
    39   14   38 1  
    40   15   39 1  
    41   15   40 1  
    42   16   41 1  
    43   16   42 1  
    44   17   43 1  
    45   17   44 1  
# Name:          frag4-487-87/150395
# Creation time: Sat Jun  5 12:53:38 2010


@<TRIPOS>MOLECULE
frag4-487-87/150395
   44    45     1     1     1
SMALL
USER_CHARGES


@<TRIPOS>ATOM
      1 C1         -1.2886    0.2935    3.1107 C.3        1 <1>        0.000
      2 C2         -1.0860   -1.2097    2.7541 C.3        1 <1>        0.000
      3 N1         -2.4682    0.1641    3.9152 N.3        1 <1>        0.000
      4 C3         -0.2282    1.1236    3.8175 C.3        1 <1>        0.000
      5 C4          0.3333   -1.7617    2.7845 C.3        1 <1>        0.000
      6 O1         -2.0148   -2.0166    3.4972 O.3        1 <1>        0.000
      7 C6         -2.8034   -1.1770    4.1278 C.3        1 <1>        0.000
      8 C13         0.7089   -3.3287    1.0948 C.3        1 <1>        0.000
      9 C8          0.5766    2.1016    3.0277 C.3        1 <1>        0.000
     10 O2          0.5451   -3.0962    2.3625 O.3        1 <1>        0.000
     11 C12         1.0487    2.1960    1.6184 C.3        1 <1>        0.000
     12 C16         2.5468    2.0320    1.5057 C.3        1 <1>        0.000
     13 C18         0.8515   -2.5425   -0.1270 C.3        1 <1>        0.000
     14 C20         3.1493    0.6824    1.8269 C.3        1 <1>        0.000
     15 C21         1.1774   -1.1259   -0.3221 C.3        1 <1>        0.000
     16 C24         3.3485   -0.3589    0.7452 C.3        1 <1>        0.000
     17 C26         2.4794   -0.4288   -0.4858 C.3        1 <1>        0.000
     18 H          -1.2938    0.8803    2.1922 H.spc      1 <1>        0.000
     19 H          -1.3027   -1.2667    1.6874 H.spc      1 <1>        0.000
     20 H          -2.2895    0.5985    4.8206 H.spc      1 <1>        0.000
     21 H          -0.7809    1.7310    4.5342 H.spc      1 <1>        0.000
     22 H           0.4968    0.3969    4.1841 H.spc      1 <1>        0.000
     23 H           0.6246   -1.7441    3.8347 H.spc      1 <1>        0.000
     24 H           0.8945   -1.1467    2.0810 H.spc      1 <1>        0.000
     25 H          -2.7082   -1.3748    5.1955 H.spc      1 <1>        0.000
     26 H          -3.8144   -1.3275    3.7492 H.spc      1 <1>        0.000
     27 H          -0.2820   -3.7349    0.8919 H.spc      1 <1>        0.000
     28 H           1.7308   -3.7045    1.1464 H.spc      1 <1>        0.000
     29 H           1.5417    1.9313    3.5048 H.spc      1 <1>        0.000
     30 H          -0.1464    2.9170    3.0053 H.spc      1 <1>        0.000
     31 H           0.7862    3.1833    1.2383 H.spc      1 <1>        0.000
     32 H           0.5762    1.3961    1.0483 H.spc      1 <1>        0.000
     33 H           2.7746    2.2034    0.4536 H.spc      1 <1>        0.000
     34 H           2.9653    2.7149    2.2450 H.spc      1 <1>        0.000
     35 H           1.7479   -3.0018   -0.5438 H.spc      1 <1>        0.000
     36 H          -0.1806   -2.5490   -0.4775 H.spc      1 <1>        0.000
     37 H           4.1609    0.9163    2.1588 H.spc      1 <1>        0.000
     38 H           2.4286    0.2253    2.5049 H.spc      1 <1>        0.000
     39 H           0.7626   -0.9773   -1.3191 H.spc      1 <1>        0.000
     40 H           0.8793   -0.7330    0.6500 H.spc      1 <1>        0.000
     41 H           4.3334   -0.1195    0.3442 H.spc      1 <1>        0.000
     42 H           3.1350   -1.2972    1.2572 H.spc      1 <1>        0.000
     43 H           3.0413   -0.9978   -1.2264 H.spc      1 <1>        0.000
     44 H           2.2446    0.6011   -0.7547 H.spc      1 <1>        0.000
@<TRIPOS>BOND
     1   10    8 1  
     2    1    2 1  
     3    4    9 1  
     4    6    7 1  
     5    1    4 1  
     6    2    5 1  
     7    3    7 1  
     8    1    3 1  
     9    2    6 1  
    10    9   11 1  
    11    5   10 1  
    12   16   17 1  
    13   15   17 1  
    14   14   16 1  
    15   13   15 1  
    16   12   14 1  
    17    8   13 1  
    18   11   12 1  
    19    1   18 1  
    20    2   19 1  
    21    3   20 1  
    22    4   21 1  
    23    4   22 1  
    24    5   23 1  
    25    5   24 1  
    26    7   25 1  
    27    7   26 1  
    28    8   27 1  
    29    8   28 1  
    30    9   29 1  
    31    9   30 1  
    32   11   31 1  
    33   11   32 1  
    34   12   33 1  
    35   12   34 1  
    36   13   35 1  
    37   13   36 1  
    38   14   37 1  
    39   14   38 1  
    40   15   39 1  
    41   15   40 1  
    42   16   41 1  
    43   16   42 1  
    44   17   43 1  
    45   17   44 1  
# Name:          frag4-487-87/150395
# Creation time: Sat Jun  5 12:53:38 2010


@<TRIPOS>MOLECULE
frag4-487-87/150395
   44    45     1     1     1
SMALL
USER_CHARGES


@<TRIPOS>ATOM
      1 C1         -1.1703    0.3481    2.8902 C.3        1 <1>        0.000
      2 C2         -0.8934   -1.1707    2.7077 C.3        1 <1>        0.000
      3 N1         -2.5619    0.2386    3.1944 N.3        1 <1>        0.000
      4 C3         -0.4890    1.2393    3.9052 C.3        1 <1>        0.000
      5 C4          0.5163   -1.7349    2.9187 C.3        1 <1>        0.000
      6 O1         -1.9002   -1.9169    3.4061 O.3        1 <1>        0.000
      7 C6         -2.8933   -1.0674    3.5869 C.3        1 <1>        0.000
      8 C13         0.9314   -3.5551    1.4517 C.3        1 <1>        0.000
      9 C8          0.8366    1.8605    3.6305 C.3        1 <1>        0.000
     10 O2          0.7303   -3.1043    2.6497 O.3        1 <1>        0.000
     11 C12         1.4435    2.5146    2.4391 C.3        1 <1>        0.000
     12 C16         2.8351    2.0285    2.1014 C.3        1 <1>        0.000
     13 C18         1.1552   -3.0489    0.0979 C.3        1 <1>        0.000
     14 C20         2.9863    0.7696    1.2970 C.3        1 <1>        0.000
     15 C21         1.1149   -1.6968   -0.4609 C.3        1 <1>        0.000
     16 C24         2.0414    0.5473    0.1280 C.3        1 <1>        0.000
     17 C26         2.1933   -0.7043   -0.6903 C.3        1 <1>        0.000
     18 H          -0.7781    0.8752    2.0205 H.spc      1 <1>        0.000
     19 H          -0.9512   -1.3001    1.6270 H.spc      1 <1>        0.000
     20 H          -2.7788    0.8745    3.9618 H.spc      1 <1>        0.000
     21 H          -1.1620    2.0919    3.9960 H.spc      1 <1>        0.000
     22 H          -0.2952    0.5742    4.7467 H.spc      1 <1>        0.000
     23 H           0.7193   -1.6145    3.9828 H.spc      1 <1>        0.000
     24 H           1.1505   -1.1993    2.2123 H.spc      1 <1>        0.000
     25 H          -3.1304   -1.0488    4.6506 H.spc      1 <1>        0.000
     26 H          -3.7341   -1.3985    2.9774 H.spc      1 <1>        0.000
     27 H          -0.0758   -3.9368    1.2843 H.spc      1 <1>        0.000
     28 H           1.9410   -3.9299    1.6202 H.spc      1 <1>        0.000
     29 H           1.4515    0.9609    3.6584 H.spc      1 <1>        0.000
     30 H           0.7474    2.7357    4.2741 H.spc      1 <1>        0.000
     31 H           1.5216    3.5785    2.6631 H.spc      1 <1>        0.000
     32 H           0.8067    2.2801    1.5861 H.spc      1 <1>        0.000
     33 H           3.2657    2.8140    1.4803 H.spc      1 <1>        0.000
     34 H           3.2978    1.8065    3.0630 H.spc      1 <1>        0.000
     35 H           2.2221   -3.2514    0.0036 H.spc      1 <1>        0.000
     36 H           0.2851   -3.4762   -0.4006 H.spc      1 <1>        0.000
     37 H           3.9812    0.8280    0.8556 H.spc      1 <1>        0.000
     38 H           2.7790   -0.0432    1.9931 H.spc      1 <1>        0.000
     39 H           0.8519   -1.9289   -1.4929 H.spc      1 <1>        0.000
     40 H           0.5555   -1.1870    0.3235 H.spc      1 <1>        0.000
     41 H           1.0491    0.4774    0.5735 H.spc      1 <1>        0.000
     42 H           2.2458    1.3654   -0.5627 H.spc      1 <1>        0.000
     43 H           3.1349   -1.1716   -0.4020 H.spc      1 <1>        0.000
     44 H           2.1542   -0.4154   -1.7406 H.spc      1 <1>        0.000
@<TRIPOS>BOND
     1   10    8 1  
     2    1    2 1  
     3    4    9 1  
     4    6    7 1  
     5    1    4 1  
     6    2    5 1  
     7    3    7 1  
     8    1    3 1  
     9    2    6 1  
    10    9   11 1  
    11    5   10 1  
    12   16   17 1  
    13   15   17 1  
    14   14   16 1  
    15   13   15 1  
    16   12   14 1  
    17    8   13 1  
    18   11   12 1  
    19    1   18 1  
    20    2   19 1  
    21    3   20 1  
    22    4   21 1  
    23    4   22 1  
    24    5   23 1  
    25    5   24 1  
    26    7   25 1  
    27    7   26 1  
    28    8   27 1  
    29    8   28 1  
    30    9   29 1  
    31    9   30 1  
    32   11   31 1  
    33   11   32 1  
    34   12   33 1  
    35   12   34 1  
    36   13   35 1  
    37   13   36 1  
    38   14   37 1  
    39   14   38 1  
    40   15   39 1  
    41   15   40 1  
    42   16   41 1  
    43   16   42 1  
    44   17   43 1  
    45   17   44 1  
# Name:          frag4-487-87/150395
# Creation time: Sat Jun  5 12:53:38 2010


@<TRIPOS>MOLECULE
frag4-487-87/150395
   44    45     1     1     1
SMALL
USER_CHARGES


@<TRIPOS>ATOM
      1 C1         -1.3589    0.2712    3.1846 C.3        1 <1>        0.000
      2 C2         -1.3041   -1.1782    2.6490 C.3        1 <1>        0.000
      3 N1         -2.5171    0.1768    4.0302 N.3        1 <1>        0.000
      4 C3         -0.2301    0.9995    3.8747 C.3        1 <1>        0.000
      5 C4         -0.2159   -2.1947    3.0365 C.3        1 <1>        0.000
      6 O1         -2.5911   -1.7814    2.9283 O.3        1 <1>        0.000
      7 C6         -3.1959   -1.0210    3.8077 C.3        1 <1>        0.000
      8 C13         1.4693   -3.0186    1.7731 C.3        1 <1>        0.000
      9 C8          0.6771    1.8210    3.0578 C.3        1 <1>        0.000
     10 O2          1.1034   -2.0482    2.5635 O.3        1 <1>        0.000
     11 C12         2.1491    1.9439    3.1016 C.3        1 <1>        0.000
     12 C16         2.7716    1.1619    1.9905 C.3        1 <1>        0.000
     13 C18         1.6105   -3.0498    0.3199 C.3        1 <1>        0.000
     14 C20         2.5011    1.5211    0.5486 C.3        1 <1>        0.000
     15 C21         1.8657   -1.9595   -0.5862 C.3        1 <1>        0.000
     16 C24         2.6382    0.4347   -0.4828 C.3        1 <1>        0.000
     17 C26         1.5036   -0.5315   -0.5437 C.3        1 <1>        0.000
     18 H          -1.3301    0.9223    2.3109 H.spc      1 <1>        0.000
     19 H          -1.0202   -0.9953    1.6126 H.spc      1 <1>        0.000
     20 H          -2.2167    0.2087    5.0044 H.spc      1 <1>        0.000
     21 H          -0.7156    1.7001    4.5541 H.spc      1 <1>        0.000
     22 H           0.3981    0.2160    4.2985 H.spc      1 <1>        0.000
     23 H          -0.5558   -3.1318    2.5956 H.spc      1 <1>        0.000
     24 H          -0.1256   -2.0910    4.1178 H.spc      1 <1>        0.000
     25 H          -3.2388   -1.5649    4.7513 H.spc      1 <1>        0.000
     26 H          -4.1865   -0.7808    3.4216 H.spc      1 <1>        0.000
     27 H           0.6267   -3.6984    1.8996 H.spc      1 <1>        0.000
     28 H           2.5124   -3.1267    2.0705 H.spc      1 <1>        0.000
     29 H           0.3892    2.8180    3.3913 H.spc      1 <1>        0.000
     30 H           0.5513    1.3419    2.0869 H.spc      1 <1>        0.000
     31 H           2.5092    1.5550    4.0541 H.spc      1 <1>        0.000
     32 H           2.4207    2.9938    2.9918 H.spc      1 <1>        0.000
     33 H           3.8414    1.3320    2.1115 H.spc      1 <1>        0.000
     34 H           2.3510    0.1623    2.0997 H.spc      1 <1>        0.000
     35 H           2.5340   -3.6197    0.2175 H.spc      1 <1>        0.000
     36 H           0.5993   -3.3283    0.0233 H.spc      1 <1>        0.000
     37 H           1.4542    1.8229    0.5156 H.spc      1 <1>        0.000
     38 H           3.2534    2.2657    0.2884 H.spc      1 <1>        0.000
     39 H           2.9454   -1.8740   -0.4637 H.spc      1 <1>        0.000
     40 H           1.2469   -2.2761   -1.4258 H.spc      1 <1>        0.000
     41 H           2.6804    0.9288   -1.4535 H.spc      1 <1>        0.000
     42 H           3.5245   -0.1405   -0.2150 H.spc      1 <1>        0.000
     43 H           0.9767   -0.3235   -1.4749 H.spc      1 <1>        0.000
     44 H           0.9336   -0.3895    0.3744 H.spc      1 <1>        0.000
@<TRIPOS>BOND
     1   10    8 1  
     2    1    2 1  
     3    4    9 1  
     4    6    7 1  
     5    1    4 1  
     6    2    5 1  
     7    3    7 1  
     8    1    3 1  
     9    2    6 1  
    10    9   11 1  
    11    5   10 1  
    12   16   17 1  
    13   15   17 1  
    14   14   16 1  
    15   13   15 1  
    16   12   14 1  
    17    8   13 1  
    18   11   12 1  
    19    1   18 1  
    20    2   19 1  
    21    3   20 1  
    22    4   21 1  
    23    4   22 1  
    24    5   23 1  
    25    5   24 1  
    26    7   25 1  
    27    7   26 1  
    28    8   27 1  
    29    8   28 1  
    30    9   29 1  
    31    9   30 1  
    32   11   31 1  
    33   11   32 1  
    34   12   33 1  
    35   12   34 1  
    36   13   35 1  
    37   13   36 1  
    38   14   37 1  
    39   14   38 1  
    40   15   39 1  
    41   15   40 1  
    42   16   41 1  
    43   16   42 1  
    44   17   43 1  
    45   17   44 1  
# Name:          frag4-487-87/150395
# Creation time: Sat Jun  5 12:53:38 2010


@<TRIPOS>MOLECULE
frag4-487-87/150395
   44    45     1     1     1
SMALL
USER_CHARGES


@<TRIPOS>ATOM
      1 C1         -1.2401    0.4289    3.2675 C.3        1 <1>        0.000
      2 C2         -1.0337   -0.9975    2.7122 C.3        1 <1>        0.000
      3 N1         -2.5803    0.2925    3.7421 N.3        1 <1>        0.000
      4 C3         -0.3250    1.0278    4.3068 C.3        1 <1>        0.000
      5 C4          0.3120   -1.6774    2.9167 C.3        1 <1>        0.000
      6 O1         -2.1477   -1.8264    3.0799 O.3        1 <1>        0.000
      7 C6         -3.0248   -1.0243    3.6459 C.3        1 <1>        0.000
      8 C13         0.7350   -3.4783    1.4321 C.3        1 <1>        0.000
      9 C8          1.0020    1.4561    3.7943 C.3        1 <1>        0.000
     10 O2          0.3675   -3.0528    2.6005 O.3        1 <1>        0.000
     11 C12         1.4299    2.2993    2.6444 C.3        1 <1>        0.000
     12 C16         2.4558    1.6651    1.7336 C.3        1 <1>        0.000
     13 C18         1.2583   -2.9745    0.1672 C.3        1 <1>        0.000
     14 C20         2.0755    1.4426    0.2873 C.3        1 <1>        0.000
     15 C21         1.6724   -1.6440   -0.2971 C.3        1 <1>        0.000
     16 C24         2.9419    0.5378   -0.5543 C.3        1 <1>        0.000
     17 C26         2.9778   -0.9277   -0.2257 C.3        1 <1>        0.000
     18 H          -1.0077    1.1584    2.4916 H.spc      1 <1>        0.000
     19 H          -0.9981   -0.8529    1.6324 H.spc      1 <1>        0.000
     20 H          -2.6055    0.5710    4.7230 H.spc      1 <1>        0.000
     21 H          -0.8204    1.9205    4.6886 H.spc      1 <1>        0.000
     22 H          -0.1421    0.2535    5.0519 H.spc      1 <1>        0.000
     23 H           0.5348   -1.5996    3.9808 H.spc      1 <1>        0.000
     24 H           1.0104   -1.1809    2.2431 H.spc      1 <1>        0.000
     25 H          -3.2014   -1.3886    4.6579 H.spc      1 <1>        0.000
     26 H          -3.9222   -1.0261    3.0272 H.spc      1 <1>        0.000
     27 H          -0.2631   -3.7209    1.0673 H.spc      1 <1>        0.000
     28 H           1.6510   -3.9699    1.7600 H.spc      1 <1>        0.000
     29 H           1.3697    0.4913    3.4449 H.spc      1 <1>        0.000
     30 H           1.2946    2.1178    4.6096 H.spc      1 <1>        0.000
     31 H           1.8917    3.1929    3.0643 H.spc      1 <1>        0.000
     32 H           0.5415    2.4805    2.0394 H.spc      1 <1>        0.000
     33 H           3.2931    2.3625    1.7095 H.spc      1 <1>        0.000
     34 H           2.6325    0.6707    2.1435 H.spc      1 <1>        0.000
     35 H           2.2337   -3.4609    0.1810 H.spc      1 <1>        0.000
     36 H           0.3667   -3.0990   -0.4473 H.spc      1 <1>        0.000
     37 H           1.1016    0.9542    0.3207 H.spc      1 <1>        0.000
     38 H           2.1494    2.4241   -0.1809 H.spc      1 <1>        0.000
     39 H           1.6096   -1.8000   -1.3741 H.spc      1 <1>        0.000
     40 H           1.0880   -1.0244    0.3831 H.spc      1 <1>        0.000
     41 H           2.5225    0.5947   -1.5588 H.spc      1 <1>        0.000
     42 H           3.9610    0.8907   -0.3961 H.spc      1 <1>        0.000
     43 H           3.3121   -1.0018    0.8091 H.spc      1 <1>        0.000
     44 H           3.6241   -1.3931   -0.9699 H.spc      1 <1>        0.000
@<TRIPOS>BOND
     1   10    8 1  
     2    1    2 1  
     3    4    9 1  
     4    6    7 1  
     5    1    4 1  
     6    2    5 1  
     7    3    7 1  
     8    1    3 1  
     9    2    6 1  
    10    9   11 1  
    11    5   10 1  
    12   16   17 1  
    13   15   17 1  
    14   14   16 1  
    15   13   15 1  
    16   12   14 1  
    17    8   13 1  
    18   11   12 1  
    19    1   18 1  
    20    2   19 1  
    21    3   20 1  
    22    4   21 1  
    23    4   22 1  
    24    5   23 1  
    25    5   24 1  
    26    7   25 1  
    27    7   26 1  
    28    8   27 1  
    29    8   28 1  
    30    9   29 1  
    31    9   30 1  
    32   11   31 1  
    33   11   32 1  
    34   12   33 1  
    35   12   34 1  
    36   13   35 1  
    37   13   36 1  
    38   14   37 1  
    39   14   38 1  
    40   15   39 1  
    41   15   40 1  
    42   16   41 1  
    43   16   42 1  
    44   17   43 1  
    45   17   44 1  
# Name:          frag4-487-87/150395
# Creation time: Sat Jun  5 12:53:38 2010


@<TRIPOS>MOLECULE
frag4-487-87/150395
   44    45     1     1     1
SMALL
USER_CHARGES


@<TRIPOS>ATOM
      1 C1         -1.1317    0.3605    3.5816 C.3        1 <1>        0.000
      2 C2         -1.5744   -0.8298    2.6820 C.3        1 <1>        0.000
      3 N1         -2.0640    0.1733    4.6406 N.3        1 <1>        0.000
      4 C3          0.3022    0.4442    4.1267 C.3        1 <1>        0.000
      5 C4         -0.4637   -1.4896    1.8744 C.3        1 <1>        0.000
      6 O1         -2.4120   -1.7130    3.4424 O.3        1 <1>        0.000
      7 C6         -2.7387   -1.0351    4.5188 C.3        1 <1>        0.000
      8 C13         0.3556   -3.3461    0.8078 C.3        1 <1>        0.000
      9 C8          1.3717    0.9446    3.2051 C.3        1 <1>        0.000
     10 O2         -0.7095   -2.7221    1.2371 O.3        1 <1>        0.000
     11 C12         1.3576    2.1246    2.3096 C.3        1 <1>        0.000
     12 C16         1.2103    1.8495    0.8372 C.3        1 <1>        0.000
     13 C18         1.7466   -2.9346    0.5807 C.3        1 <1>        0.000
     14 C20         2.4028    1.4978   -0.0386 C.3        1 <1>        0.000
     15 C21         2.2692   -1.6035    0.2032 C.3        1 <1>        0.000
     16 C24         3.5478    0.6456    0.4598 C.3        1 <1>        0.000
     17 C26         3.4068   -0.8192    0.7847 C.3        1 <1>        0.000
     18 H          -1.1249    1.2874    3.0081 H.spc      1 <1>        0.000
     19 H          -2.1798   -0.4304    1.8683 H.spc      1 <1>        0.000
     20 H          -1.5532    0.1701    5.5235 H.spc      1 <1>        0.000
     21 H           0.2613    1.1650    4.9433 H.spc      1 <1>        0.000
     22 H           0.5822   -0.5813    4.3675 H.spc      1 <1>        0.000
     23 H           0.3181   -1.7052    2.6027 H.spc      1 <1>        0.000
     24 H          -0.2607   -0.7927    1.0613 H.spc      1 <1>        0.000
     25 H          -2.4747   -1.6455    5.3824 H.spc      1 <1>        0.000
     26 H          -3.8032   -0.8101    4.4530 H.spc      1 <1>        0.000
     27 H           0.0541   -3.5031   -0.2278 H.spc      1 <1>        0.000
     28 H           0.5127   -4.0150    1.6540 H.spc      1 <1>        0.000
     29 H           1.4003    0.1373    2.4733 H.spc      1 <1>        0.000
     30 H           2.1318    1.2478    3.9251 H.spc      1 <1>        0.000
     31 H           2.3277    2.6067    2.4307 H.spc      1 <1>        0.000
     32 H           0.4838    2.7100    2.5959 H.spc      1 <1>        0.000
     33 H           0.5938    0.9512    0.8043 H.spc      1 <1>        0.000
     34 H           0.8655    2.8006    0.4315 H.spc      1 <1>        0.000
     35 H           2.1557   -3.0363    1.5859 H.spc      1 <1>        0.000
     36 H           1.9850   -3.5084   -0.3149 H.spc      1 <1>        0.000
     37 H           1.9646    0.8943   -0.8335 H.spc      1 <1>        0.000
     38 H           2.8702    2.4636   -0.2307 H.spc      1 <1>        0.000
     39 H           2.6682   -1.8230   -0.7871 H.spc      1 <1>        0.000
     40 H           1.4282   -0.9733    0.4925 H.spc      1 <1>        0.000
     41 H           4.2396    0.6456   -0.3825 H.spc      1 <1>        0.000
     42 H           3.7835    1.0907    1.4265 H.spc      1 <1>        0.000
     43 H           3.2377   -0.8468    1.8611 H.spc      1 <1>        0.000
     44 H           4.3011   -1.2808    0.3661 H.spc      1 <1>        0.000
@<TRIPOS>BOND
     1   10    8 1  
     2    1    2 1  
     3    4    9 1  
     4    6    7 1  
     5    1    4 1  
     6    2    5 1  
     7    3    7 1  
     8    1    3 1  
     9    2    6 1  
    10    9   11 1  
    11    5   10 1  
    12   16   17 1  
    13   15   17 1  
    14   14   16 1  
    15   13   15 1  
    16   12   14 1  
    17    8   13 1  
    18   11   12 1  
    19    1   18 1  
    20    2   19 1  
    21    3   20 1  
    22    4   21 1  
    23    4   22 1  
    24    5   23 1  
    25    5   24 1  
    26    7   25 1  
    27    7   26 1  
    28    8   27 1  
    29    8   28 1  
    30    9   29 1  
    31    9   30 1  
    32   11   31 1  
    33   11   32 1  
    34   12   33 1  
    35   12   34 1  
    36   13   35 1  
    37   13   36 1  
    38   14   37 1  
    39   14   38 1  
    40   15   39 1  
    41   15   40 1  
    42   16   41 1  
    43   16   42 1  
    44   17   43 1  
    45   17   44 1  
# Name:          frag4-487-87/150395
# Creation time: Sat Jun  5 12:53:38 2010


@<TRIPOS>MOLECULE
frag4-487-87/150395
   44    45     1     1     1
SMALL
USER_CHARGES


@<TRIPOS>ATOM
      1 C1         -1.6235    0.3813    3.1009 C.3        1 <1>        0.000
      2 C2         -1.7600   -1.1022    2.6507 C.3        1 <1>        0.000
      3 N1         -1.8338    0.1855    4.5102 N.3        1 <1>        0.000
      4 C3         -0.4493    1.2737    2.6940 C.3        1 <1>        0.000
      5 C4         -0.4688   -1.7853    2.2038 C.3        1 <1>        0.000
      6 O1         -2.4993   -1.8125    3.6600 O.3        1 <1>        0.000
      7 C6         -2.4597   -1.0530    4.7321 C.3        1 <1>        0.000
      8 C13         0.4498   -3.4984    0.9429 C.3        1 <1>        0.000
      9 C8          0.9014    0.9954    3.2850 C.3        1 <1>        0.000
     10 O2         -0.5467   -3.0927    1.6671 O.3        1 <1>        0.000
     11 C12         2.2781    1.5133    3.0237 C.3        1 <1>        0.000
     12 C16         2.4110    2.3688    1.7904 C.3        1 <1>        0.000
     13 C18         1.7274   -2.9553    0.4699 C.3        1 <1>        0.000
     14 C20         2.3096    1.7411    0.4160 C.3        1 <1>        0.000
     15 C21         2.3390   -1.6253    0.5715 C.3        1 <1>        0.000
     16 C24         3.3048    0.6756    0.0056 C.3        1 <1>        0.000
     17 C26         2.7965   -0.6624   -0.4703 C.3        1 <1>        0.000
     18 H          -2.3084    1.0309    2.5559 H.spc      1 <1>        0.000
     19 H          -2.3209   -1.1187    1.7162 H.spc      1 <1>        0.000
     20 H          -0.9338    0.1986    4.9900 H.spc      1 <1>        0.000
     21 H          -0.3292    1.1148    1.6224 H.spc      1 <1>        0.000
     22 H          -0.7141    2.2706    3.0464 H.spc      1 <1>        0.000
     23 H           0.1292   -1.8845    3.1097 H.spc      1 <1>        0.000
     24 H          -0.0855   -1.1667    1.3923 H.spc      1 <1>        0.000
     25 H          -1.8841   -1.5827    5.4911 H.spc      1 <1>        0.000
     26 H          -3.4879   -0.8541    5.0342 H.spc      1 <1>        0.000
     27 H          -0.0656   -3.5144   -0.0174 H.spc      1 <1>        0.000
     28 H           0.8532   -4.2270    1.6461 H.spc      1 <1>        0.000
     29 H           1.0354   -0.0227    2.9193 H.spc      1 <1>        0.000
     30 H           0.7442    1.4334    4.2707 H.spc      1 <1>        0.000
     31 H           2.9191    0.6443    2.8753 H.spc      1 <1>        0.000
     32 H           2.5454    2.1413    3.8735 H.spc      1 <1>        0.000
     33 H           1.5626    3.0513    1.8406 H.spc      1 <1>        0.000
     34 H           3.4285    2.7569    1.8374 H.spc      1 <1>        0.000
     35 H           2.4058   -3.5113    1.1170 H.spc      1 <1>        0.000
     36 H           1.5442   -2.9836   -0.6042 H.spc      1 <1>        0.000
     37 H           1.3452    1.2331    0.4150 H.spc      1 <1>        0.000
     38 H           2.4848    2.5641   -0.2769 H.spc      1 <1>        0.000
     39 H           1.4957   -1.0672    0.9782 H.spc      1 <1>        0.000
     40 H           3.3020   -1.8996    1.0021 H.spc      1 <1>        0.000
     41 H           3.8267    1.0973   -0.8534 H.spc      1 <1>        0.000
     42 H           3.8664    0.4540    0.9131 H.spc      1 <1>        0.000
     43 H           3.6409   -1.1411   -0.9661 H.spc      1 <1>        0.000
     44 H           1.9193   -0.4465   -1.0802 H.spc      1 <1>        0.000
@<TRIPOS>BOND
     1   10    8 1  
     2    1    2 1  
     3    4    9 1  
     4    6    7 1  
     5    1    4 1  
     6    2    5 1  
     7    3    7 1  
     8    1    3 1  
     9    2    6 1  
    10    9   11 1  
    11    5   10 1  
    12   16   17 1  
    13   15   17 1  
    14   14   16 1  
    15   13   15 1  
    16   12   14 1  
    17    8   13 1  
    18   11   12 1  
    19    1   18 1  
    20    2   19 1  
    21    3   20 1  
    22    4   21 1  
    23    4   22 1  
    24    5   23 1  
    25    5   24 1  
    26    7   25 1  
    27    7   26 1  
    28    8   27 1  
    29    8   28 1  
    30    9   29 1  
    31    9   30 1  
    32   11   31 1  
    33   11   32 1  
    34   12   33 1  
    35   12   34 1  
    36   13   35 1  
    37   13   36 1  
    38   14   37 1  
    39   14   38 1  
    40   15   39 1  
    41   15   40 1  
    42   16   41 1  
    43   16   42 1  
    44   17   43 1  
    45   17   44 1  
# Name:          frag4-487-87/150395
# Creation time: Sat Jun  5 12:53:38 2010


@<TRIPOS>MOLECULE
frag4-487-87/150395
   44    45     1     1     1
SMALL
USER_CHARGES


@<TRIPOS>ATOM
      1 C1         -1.8180    0.2909    3.1638 C.3        1 <1>        0.000
      2 C2         -1.6409   -1.2185    2.8290 C.3        1 <1>        0.000
      3 N1         -1.9766    0.1836    4.5786 N.3        1 <1>        0.000
      4 C3         -0.9063    1.3827    2.6014 C.3        1 <1>        0.000
      5 C4         -0.4025   -1.6257    2.0417 C.3        1 <1>        0.000
      6 O1         -1.8494   -2.0006    4.0074 O.3        1 <1>        0.000
      7 C6         -1.9834   -1.1482    4.9971 C.3        1 <1>        0.000
      8 C13         0.2829   -3.2314    0.5046 C.3        1 <1>        0.000
      9 C8          0.3398    1.8574    3.2756 C.3        1 <1>        0.000
     10 O2         -0.3640   -2.9681    1.6076 O.3        1 <1>        0.000
     11 C12         1.5333    2.5502    2.7118 C.3        1 <1>        0.000
     12 C16         2.6497    1.6611    2.2121 C.3        1 <1>        0.000
     13 C18         1.0617   -2.4703   -0.4672 C.3        1 <1>        0.000
     14 C20         2.7381    1.3531    0.7295 C.3        1 <1>        0.000
     15 C21         2.4523   -2.0184   -0.3922 C.3        1 <1>        0.000
     16 C24         3.5592    0.1813    0.2328 C.3        1 <1>        0.000
     17 C26         3.2005   -1.2321    0.6198 C.3        1 <1>        0.000
     18 H          -2.6371    0.7441    2.6055 H.spc      1 <1>        0.000
     19 H          -2.4175   -1.4366    2.0960 H.spc      1 <1>        0.000
     20 H          -1.1926    0.6577    5.0270 H.spc      1 <1>        0.000
     21 H          -0.5272    0.9313    1.6845 H.spc      1 <1>        0.000
     22 H          -1.5447    2.2658    2.6257 H.spc      1 <1>        0.000
     23 H           0.4459   -1.4952    2.7135 H.spc      1 <1>        0.000
     24 H          -0.3942   -1.0109    1.1416 H.spc      1 <1>        0.000
     25 H          -1.1379   -1.2877    5.6707 H.spc      1 <1>        0.000
     26 H          -2.9455   -1.3410    5.4718 H.spc      1 <1>        0.000
     27 H          -0.5779   -3.4489   -0.1278 H.spc      1 <1>        0.000
     28 H           1.1021   -3.8022    0.9418 H.spc      1 <1>        0.000
     29 H           0.7845    0.9024    3.5554 H.spc      1 <1>        0.000
     30 H          -0.0685    2.6522    3.8999 H.spc      1 <1>        0.000
     31 H           1.9555    3.1391    3.5261 H.spc      1 <1>        0.000
     32 H           1.1791    3.1088    1.8454 H.spc      1 <1>        0.000
     33 H           3.5657    2.2060    2.4404 H.spc      1 <1>        0.000
     34 H           2.4749    0.6967    2.6890 H.spc      1 <1>        0.000
     35 H           1.1306   -3.1944   -1.2790 H.spc      1 <1>        0.000
     36 H           0.5392   -1.5142   -0.4370 H.spc      1 <1>        0.000
     37 H           1.7157    1.1021    0.4470 H.spc      1 <1>        0.000
     38 H           3.2331    2.2260    0.3040 H.spc      1 <1>        0.000
     39 H           2.9439   -2.9828   -0.2642 H.spc      1 <1>        0.000
     40 H           2.4464   -1.2951   -1.2076 H.spc      1 <1>        0.000
     41 H           3.4264    0.2028   -0.8489 H.spc      1 <1>        0.000
     42 H           4.5420    0.3376    0.6774 H.spc      1 <1>        0.000
     43 H           2.5467   -1.1534    1.4884 H.spc      1 <1>        0.000
     44 H           4.1447   -1.7545    0.7741 H.spc      1 <1>        0.000
@<TRIPOS>BOND
     1   10    8 1  
     2    1    2 1  
     3    4    9 1  
     4    6    7 1  
     5    1    4 1  
     6    2    5 1  
     7    3    7 1  
     8    1    3 1  
     9    2    6 1  
    10    9   11 1  
    11    5   10 1  
    12   16   17 1  
    13   15   17 1  
    14   14   16 1  
    15   13   15 1  
    16   12   14 1  
    17    8   13 1  
    18   11   12 1  
    19    1   18 1  
    20    2   19 1  
    21    3   20 1  
    22    4   21 1  
    23    4   22 1  
    24    5   23 1  
    25    5   24 1  
    26    7   25 1  
    27    7   26 1  
    28    8   27 1  
    29    8   28 1  
    30    9   29 1  
    31    9   30 1  
    32   11   31 1  
    33   11   32 1  
    34   12   33 1  
    35   12   34 1  
    36   13   35 1  
    37   13   36 1  
    38   14   37 1  
    39   14   38 1  
    40   15   39 1  
    41   15   40 1  
    42   16   41 1  
    43   16   42 1  
    44   17   43 1  
    45   17   44 1  
# Name:          frag4-487-87/150395
# Creation time: Sat Jun  5 12:53:38 2010


@<TRIPOS>MOLECULE
frag4-487-87/150395
   44    45     1     1     1
SMALL
USER_CHARGES


@<TRIPOS>ATOM
      1 C1         -1.5679    0.4332    3.5396 C.3        1 <1>        0.000
      2 C2         -1.4769   -0.9677    2.8442 C.3        1 <1>        0.000
      3 N1         -2.4769    0.0614    4.5797 N.3        1 <1>        0.000
      4 C3         -0.4154    1.2265    4.1277 C.3        1 <1>        0.000
      5 C4         -0.2410   -1.4870    2.1043 C.3        1 <1>        0.000
      6 O1         -1.9955   -1.9689    3.7407 O.3        1 <1>        0.000
      7 C6         -2.6495   -1.3083    4.6671 C.3        1 <1>        0.000
      8 C13         0.2319   -3.2596    0.5427 C.3        1 <1>        0.000
      9 C8          0.3900    2.0206    3.1714 C.3        1 <1>        0.000
     10 O2         -0.4711   -2.7664    1.5142 O.3        1 <1>        0.000
     11 C12         1.7414    1.7904    2.6190 C.3        1 <1>        0.000
     12 C16         1.8710    2.0428    1.1476 C.3        1 <1>        0.000
     13 C18         1.4056   -2.9012   -0.2229 C.3        1 <1>        0.000
     14 C20         3.1088    1.5530    0.4382 C.3        1 <1>        0.000
     15 C21         2.5923   -2.1433    0.1723 C.3        1 <1>        0.000
     16 C24         3.6058    0.1351    0.6420 C.3        1 <1>        0.000
     17 C26         3.2239   -0.9134   -0.3747 C.3        1 <1>        0.000
     18 H          -1.7792    1.1662    2.7610 H.spc      1 <1>        0.000
     19 H          -2.0702   -0.7542    1.9551 H.spc      1 <1>        0.000
     20 H          -2.0916    0.3874    5.4661 H.spc      1 <1>        0.000
     21 H          -0.8610    1.9431    4.8177 H.spc      1 <1>        0.000
     22 H           0.2652    0.4953    4.5638 H.spc      1 <1>        0.000
     23 H           0.5719   -1.5842    2.8239 H.spc      1 <1>        0.000
     24 H           0.0015   -0.7827    1.3086 H.spc      1 <1>        0.000
     25 H          -2.2670   -1.6295    5.6359 H.spc      1 <1>        0.000
     26 H          -3.7112   -1.5177    4.5366 H.spc      1 <1>        0.000
     27 H          -0.5024   -3.1146   -0.2497 H.spc      1 <1>        0.000
     28 H           0.6727   -4.0893    1.0954 H.spc      1 <1>        0.000
     29 H           0.5829    2.9057    3.7776 H.spc      1 <1>        0.000
     30 H          -0.2069    1.8897    2.2688 H.spc      1 <1>        0.000
     31 H           1.9741    0.7379    2.7810 H.spc      1 <1>        0.000
     32 H           2.4110    2.4895    3.1199 H.spc      1 <1>        0.000
     33 H           1.0462    1.4953    0.6914 H.spc      1 <1>        0.000
     34 H           1.8956    3.1278    1.0462 H.spc      1 <1>        0.000
     35 H           1.8463   -3.8864   -0.3752 H.spc      1 <1>        0.000
     36 H           0.9649   -2.2108   -0.9421 H.spc      1 <1>        0.000
     37 H           2.8454    1.5947   -0.6187 H.spc      1 <1>        0.000
     38 H           3.9094    2.1767    0.8359 H.spc      1 <1>        0.000
     39 H           2.2440   -1.7538    1.1289 H.spc      1 <1>        0.000
     40 H           3.3621   -2.8695   -0.0888 H.spc      1 <1>        0.000
     41 H           4.6924    0.2028    0.5880 H.spc      1 <1>        0.000
     42 H           3.1523   -0.1949    1.5766 H.spc      1 <1>        0.000
     43 H           4.1502   -1.2296   -0.8544 H.spc      1 <1>        0.000
     44 H           2.4849   -0.4526   -1.0301 H.spc      1 <1>        0.000
@<TRIPOS>BOND
     1   10    8 1  
     2    1    2 1  
     3    4    9 1  
     4    6    7 1  
     5    1    4 1  
     6    2    5 1  
     7    3    7 1  
     8    1    3 1  
     9    2    6 1  
    10    9   11 1  
    11    5   10 1  
    12   16   17 1  
    13   15   17 1  
    14   14   16 1  
    15   13   15 1  
    16   12   14 1  
    17    8   13 1  
    18   11   12 1  
    19    1   18 1  
    20    2   19 1  
    21    3   20 1  
    22    4   21 1  
    23    4   22 1  
    24    5   23 1  
    25    5   24 1  
    26    7   25 1  
    27    7   26 1  
    28    8   27 1  
    29    8   28 1  
    30    9   29 1  
    31    9   30 1  
    32   11   31 1  
    33   11   32 1  
    34   12   33 1  
    35   12   34 1  
    36   13   35 1  
    37   13   36 1  
    38   14   37 1  
    39   14   38 1  
    40   15   39 1  
    41   15   40 1  
    42   16   41 1  
    43   16   42 1  
    44   17   43 1  
    45   17   44 1  
# Name:          frag4-487-87/150395
# Creation time: Sat Jun  5 12:53:38 2010


@<TRIPOS>MOLECULE
frag4-487-87/150395
   44    45     1     1     1
SMALL
USER_CHARGES


@<TRIPOS>ATOM
      1 C1         -0.9121    0.2262    3.1374 C.3        1 <1>        0.000
      2 C2         -1.0809   -1.2347    2.5945 C.3        1 <1>        0.000
      3 N1         -2.0542    0.2678    4.0021 N.3        1 <1>        0.000
      4 C3          0.3395    0.6895    3.8666 C.3        1 <1>        0.000
      5 C4          0.0820   -2.2225    2.7972 C.3        1 <1>        0.000
      6 O1         -2.3154   -1.7960    3.1051 O.3        1 <1>        0.000
      7 C6         -2.8280   -0.8921    3.9174 C.3        1 <1>        0.000
      8 C13         0.2452   -3.6603    0.9289 C.3        1 <1>        0.000
      9 C8          1.2442    1.7105    3.2794 C.3        1 <1>        0.000
     10 O2         -0.0709   -3.4975    2.1820 O.3        1 <1>        0.000
     11 C12         1.1286    2.7647    2.2374 C.3        1 <1>        0.000
     12 C16         2.0157    2.6380    1.0362 C.3        1 <1>        0.000
     13 C18         1.0081   -2.9384   -0.0850 C.3        1 <1>        0.000
     14 C20         3.1610    1.6572    1.0037 C.3        1 <1>        0.000
     15 C21         2.0358   -1.9017    0.0369 C.3        1 <1>        0.000
     16 C24         2.9249    0.1624    1.0978 C.3        1 <1>        0.000
     17 C26         1.9531   -0.4260    0.1158 C.3        1 <1>        0.000
     18 H          -0.8187    0.9109    2.2944 H.spc      1 <1>        0.000
     19 H          -1.0956   -1.1080    1.5120 H.spc      1 <1>        0.000
     20 H          -1.7205    0.3554    4.9620 H.spc      1 <1>        0.000
     21 H          -0.0453    1.1686    4.7669 H.spc      1 <1>        0.000
     22 H           0.9573   -0.2069    3.9199 H.spc      1 <1>        0.000
     23 H           0.1465   -2.4049    3.8699 H.spc      1 <1>        0.000
     24 H           0.9581   -1.7636    2.3390 H.spc      1 <1>        0.000
     25 H          -2.8776   -1.3314    4.9137 H.spc      1 <1>        0.000
     26 H          -3.8058   -0.6109    3.5263 H.spc      1 <1>        0.000
     27 H          -0.7467   -3.4993    0.5066 H.spc      1 <1>        0.000
     28 H           0.9320   -4.4966    1.0596 H.spc      1 <1>        0.000
     29 H           1.9106    1.0354    2.7424 H.spc      1 <1>        0.000
     30 H           1.3266    2.3620    4.1493 H.spc      1 <1>        0.000
     31 H           1.4193    3.6958    2.7239 H.spc      1 <1>        0.000
     32 H           0.1079    2.6987    1.8606 H.spc      1 <1>        0.000
     33 H           1.3456    2.2822    0.2536 H.spc      1 <1>        0.000
     34 H           2.5033    3.6105    0.9686 H.spc      1 <1>        0.000
     35 H           1.6134   -3.7549   -0.4786 H.spc      1 <1>        0.000
     36 H           0.2077   -2.3543   -0.5391 H.spc      1 <1>        0.000
     37 H           3.5911    1.7913    0.0112 H.spc      1 <1>        0.000
     38 H           3.7284    1.8888    1.9051 H.spc      1 <1>        0.000
     39 H           2.3878   -2.1159    1.0460 H.spc      1 <1>        0.000
     40 H           2.5094   -2.0029   -0.9396 H.spc      1 <1>        0.000
     41 H           3.8858   -0.3084    0.8903 H.spc      1 <1>        0.000
     42 H           2.4997   -0.0142    2.0858 H.spc      1 <1>        0.000
     43 H           2.1924   -0.0261   -0.8695 H.spc      1 <1>        0.000
     44 H           0.9475   -0.1662    0.4464 H.spc      1 <1>        0.000
@<TRIPOS>BOND
     1   10    8 1  
     2    1    2 1  
     3    4    9 1  
     4    6    7 1  
     5    1    4 1  
     6    2    5 1  
     7    3    7 1  
     8    1    3 1  
     9    2    6 1  
    10    9   11 1  
    11    5   10 1  
    12   16   17 1  
    13   15   17 1  
    14   14   16 1  
    15   13   15 1  
    16   12   14 1  
    17    8   13 1  
    18   11   12 1  
    19    1   18 1  
    20    2   19 1  
    21    3   20 1  
    22    4   21 1  
    23    4   22 1  
    24    5   23 1  
    25    5   24 1  
    26    7   25 1  
    27    7   26 1  
    28    8   27 1  
    29    8   28 1  
    30    9   29 1  
    31    9   30 1  
    32   11   31 1  
    33   11   32 1  
    34   12   33 1  
    35   12   34 1  
    36   13   35 1  
    37   13   36 1  
    38   14   37 1  
    39   14   38 1  
    40   15   39 1  
    41   15   40 1  
    42   16   41 1  
    43   16   42 1  
    44   17   43 1  
    45   17   44 1  
# Name:          frag4-487-87/150395
# Creation time: Sat Jun  5 12:53:38 2010


@<TRIPOS>MOLECULE
frag4-487-87/150395
   44    45     1     1     1
SMALL
USER_CHARGES


@<TRIPOS>ATOM
      1 C1         -1.5806    0.2970    3.2167 C.3        1 <1>        0.000
      2 C2         -1.9786   -1.0192    2.4948 C.3        1 <1>        0.000
      3 N1         -1.6632   -0.1716    4.5609 N.3        1 <1>        0.000
      4 C3         -0.3842    1.0484    2.6886 C.3        1 <1>        0.000
      5 C4         -0.8631   -1.7975    1.7817 C.3        1 <1>        0.000
      6 O1         -2.7105   -1.8319    3.4161 O.3        1 <1>        0.000
      7 C6         -2.3899   -1.3642    4.6083 C.3        1 <1>        0.000
      8 C13         1.2773   -2.6832    1.8324 C.3        1 <1>        0.000
      9 C8          0.7590    1.5603    3.4884 C.3        1 <1>        0.000
     10 O2          0.2833   -2.1881    2.5142 O.3        1 <1>        0.000
     11 C12         2.1438    1.9020    3.0412 C.3        1 <1>        0.000
     12 C16         2.2783    2.2836    1.5806 C.3        1 <1>        0.000
     13 C18         1.5507   -2.9190    0.4189 C.3        1 <1>        0.000
     14 C20         2.1504    1.2677    0.4552 C.3        1 <1>        0.000
     15 C21         1.9489   -1.9735   -0.6285 C.3        1 <1>        0.000
     16 C24         3.0562    0.0585    0.4634 C.3        1 <1>        0.000
     17 C26         2.9986   -0.9223   -0.6796 C.3        1 <1>        0.000
     18 H          -2.2023    1.1768    3.0510 H.spc      1 <1>        0.000
     19 H          -2.5968   -0.7204    1.6482 H.spc      1 <1>        0.000
     20 H          -0.7218   -0.3383    4.9163 H.spc      1 <1>        0.000
     21 H           0.0987    0.2907    2.0715 H.spc      1 <1>        0.000
     22 H          -0.8409    1.9737    2.3374 H.spc      1 <1>        0.000
     23 H          -0.4882   -1.1134    1.0204 H.spc      1 <1>        0.000
     24 H          -1.3291   -2.7332    1.4728 H.spc      1 <1>        0.000
     25 H          -1.7634   -2.1110    5.0961 H.spc      1 <1>        0.000
     26 H          -3.3185   -1.1615    5.1418 H.spc      1 <1>        0.000
     27 H           1.1841   -3.7217    2.1500 H.spc      1 <1>        0.000
     28 H           1.9977   -1.8826    2.0006 H.spc      1 <1>        0.000
     29 H           0.9599    0.6996    4.1264 H.spc      1 <1>        0.000
     30 H           0.3867    2.5472    3.7631 H.spc      1 <1>        0.000
     31 H           2.7481    1.0065    3.1863 H.spc      1 <1>        0.000
     32 H           2.4526    2.7722    3.6204 H.spc      1 <1>        0.000
     33 H           1.4324    2.9509    1.4153 H.spc      1 <1>        0.000
     34 H           3.3125    2.6186    1.5017 H.spc      1 <1>        0.000
     35 H           2.4542   -3.5243    0.4915 H.spc      1 <1>        0.000
     36 H           0.5554   -3.1928    0.0689 H.spc      1 <1>        0.000
     37 H           1.1413    0.8665    0.5489 H.spc      1 <1>        0.000
     38 H           2.4144    1.8135   -0.4506 H.spc      1 <1>        0.000
     39 H           2.3625   -2.6742   -1.3537 H.spc      1 <1>        0.000
     40 H           1.0616   -1.3407   -0.6445 H.spc      1 <1>        0.000
     41 H           4.0651    0.4693    0.4239 H.spc      1 <1>        0.000
     42 H           2.7425   -0.5153    1.3354 H.spc      1 <1>        0.000
     43 H           3.9492   -1.4552   -0.6575 H.spc      1 <1>        0.000
     44 H           2.7761   -0.3279   -1.5657 H.spc      1 <1>        0.000
@<TRIPOS>BOND
     1   10    8 1  
     2    1    2 1  
     3    4    9 1  
     4    6    7 1  
     5    1    4 1  
     6    2    5 1  
     7    3    7 1  
     8    1    3 1  
     9    2    6 1  
    10    9   11 1  
    11    5   10 1  
    12   16   17 1  
    13   15   17 1  
    14   14   16 1  
    15   13   15 1  
    16   12   14 1  
    17    8   13 1  
    18   11   12 1  
    19    1   18 1  
    20    2   19 1  
    21    3   20 1  
    22    4   21 1  
    23    4   22 1  
    24    5   23 1  
    25    5   24 1  
    26    7   25 1  
    27    7   26 1  
    28    8   27 1  
    29    8   28 1  
    30    9   29 1  
    31    9   30 1  
    32   11   31 1  
    33   11   32 1  
    34   12   33 1  
    35   12   34 1  
    36   13   35 1  
    37   13   36 1  
    38   14   37 1  
    39   14   38 1  
    40   15   39 1  
    41   15   40 1  
    42   16   41 1  
    43   16   42 1  
    44   17   43 1  
    45   17   44 1  
# Name:          frag4-487-87/150395
# Creation time: Sat Jun  5 12:53:38 2010


@<TRIPOS>MOLECULE
frag4-487-87/150395
   44    45     1     1     1
SMALL
USER_CHARGES


@<TRIPOS>ATOM
      1 C1         -1.0494    0.3664    3.3903 C.3        1 <1>        0.000
      2 C2         -1.0676   -1.0190    2.6710 C.3        1 <1>        0.000
      3 N1         -2.2771    0.2385    4.1280 N.3        1 <1>        0.000
      4 C3          0.0959    0.8486    4.2572 C.3        1 <1>        0.000
      5 C4          0.0818   -2.0061    2.9137 C.3        1 <1>        0.000
      6 O1         -2.3376   -1.6529    2.8905 O.3        1 <1>        0.000
      7 C6         -2.9678   -0.9242    3.7938 C.3        1 <1>        0.000
      8 C13         0.5005   -3.3175    1.0383 C.3        1 <1>        0.000
      9 C8          1.0440    1.8602    3.6911 C.3        1 <1>        0.000
     10 O2          0.0069   -3.2436    2.2340 O.3        1 <1>        0.000
     11 C12         2.0537    1.7780    2.6035 C.3        1 <1>        0.000
     12 C16         1.6145    2.1583    1.2233 C.3        1 <1>        0.000
     13 C18         1.4759   -2.6201    0.2169 C.3        1 <1>        0.000
     14 C20         1.3178    1.1328    0.1410 C.3        1 <1>        0.000
     15 C21         2.6664   -1.8554    0.5719 C.3        1 <1>        0.000
     16 C24         2.4300    0.4141   -0.5873 C.3        1 <1>        0.000
     17 C26         3.2886   -0.6109    0.0762 C.3        1 <1>        0.000
     18 H          -0.9187    1.1515    2.6455 H.spc      1 <1>        0.000
     19 H          -0.9006   -0.7523    1.6274 H.spc      1 <1>        0.000
     20 H          -2.0497    0.2001    5.1216 H.spc      1 <1>        0.000
     21 H          -0.3774    1.3446    5.1046 H.spc      1 <1>        0.000
     22 H           0.7031   -0.0368    4.4455 H.spc      1 <1>        0.000
     23 H           0.0548   -2.2444    3.9770 H.spc      1 <1>        0.000
     24 H           0.9831   -1.5150    2.5468 H.spc      1 <1>        0.000
     25 H          -3.0661   -1.5253    4.6978 H.spc      1 <1>        0.000
     26 H          -3.9301   -0.6314    3.3739 H.spc      1 <1>        0.000
     27 H          -0.3896   -2.9875    0.5027 H.spc      1 <1>        0.000
     28 H           1.0744   -4.2327    1.1840 H.spc      1 <1>        0.000
     29 H           1.7093    1.9818    4.5459 H.spc      1 <1>        0.000
     30 H           0.3283    2.5352    3.2219 H.spc      1 <1>        0.000
     31 H           2.3351    0.7267    2.5429 H.spc      1 <1>        0.000
     32 H           2.8324    2.4922    2.8711 H.spc      1 <1>        0.000
     33 H           0.6469    2.6314    1.3908 H.spc      1 <1>        0.000
     34 H           2.4751    2.6973    0.8272 H.spc      1 <1>        0.000
     35 H           1.9442   -3.4718   -0.2765 H.spc      1 <1>        0.000
     36 H           0.8496   -1.8167   -0.1710 H.spc      1 <1>        0.000
     37 H           0.7953    0.3366    0.6714 H.spc      1 <1>        0.000
     38 H           0.8254    1.7120   -0.6401 H.spc      1 <1>        0.000
     39 H           2.3421   -1.4959    1.5485 H.spc      1 <1>        0.000
     40 H           3.4211   -2.5619    0.2264 H.spc      1 <1>        0.000
     41 H           1.9042   -0.1544   -1.3544 H.spc      1 <1>        0.000
     42 H           3.1310    1.2127   -0.8300 H.spc      1 <1>        0.000
     43 H           3.6769   -0.1173    0.9671 H.spc      1 <1>        0.000
     44 H           3.9865   -0.9346   -0.6960 H.spc      1 <1>        0.000
@<TRIPOS>BOND
     1   10    8 1  
     2    1    2 1  
     3    4    9 1  
     4    6    7 1  
     5    1    4 1  
     6    2    5 1  
     7    3    7 1  
     8    1    3 1  
     9    2    6 1  
    10    9   11 1  
    11    5   10 1  
    12   16   17 1  
    13   15   17 1  
    14   14   16 1  
    15   13   15 1  
    16   12   14 1  
    17    8   13 1  
    18   11   12 1  
    19    1   18 1  
    20    2   19 1  
    21    3   20 1  
    22    4   21 1  
    23    4   22 1  
    24    5   23 1  
    25    5   24 1  
    26    7   25 1  
    27    7   26 1  
    28    8   27 1  
    29    8   28 1  
    30    9   29 1  
    31    9   30 1  
    32   11   31 1  
    33   11   32 1  
    34   12   33 1  
    35   12   34 1  
    36   13   35 1  
    37   13   36 1  
    38   14   37 1  
    39   14   38 1  
    40   15   39 1  
    41   15   40 1  
    42   16   41 1  
    43   16   42 1  
    44   17   43 1  
    45   17   44 1  
# Name:          frag4-487-87/150395
# Creation time: Sat Jun  5 12:53:38 2010


@<TRIPOS>MOLECULE
frag4-487-87/150395
   44    45     1     1     1
SMALL
USER_CHARGES


@<TRIPOS>ATOM
      1 C1         -1.5288    0.1585    3.3339 C.3        1 <1>        0.000
      2 C2         -2.2065   -1.1270    2.7767 C.3        1 <1>        0.000
      3 N1         -1.5526   -0.1470    4.7253 N.3        1 <1>        0.000
      4 C3         -0.2547    0.5906    2.6522 C.3        1 <1>        0.000
      5 C4         -1.3765   -2.0340    1.8373 C.3        1 <1>        0.000
      6 O1         -2.8343   -1.8156    3.8549 O.3        1 <1>        0.000
      7 C6         -2.3973   -1.2455    4.9640 C.3        1 <1>        0.000
      8 C13         0.7711   -2.8998    1.3587 C.3        1 <1>        0.000
      9 C8          0.5777    1.7304    3.1156 C.3        1 <1>        0.000
     10 O2         -0.1625   -2.6575    2.2399 O.3        1 <1>        0.000
     11 C12         1.5610    2.5610    2.3567 C.3        1 <1>        0.000
     12 C16         2.1109    1.8854    1.1167 C.3        1 <1>        0.000
     13 C18         1.1423   -2.4679    0.0058 C.3        1 <1>        0.000
     14 C20         3.4942    1.2838    1.1597 C.3        1 <1>        0.000
     15 C21         2.1448   -1.4758   -0.4263 C.3        1 <1>        0.000
     16 C24         3.9124    0.3267    0.0648 C.3        1 <1>        0.000
     17 C26         3.4752   -1.1190    0.1175 C.3        1 <1>        0.000
     18 H          -2.0229    1.1072    3.1243 H.spc      1 <1>        0.000
     19 H          -2.9547   -0.7842    2.0621 H.spc      1 <1>        0.000
     20 H          -0.6081   -0.3776    5.0338 H.spc      1 <1>        0.000
     21 H           0.4027   -0.2666    2.7975 H.spc      1 <1>        0.000
     22 H          -0.6020    0.9238    1.6742 H.spc      1 <1>        0.000
     23 H          -1.0568   -1.3512    1.0501 H.spc      1 <1>        0.000
     24 H          -2.0414   -2.8781    1.6543 H.spc      1 <1>        0.000
     25 H          -1.8232   -1.9906    5.5148 H.spc      1 <1>        0.000
     26 H          -3.2657   -0.8817    5.5131 H.spc      1 <1>        0.000
     27 H           0.4558   -3.9103    1.0987 H.spc      1 <1>        0.000
     28 H           1.5897   -2.4122    1.8881 H.spc      1 <1>        0.000
     29 H           1.2446    1.2191    3.8098 H.spc      1 <1>        0.000
     30 H          -0.1957    2.4721    3.3150 H.spc      1 <1>        0.000
     31 H           2.4035    2.7526    3.0212 H.spc      1 <1>        0.000
     32 H           1.0402    3.4613    2.0305 H.spc      1 <1>        0.000
     33 H           1.4444    1.0414    0.9393 H.spc      1 <1>        0.000
     34 H           2.1738    2.6780    0.3711 H.spc      1 <1>        0.000
     35 H           1.5950   -3.3833   -0.3752 H.spc      1 <1>        0.000
     36 H           0.2244   -1.9649   -0.2985 H.spc      1 <1>        0.000
     37 H           4.1723    2.1320    1.0653 H.spc      1 <1>        0.000
     38 H           3.5140    0.6905    2.0739 H.spc      1 <1>        0.000
     39 H           2.4484   -1.9234   -1.3727 H.spc      1 <1>        0.000
     40 H           1.6027   -0.5578   -0.1995 H.spc      1 <1>        0.000
     41 H           3.4423    0.7210   -0.8361 H.spc      1 <1>        0.000
     42 H           4.9991    0.2857    0.1390 H.spc      1 <1>        0.000
     43 H           3.4236   -1.3624    1.1787 H.spc      1 <1>        0.000
     44 H           4.1907   -1.6557   -0.5055 H.spc      1 <1>        0.000
@<TRIPOS>BOND
     1   10    8 1  
     2    1    2 1  
     3    4    9 1  
     4    6    7 1  
     5    1    4 1  
     6    2    5 1  
     7    3    7 1  
     8    1    3 1  
     9    2    6 1  
    10    9   11 1  
    11    5   10 1  
    12   16   17 1  
    13   15   17 1  
    14   14   16 1  
    15   13   15 1  
    16   12   14 1  
    17    8   13 1  
    18   11   12 1  
    19    1   18 1  
    20    2   19 1  
    21    3   20 1  
    22    4   21 1  
    23    4   22 1  
    24    5   23 1  
    25    5   24 1  
    26    7   25 1  
    27    7   26 1  
    28    8   27 1  
    29    8   28 1  
    30    9   29 1  
    31    9   30 1  
    32   11   31 1  
    33   11   32 1  
    34   12   33 1  
    35   12   34 1  
    36   13   35 1  
    37   13   36 1  
    38   14   37 1  
    39   14   38 1  
    40   15   39 1  
    41   15   40 1  
    42   16   41 1  
    43   16   42 1  
    44   17   43 1  
    45   17   44 1  
# Name:          frag4-487-87/150395
# Creation time: Sat Jun  5 12:53:38 2010


@<TRIPOS>MOLECULE
frag4-487-87/150395
   44    45     1     1     1
SMALL
USER_CHARGES


@<TRIPOS>ATOM
      1 C1         -1.3222    0.3600    3.3803 C.3        1 <1>        0.000
      2 C2         -1.4693   -1.0709    2.7627 C.3        1 <1>        0.000
      3 N1         -2.3543    0.2489    4.3759 N.3        1 <1>        0.000
      4 C3         -0.0743    0.9563    4.0231 C.3        1 <1>        0.000
      5 C4         -0.2469   -1.8158    2.2541 C.3        1 <1>        0.000
      6 O1         -2.3014   -1.8724    3.6294 O.3        1 <1>        0.000
      7 C6         -2.8167   -1.0440    4.5162 C.3        1 <1>        0.000
      8 C13         0.3483   -3.4398    0.6655 C.3        1 <1>        0.000
      9 C8          1.1702    1.2199    3.2451 C.3        1 <1>        0.000
     10 O2         -0.5136   -2.9986    1.5176 O.3        1 <1>        0.000
     11 C12         1.7015    2.5041    2.7102 C.3        1 <1>        0.000
     12 C16         2.0990    2.5470    1.2569 C.3        1 <1>        0.000
     13 C18         1.6569   -3.0446    0.1477 C.3        1 <1>        0.000
     14 C20         2.0119    1.2917    0.4127 C.3        1 <1>        0.000
     15 C21         2.5186   -1.8981    0.4759 C.3        1 <1>        0.000
     16 C24         3.2853    0.4889    0.2441 C.3        1 <1>        0.000
     17 C26         3.1833   -0.8855   -0.3642 C.3        1 <1>        0.000
     18 H          -1.3300    1.0585    2.5436 H.spc      1 <1>        0.000
     19 H          -1.9405   -0.8792    1.7987 H.spc      1 <1>        0.000
     20 H          -1.9612    0.5413    5.2706 H.spc      1 <1>        0.000
     21 H          -0.3970    1.9504    4.3325 H.spc      1 <1>        0.000
     22 H           0.2306    0.1957    4.7418 H.spc      1 <1>        0.000
     23 H           0.3192   -2.1199    3.1345 H.spc      1 <1>        0.000
     24 H           0.2690   -1.1373    1.5746 H.spc      1 <1>        0.000
     25 H          -2.5279   -1.3951    5.5069 H.spc      1 <1>        0.000
     26 H          -3.8967   -1.0290    4.3695 H.spc      1 <1>        0.000
     27 H          -0.2283   -3.2377   -0.2371 H.spc      1 <1>        0.000
     28 H           0.6775   -4.3095    1.2341 H.spc      1 <1>        0.000
     29 H           0.9358    0.7008    2.3158 H.spc      1 <1>        0.000
     30 H           1.9254    0.9917    3.9973 H.spc      1 <1>        0.000
     31 H           2.6176    2.6959    3.2689 H.spc      1 <1>        0.000
     32 H           0.8869    3.2212    2.8110 H.spc      1 <1>        0.000
     33 H           1.3875    3.2342    0.7991 H.spc      1 <1>        0.000
     34 H           3.1606    2.7938    1.2710 H.spc      1 <1>        0.000
     35 H           2.2676   -3.8570    0.5417 H.spc      1 <1>        0.000
     36 H           1.3836   -2.7869   -0.8755 H.spc      1 <1>        0.000
     37 H           1.3108    0.6344    0.9271 H.spc      1 <1>        0.000
     38 H           1.7340    1.6237   -0.5876 H.spc      1 <1>        0.000
     39 H           1.7879   -1.2630    0.9767 H.spc      1 <1>        0.000
     40 H           3.3962   -2.4326    0.8395 H.spc      1 <1>        0.000
     41 H           3.8996    1.0652   -0.4477 H.spc      1 <1>        0.000
     42 H           3.6611    0.3294    1.2547 H.spc      1 <1>        0.000
     43 H           4.2041   -1.2331   -0.5233 H.spc      1 <1>        0.000
     44 H           2.5802   -0.7836   -1.2664 H.spc      1 <1>        0.000
@<TRIPOS>BOND
     1   10    8 1  
     2    1    2 1  
     3    4    9 1  
     4    6    7 1  
     5    1    4 1  
     6    2    5 1  
     7    3    7 1  
     8    1    3 1  
     9    2    6 1  
    10    9   11 1  
    11    5   10 1  
    12   16   17 1  
    13   15   17 1  
    14   14   16 1  
    15   13   15 1  
    16   12   14 1  
    17    8   13 1  
    18   11   12 1  
    19    1   18 1  
    20    2   19 1  
    21    3   20 1  
    22    4   21 1  
    23    4   22 1  
    24    5   23 1  
    25    5   24 1  
    26    7   25 1  
    27    7   26 1  
    28    8   27 1  
    29    8   28 1  
    30    9   29 1  
    31    9   30 1  
    32   11   31 1  
    33   11   32 1  
    34   12   33 1  
    35   12   34 1  
    36   13   35 1  
    37   13   36 1  
    38   14   37 1  
    39   14   38 1  
    40   15   39 1  
    41   15   40 1  
    42   16   41 1  
    43   16   42 1  
    44   17   43 1  
    45   17   44 1  
# Name:          frag4-487-87/150395
# Creation time: Sat Jun  5 12:53:38 2010


@<TRIPOS>MOLECULE
frag4-487-87/150395
   44    45     1     1     1
SMALL
USER_CHARGES


@<TRIPOS>ATOM
      1 C1         -1.9711    0.2800    3.0815 C.3        1 <1>        0.000
      2 C2         -1.5084   -1.1763    2.8189 C.3        1 <1>        0.000
      3 N1         -2.3511    0.1297    4.4623 N.3        1 <1>        0.000
      4 C3         -1.1671    1.5714    3.0139 C.3        1 <1>        0.000
      5 C4         -0.0811   -1.3490    2.3791 C.3        1 <1>        0.000
      6 O1         -1.7984   -1.9998    3.9589 O.3        1 <1>        0.000
      7 C6         -2.0984   -1.1588    4.9240 C.3        1 <1>        0.000
      8 C13         0.5868   -2.9630    0.8697 C.3        1 <1>        0.000
      9 C8          0.1455    1.7214    2.3396 C.3        1 <1>        0.000
     10 O2          0.3451   -2.6624    2.1036 O.3        1 <1>        0.000
     11 C12         1.5064    1.7742    2.9570 C.3        1 <1>        0.000
     12 C16         2.5667    0.9003    2.3505 C.3        1 <1>        0.000
     13 C18         0.7689   -2.1977   -0.3620 C.3        1 <1>        0.000
     14 C20         2.9857    1.1241    0.9220 C.3        1 <1>        0.000
     15 C21         1.8581   -1.2626   -0.6600 C.3        1 <1>        0.000
     16 C24         3.8303    0.0703    0.2535 C.3        1 <1>        0.000
     17 C26         3.2585   -1.2546   -0.1590 C.3        1 <1>        0.000
     18 H          -2.6139    0.5035    2.2301 H.spc      1 <1>        0.000
     19 H          -2.0873   -1.4999    1.9539 H.spc      1 <1>        0.000
     20 H          -1.8051    0.7857    5.0208 H.spc      1 <1>        0.000
     21 H          -1.8112    2.2153    2.4150 H.spc      1 <1>        0.000
     22 H          -0.9121    1.7417    4.0599 H.spc      1 <1>        0.000
     23 H           0.5320   -1.0044    3.2119 H.spc      1 <1>        0.000
     24 H           0.0107   -0.8021    1.4407 H.spc      1 <1>        0.000
     25 H          -1.2438   -1.1085    5.5987 H.spc      1 <1>        0.000
     26 H          -3.0038   -1.5209    5.4110 H.spc      1 <1>        0.000
     27 H          -0.3681   -3.4300    0.6285 H.spc      1 <1>        0.000
     28 H           1.6097   -3.3202    0.9892 H.spc      1 <1>        0.000
     29 H           0.0594    2.7330    1.9430 H.spc      1 <1>        0.000
     30 H           0.2042    0.7815    1.7907 H.spc      1 <1>        0.000
     31 H           1.3817    1.4224    3.9811 H.spc      1 <1>        0.000
     32 H           1.8536    2.7987    2.8231 H.spc      1 <1>        0.000
     33 H           3.4625    1.1057    2.9365 H.spc      1 <1>        0.000
     34 H           2.1370   -0.1014    2.3586 H.spc      1 <1>        0.000
     35 H           0.9559   -2.9901   -1.0868 H.spc      1 <1>        0.000
     36 H          -0.0920   -1.5297   -0.3343 H.spc      1 <1>        0.000
     37 H           2.0574    1.1527    0.3515 H.spc      1 <1>        0.000
     38 H           3.6065    2.0198    0.9417 H.spc      1 <1>        0.000
     39 H           2.0251   -1.4809   -1.7148 H.spc      1 <1>        0.000
     40 H           1.4746   -0.3550   -0.1939 H.spc      1 <1>        0.000
     41 H           4.1202    0.5319   -0.6904 H.spc      1 <1>        0.000
     42 H           4.5666   -0.1913    1.0135 H.spc      1 <1>        0.000
     43 H           3.2548   -1.8691    0.7413 H.spc      1 <1>        0.000
     44 H           3.8732   -1.5965   -0.9917 H.spc      1 <1>        0.000
@<TRIPOS>BOND
     1   10    8 1  
     2    1    2 1  
     3    4    9 1  
     4    6    7 1  
     5    1    4 1  
     6    2    5 1  
     7    3    7 1  
     8    1    3 1  
     9    2    6 1  
    10    9   11 1  
    11    5   10 1  
    12   16   17 1  
    13   15   17 1  
    14   14   16 1  
    15   13   15 1  
    16   12   14 1  
    17    8   13 1  
    18   11   12 1  
    19    1   18 1  
    20    2   19 1  
    21    3   20 1  
    22    4   21 1  
    23    4   22 1  
    24    5   23 1  
    25    5   24 1  
    26    7   25 1  
    27    7   26 1  
    28    8   27 1  
    29    8   28 1  
    30    9   29 1  
    31    9   30 1  
    32   11   31 1  
    33   11   32 1  
    34   12   33 1  
    35   12   34 1  
    36   13   35 1  
    37   13   36 1  
    38   14   37 1  
    39   14   38 1  
    40   15   39 1  
    41   15   40 1  
    42   16   41 1  
    43   16   42 1  
    44   17   43 1  
    45   17   44 1  
# Name:          frag4-487-87/150395
# Creation time: Sat Jun  5 12:53:38 2010


@<TRIPOS>MOLECULE
frag4-487-87/150395
   44    45     1     1     1
SMALL
USER_CHARGES


@<TRIPOS>ATOM
      1 C1         -1.1785    0.1898    3.5053 C.3        1 <1>        0.000
      2 C2         -1.3909   -1.1504    2.7596 C.3        1 <1>        0.000
      3 N1         -2.2460    0.0383    4.4516 N.3        1 <1>        0.000
      4 C3          0.1547    0.6134    4.1012 C.3        1 <1>        0.000
      5 C4         -0.4018   -2.2793    3.0580 C.3        1 <1>        0.000
      6 O1         -2.7557   -1.5637    2.9514 O.3        1 <1>        0.000
      7 C6         -3.1499   -0.9255    4.0339 C.3        1 <1>        0.000
      8 C13         0.9948   -2.8977    1.3919 C.3        1 <1>        0.000
      9 C8          1.0125    1.5796    3.3607 C.3        1 <1>        0.000
     10 O2          0.8861   -2.2077    2.4963 O.3        1 <1>        0.000
     11 C12         0.9310    2.2745    2.0537 C.3        1 <1>        0.000
     12 C16         1.4680    1.4617    0.9122 C.3        1 <1>        0.000
     13 C18         1.0667   -2.4850   -0.0040 C.3        1 <1>        0.000
     14 C20         2.9682    1.2963    0.7725 C.3        1 <1>        0.000
     15 C21         1.7666   -1.3703   -0.6269 C.3        1 <1>        0.000
     16 C24         3.5620   -0.0835    0.6037 C.3        1 <1>        0.000
     17 C26         3.1886   -0.9435   -0.5678 C.3        1 <1>        0.000
     18 H          -1.1730    1.0315    2.8127 H.spc      1 <1>        0.000
     19 H          -1.1772   -0.9440    1.7109 H.spc      1 <1>        0.000
     20 H          -1.8505   -0.2510    5.3462 H.spc      1 <1>        0.000
     21 H          -0.1057    1.1265    5.0270 H.spc      1 <1>        0.000
     22 H           0.7430   -0.3032    4.1446 H.spc      1 <1>        0.000
     23 H          -0.8516   -3.1740    2.6276 H.spc      1 <1>        0.000
     24 H          -0.2453   -2.2441    4.1361 H.spc      1 <1>        0.000
     25 H          -3.2487   -1.6583    4.8347 H.spc      1 <1>        0.000
     26 H          -4.0883   -0.4226    3.8004 H.spc      1 <1>        0.000
     27 H           0.0225   -3.3903    1.3873 H.spc      1 <1>        0.000
     28 H           2.0040   -3.2893    1.5193 H.spc      1 <1>        0.000
     29 H           1.8422    0.9107    3.1321 H.spc      1 <1>        0.000
     30 H           0.8706    2.4448    4.0083 H.spc      1 <1>        0.000
     31 H           1.5339    3.1798    2.1247 H.spc      1 <1>        0.000
     32 H          -0.1219    2.4705    1.8508 H.spc      1 <1>        0.000
     33 H           1.0881    0.4540    1.0808 H.spc      1 <1>        0.000
     34 H           1.1591    1.9979    0.0149 H.spc      1 <1>        0.000
     35 H           1.6293   -3.3203   -0.4210 H.spc      1 <1>        0.000
     36 H           0.0340   -2.1754   -0.1647 H.spc      1 <1>        0.000
     37 H           3.2152    1.8152   -0.1537 H.spc      1 <1>        0.000
     38 H           3.3718    1.6534    1.7199 H.spc      1 <1>        0.000
     39 H           1.7105   -1.6785   -1.6709 H.spc      1 <1>        0.000
     40 H           1.3034   -0.5408   -0.0925 H.spc      1 <1>        0.000
     41 H           4.6279    0.1007    0.4690 H.spc      1 <1>        0.000
     42 H           3.1956   -0.6379    1.4677 H.spc      1 <1>        0.000
     43 H           3.7809   -1.8546   -0.4830 H.spc      1 <1>        0.000
     44 H           3.3682   -0.3441   -1.4603 H.spc      1 <1>        0.000
@<TRIPOS>BOND
     1   10    8 1  
     2    1    2 1  
     3    4    9 1  
     4    6    7 1  
     5    1    4 1  
     6    2    5 1  
     7    3    7 1  
     8    1    3 1  
     9    2    6 1  
    10    9   11 1  
    11    5   10 1  
    12   16   17 1  
    13   15   17 1  
    14   14   16 1  
    15   13   15 1  
    16   12   14 1  
    17    8   13 1  
    18   11   12 1  
    19    1   18 1  
    20    2   19 1  
    21    3   20 1  
    22    4   21 1  
    23    4   22 1  
    24    5   23 1  
    25    5   24 1  
    26    7   25 1  
    27    7   26 1  
    28    8   27 1  
    29    8   28 1  
    30    9   29 1  
    31    9   30 1  
    32   11   31 1  
    33   11   32 1  
    34   12   33 1  
    35   12   34 1  
    36   13   35 1  
    37   13   36 1  
    38   14   37 1  
    39   14   38 1  
    40   15   39 1  
    41   15   40 1  
    42   16   41 1  
    43   16   42 1  
    44   17   43 1  
    45   17   44 1  
# Name:          frag4-487-87/150395 -- energy: -5.482669
# Creation time: Sat Jun  5 12:53:38 2010


@<TRIPOS>MOLECULE
frag4-487-87/150395 -- energy: -5.482669
   44    45     1     1     1
SMALL
USER_CHARGES


@<TRIPOS>ATOM
      1 C1         -1.6176    0.2877    3.7350 C.3        1 <1>        0.000
      2 C2         -1.8045   -0.9890    2.8844 C.3        1 <1>        0.000
      3 N1         -2.1557   -0.2248    4.9575 N.3        1 <1>        0.000
      4 C3         -0.3118    1.0224    3.8797 C.3        1 <1>        0.000
      5 C4         -0.5766   -1.8788    2.6879 C.3        1 <1>        0.000
      6 O1         -2.9099   -1.7273    3.4428 O.3        1 <1>        0.000
      7 C6         -2.9515   -1.3459    4.7050 C.3        1 <1>        0.000
      8 C13         1.0963   -2.5343    1.2955 C.3        1 <1>        0.000
      9 C8          0.1392    1.8316    2.7283 C.3        1 <1>        0.000
     10 O2          0.3998   -1.5261    1.7430 O.3        1 <1>        0.000
     11 C12         1.4780    2.2348    2.2563 C.3        1 <1>        0.000
     12 C16         2.0064    1.4316    1.1032 C.3        1 <1>        0.000
     13 C18         1.8090   -2.7370    0.0422 C.3        1 <1>        0.000
     14 C20         3.0675    0.4062    1.4294 C.3        1 <1>        0.000
     15 C21         2.2077   -1.7689   -0.9794 C.3        1 <1>        0.000
     16 C24         3.8272   -0.2905    0.3233 C.3        1 <1>        0.000
     17 C26         3.1731   -0.6444   -0.9809 C.3        1 <1>        0.000
     18 H          -2.0741    1.1458    3.2417 H.spc      1 <1>        0.000
     19 H          -2.0023   -0.6521    1.8668 H.spc      1 <1>        0.000
     20 H          -1.3877   -0.4933    5.5727 H.spc      1 <1>        0.000
     21 H          -0.4582    1.7277    4.6978 H.spc      1 <1>        0.000
     22 H           0.4475    0.2523    4.0156 H.spc      1 <1>        0.000
     23 H          -0.9796   -2.8241    2.3244 H.spc      1 <1>        0.000
     24 H          -0.0564   -1.8417    3.6450 H.spc      1 <1>        0.000
     25 H          -2.5751   -2.1672    5.3149 H.spc      1 <1>        0.000
     26 H          -3.9828   -1.0837    4.9411 H.spc      1 <1>        0.000
     27 H           0.2991   -3.2676    1.1734 H.spc      1 <1>        0.000
     28 H           1.9419   -2.4917    1.9820 H.spc      1 <1>        0.000
     29 H          -0.2400    2.8056    3.0375 H.spc      1 <1>        0.000
     30 H          -0.1378    1.1566    1.9185 H.spc      1 <1>        0.000
     31 H           2.1658    2.0846    3.0885 H.spc      1 <1>        0.000
     32 H           1.3955    3.2659    1.9127 H.spc      1 <1>        0.000
     33 H           1.1573    0.8737    0.7085 H.spc      1 <1>        0.000
     34 H           2.4738    2.1460    0.4255 H.spc      1 <1>        0.000
     35 H           2.7869   -3.0353    0.4202 H.spc      1 <1>        0.000
     36 H           1.0676   -3.3118   -0.5128 H.spc      1 <1>        0.000
     37 H           3.8308    0.9708    1.9648 H.spc      1 <1>        0.000
     38 H           2.5219   -0.3958    1.9266 H.spc      1 <1>        0.000
     39 H           2.7227   -2.4416   -1.6652 H.spc      1 <1>        0.000
     40 H           1.2797   -1.2019   -1.0537 H.spc      1 <1>        0.000
     41 H           4.5933    0.4316    0.0410 H.spc      1 <1>        0.000
     42 H           4.0836   -1.2579    0.7551 H.spc      1 <1>        0.000
     43 H           3.9834   -0.9543   -1.6409 H.spc      1 <1>        0.000
     44 H           2.5980    0.2356   -1.2689 H.spc      1 <1>        0.000
@<TRIPOS>BOND
     1   10    8 1  
     2    1    2 1  
     3    4    9 1  
     4    6    7 1  
     5    1    4 1  
     6    2    5 1  
     7    3    7 1  
     8    1    3 1  
     9    2    6 1  
    10    9   11 1  
    11    5   10 1  
    12   16   17 1  
    13   15   17 1  
    14   14   16 1  
    15   13   15 1  
    16   12   14 1  
    17    8   13 1  
    18   11   12 1  
    19    1   18 1  
    20    2   19 1  
    21    3   20 1  
    22    4   21 1  
    23    4   22 1  
    24    5   23 1  
    25    5   24 1  
    26    7   25 1  
    27    7   26 1  
    28    8   27 1  
    29    8   28 1  
    30    9   29 1  
    31    9   30 1  
    32   11   31 1  
    33   11   32 1  
    34   12   33 1  
    35   12   34 1  
    36   13   35 1  
    37   13   36 1  
    38   14   37 1  
    39   14   38 1  
    40   15   39 1  
    41   15   40 1  
    42   16   41 1  
    43   16   42 1  
    44   17   43 1  
    45   17   44 1  
# Name:          frag4-487-87/150395 -- energy: 0.020800
# Creation time: Sat Jun  5 12:53:38 2010


@<TRIPOS>MOLECULE
frag4-487-87/150395 -- energy: 0.020800
   44    45     1     1     1
SMALL
USER_CHARGES


@<TRIPOS>ATOM
      1 C1         -0.9568    0.3161    3.2116 C.3        1 <1>        0.000
      2 C2         -1.1682   -1.0698    2.5154 C.3        1 <1>        0.000
      3 N1         -2.1631    0.3481    3.9804 N.3        1 <1>        0.000
      4 C3          0.2369    0.7045    4.0683 C.3        1 <1>        0.000
      5 C4         -0.0813   -2.1252    2.6855 C.3        1 <1>        0.000
      6 O1         -2.4674   -1.5821    2.8501 O.3        1 <1>        0.000
      7 C6         -2.9603   -0.7585    3.7450 C.3        1 <1>        0.000
      8 C13         0.8333   -3.6784    1.1709 C.3        1 <1>        0.000
      9 C8          1.5311    1.0734    3.4249 C.3        1 <1>        0.000
     10 O2         -0.1723   -3.3128    1.9127 O.3        1 <1>        0.000
     11 C12         2.0793    2.3656    2.9248 C.3        1 <1>        0.000
     12 C16         1.8771    2.6531    1.4634 C.3        1 <1>        0.000
     13 C18         2.1077   -3.1065    0.7635 C.3        1 <1>        0.000
     14 C20         2.3621    1.6275    0.4727 C.3        1 <1>        0.000
     15 C21         2.4730   -1.7109    0.4896 C.3        1 <1>        0.000
     16 C24         1.3995    0.5397    0.0753 C.3        1 <1>        0.000
     17 C26         1.9460   -0.7366   -0.5008 C.3        1 <1>        0.000
     18 H          -0.7272    1.0399    2.4297 H.spc      1 <1>        0.000
     19 H          -1.0918   -0.8491    1.4507 H.spc      1 <1>        0.000
     20 H          -1.9104    0.3537    4.9686 H.spc      1 <1>        0.000
     21 H          -0.0804    1.6128    4.5806 H.spc      1 <1>        0.000
     22 H           0.4646   -0.1948    4.6406 H.spc      1 <1>        0.000
     23 H          -0.1568   -2.4509    3.7230 H.spc      1 <1>        0.000
     24 H           0.8412   -1.6424    2.3629 H.spc      1 <1>        0.000
     25 H          -3.0421   -1.3072    4.6833 H.spc      1 <1>        0.000
     26 H          -3.9158   -0.3973    3.3646 H.spc      1 <1>        0.000
     27 H           0.3317   -3.6296    0.2044 H.spc      1 <1>        0.000
     28 H           1.2221   -4.4617    1.8216 H.spc      1 <1>        0.000
     29 H           1.4079    0.5555    2.4738 H.spc      1 <1>        0.000
     30 H           2.1990    0.9157    4.2717 H.spc      1 <1>        0.000
     31 H           3.1573    2.3181    3.0787 H.spc      1 <1>        0.000
     32 H           1.5489    3.1499    3.4649 H.spc      1 <1>        0.000
     33 H           0.7973    2.7049    1.3236 H.spc      1 <1>        0.000
     34 H           2.4592    3.5520    1.2603 H.spc      1 <1>        0.000
     35 H           2.6984   -3.2893    1.6611 H.spc      1 <1>        0.000
     36 H           2.2005   -3.5313   -0.2360 H.spc      1 <1>        0.000
     37 H           2.5762    2.1800   -0.4422 H.spc      1 <1>        0.000
     38 H           3.1957    1.1202    0.9583 H.spc      1 <1>        0.000
     39 H           2.1269   -1.2440    1.4117 H.spc      1 <1>        0.000
     40 H           3.4769   -1.8566    0.0907 H.spc      1 <1>        0.000
     41 H           0.9095    0.2437    1.0029 H.spc      1 <1>        0.000
     42 H           0.7965    0.9739   -0.7222 H.spc      1 <1>        0.000
     43 H           2.7853   -0.4558   -1.1370 H.spc      1 <1>        0.000
     44 H           1.1164   -1.2282   -1.0089 H.spc      1 <1>        0.000
@<TRIPOS>BOND
     1   10    8 1  
     2    1    2 1  
     3    4    9 1  
     4    6    7 1  
     5    1    4 1  
     6    2    5 1  
     7    3    7 1  
     8    1    3 1  
     9    2    6 1  
    10    9   11 1  
    11    5   10 1  
    12   16   17 1  
    13   15   17 1  
    14   14   16 1  
    15   13   15 1  
    16   12   14 1  
    17    8   13 1  
    18   11   12 1  
    19    1   18 1  
    20    2   19 1  
    21    3   20 1  
    22    4   21 1  
    23    4   22 1  
    24    5   23 1  
    25    5   24 1  
    26    7   25 1  
    27    7   26 1  
    28    8   27 1  
    29    8   28 1  
    30    9   29 1  
    31    9   30 1  
    32   11   31 1  
    33   11   32 1  
    34   12   33 1  
    35   12   34 1  
    36   13   35 1  
    37   13   36 1  
    38   14   37 1  
    39   14   38 1  
    40   15   39 1  
    41   15   40 1  
    42   16   41 1  
    43   16   42 1  
    44   17   43 1  
    45   17   44 1  
# Name:          frag4-487-87/150395 -- energy: -4.231318
# Creation time: Sat Jun  5 12:53:38 2010


@<TRIPOS>MOLECULE
frag4-487-87/150395 -- energy: -4.231318
   44    45     1     1     1
SMALL
USER_CHARGES


@<TRIPOS>ATOM
      1 C1         -1.7718    0.2007    3.1277 C.3        1 <1>        0.000
      2 C2         -1.4206   -1.2768    2.8118 C.3        1 <1>        0.000
      3 N1         -2.3167    0.0138    4.4271 N.3        1 <1>        0.000
      4 C3         -0.8380    1.4097    3.1661 C.3        1 <1>        0.000
      5 C4          0.0312   -1.5533    2.5045 C.3        1 <1>        0.000
      6 O1         -1.9386   -2.1244    3.8399 O.3        1 <1>        0.000
      7 C6         -2.3215   -1.3146    4.8022 C.3        1 <1>        0.000
      8 C13         0.4001   -3.1127    0.8042 C.3        1 <1>        0.000
      9 C8          0.3171    1.6931    2.2441 C.3        1 <1>        0.000
     10 O2          0.3017   -2.8973    2.0981 O.3        1 <1>        0.000
     11 C12         1.7066    2.0639    2.6754 C.3        1 <1>        0.000
     12 C16         2.8749    2.2738    1.7315 C.3        1 <1>        0.000
     13 C18         0.6286   -2.2405   -0.3489 C.3        1 <1>        0.000
     14 C20         3.1858    1.2041    0.7024 C.3        1 <1>        0.000
     15 C21         1.7156   -1.2938   -0.5294 C.3        1 <1>        0.000
     16 C24         3.2470   -0.2303    1.1367 C.3        1 <1>        0.000
     17 C26         3.0753   -1.2682    0.0598 C.3        1 <1>        0.000
     18 H          -2.3141    0.5504    2.2492 H.spc      1 <1>        0.000
     19 H          -1.9109   -1.5087    1.8664 H.spc      1 <1>        0.000
     20 H          -1.7396    0.5298    5.0913 H.spc      1 <1>        0.000
     21 H          -1.5218    2.2196    2.9119 H.spc      1 <1>        0.000
     22 H          -0.3248    1.2569    4.1155 H.spc      1 <1>        0.000
     23 H           0.5923   -1.3769    3.4222 H.spc      1 <1>        0.000
     24 H           0.3123   -0.9048    1.6747 H.spc      1 <1>        0.000
     25 H          -1.6198   -1.4276    5.6286 H.spc      1 <1>        0.000
     26 H          -3.3445   -1.5792    5.0699 H.spc      1 <1>        0.000
     27 H          -0.6326   -3.3959    0.6005 H.spc      1 <1>        0.000
     28 H           1.3441   -3.6575    0.7944 H.spc      1 <1>        0.000
     29 H          -0.0135    2.5987    1.7354 H.spc      1 <1>        0.000
     30 H           0.4756    0.7236    1.7718 H.spc      1 <1>        0.000
     31 H           2.0181    1.1877    3.2441 H.spc      1 <1>        0.000
     32 H           1.5642    3.0584    3.0982 H.spc      1 <1>        0.000
     33 H           2.6120    3.1571    1.1495 H.spc      1 <1>        0.000
     34 H           3.7541    2.3102    2.3748 H.spc      1 <1>        0.000
     35 H           0.8433   -2.9682   -1.1315 H.spc      1 <1>        0.000
     36 H          -0.2315   -1.5736   -0.2896 H.spc      1 <1>        0.000
     37 H           2.3578    1.2473   -0.0051 H.spc      1 <1>        0.000
     38 H           4.1928    1.4345    0.3547 H.spc      1 <1>        0.000
     39 H           1.9629   -1.4828   -1.5740 H.spc      1 <1>        0.000
     40 H           1.2839   -0.4133   -0.0535 H.spc      1 <1>        0.000
     41 H           4.2477   -0.3797    1.5421 H.spc      1 <1>        0.000
     42 H           2.4151   -0.3718    1.8266 H.spc      1 <1>        0.000
     43 H           3.2525   -2.2429    0.5145 H.spc      1 <1>        0.000
     44 H           3.7738   -1.0262   -0.7413 H.spc      1 <1>        0.000
@<TRIPOS>BOND
     1   10    8 1  
     2    1    2 1  
     3    4    9 1  
     4    6    7 1  
     5    1    4 1  
     6    2    5 1  
     7    3    7 1  
     8    1    3 1  
     9    2    6 1  
    10    9   11 1  
    11    5   10 1  
    12   16   17 1  
    13   15   17 1  
    14   14   16 1  
    15   13   15 1  
    16   12   14 1  
    17    8   13 1  
    18   11   12 1  
    19    1   18 1  
    20    2   19 1  
    21    3   20 1  
    22    4   21 1  
    23    4   22 1  
    24    5   23 1  
    25    5   24 1  
    26    7   25 1  
    27    7   26 1  
    28    8   27 1  
    29    8   28 1  
    30    9   29 1  
    31    9   30 1  
    32   11   31 1  
    33   11   32 1  
    34   12   33 1  
    35   12   34 1  
    36   13   35 1  
    37   13   36 1  
    38   14   37 1  
    39   14   38 1  
    40   15   39 1  
    41   15   40 1  
    42   16   41 1  
    43   16   42 1  
    44   17   43 1  
    45   17   44 1  
# Name:          frag4-487-87/150395 -- energy: -3.586277
# Creation time: Sat Jun  5 12:53:38 2010


@<TRIPOS>MOLECULE
frag4-487-87/150395 -- energy: -3.586277
   44    45     1     1     1
SMALL
USER_CHARGES


@<TRIPOS>ATOM
      1 C1         -0.9273    0.3117    3.5542 C.3        1 <1>        0.000
      2 C2         -1.2366   -0.8400    2.5503 C.3        1 <1>        0.000
      3 N1         -1.9690    0.0468    4.4933 N.3        1 <1>        0.000
      4 C3          0.4083    0.5727    4.2300 C.3        1 <1>        0.000
      5 C4         -0.1917   -1.9393    2.4194 C.3        1 <1>        0.000
      6 O1         -2.5518   -1.3517    2.8148 O.3        1 <1>        0.000
      7 C6         -2.8763   -0.8801    4.0014 C.3        1 <1>        0.000
      8 C13         0.7340   -3.3403    0.8261 C.3        1 <1>        0.000
      9 C8          1.2368    1.7150    3.7401 C.3        1 <1>        0.000
     10 O2         -0.3598   -2.8956    1.3955 O.3        1 <1>        0.000
     11 C12         1.0413    2.7193    2.6692 C.3        1 <1>        0.000
     12 C16         1.6675    2.3295    1.3565 C.3        1 <1>        0.000
     13 C18         2.1608   -3.0757    0.9723 C.3        1 <1>        0.000
     14 C20         1.7687    0.8632    0.9947 C.3        1 <1>        0.000
     15 C21         2.9528   -2.1104    0.1875 C.3        1 <1>        0.000
     16 C24         2.5259    0.4291   -0.2386 C.3        1 <1>        0.000
     17 C26         2.4929   -1.0071   -0.7135 C.3        1 <1>        0.000
     18 H          -0.8665    1.2410    2.9878 H.spc      1 <1>        0.000
     19 H          -1.1950   -0.3867    1.5599 H.spc      1 <1>        0.000
     20 H          -1.5491   -0.3323    5.3420 H.spc      1 <1>        0.000
     21 H           0.1641    0.8176    5.2637 H.spc      1 <1>        0.000
     22 H           1.0060   -0.3185    4.0386 H.spc      1 <1>        0.000
     23 H          -0.2458   -2.5017    3.3516 H.spc      1 <1>        0.000
     24 H           0.7404   -1.4254    2.1844 H.spc      1 <1>        0.000
     25 H          -2.8955   -1.7208    4.6949 H.spc      1 <1>        0.000
     26 H          -3.8385   -0.3775    3.9031 H.spc      1 <1>        0.000
     27 H           0.5913   -2.8947   -0.1584 H.spc      1 <1>        0.000
     28 H           0.7198   -4.3535    1.2278 H.spc      1 <1>        0.000
     29 H           2.0631    1.1545    3.3029 H.spc      1 <1>        0.000
     30 H           1.1589    2.3700    4.6079 H.spc      1 <1>        0.000
     31 H           1.5171    3.6436    2.9968 H.spc      1 <1>        0.000
     32 H          -0.0317    2.8163    2.5037 H.spc      1 <1>        0.000
     33 H           1.0155    2.7606    0.5968 H.spc      1 <1>        0.000
     34 H           2.6999    2.6721    1.4265 H.spc      1 <1>        0.000
     35 H           2.2059   -2.6415    1.9711 H.spc      1 <1>        0.000
     36 H           2.5967   -4.0256    0.6629 H.spc      1 <1>        0.000
     37 H           2.3246    0.4203    1.8211 H.spc      1 <1>        0.000
     38 H           0.7395    0.5634    0.7975 H.spc      1 <1>        0.000
     39 H           3.4107   -1.5321    0.9900 H.spc      1 <1>        0.000
     40 H           3.4152   -2.7787   -0.5389 H.spc      1 <1>        0.000
     41 H           2.0509    0.9842   -1.0475 H.spc      1 <1>        0.000
     42 H           3.5710    0.5954    0.0227 H.spc      1 <1>        0.000
     43 H           3.1921   -1.0315   -1.5494 H.spc      1 <1>        0.000
     44 H           1.4351   -1.2139   -0.8758 H.spc      1 <1>        0.000
@<TRIPOS>BOND
     1   10    8 1  
     2    1    2 1  
     3    4    9 1  
     4    6    7 1  
     5    1    4 1  
     6    2    5 1  
     7    3    7 1  
     8    1    3 1  
     9    2    6 1  
    10    9   11 1  
    11    5   10 1  
    12   16   17 1  
    13   15   17 1  
    14   14   16 1  
    15   13   15 1  
    16   12   14 1  
    17    8   13 1  
    18   11   12 1  
    19    1   18 1  
    20    2   19 1  
    21    3   20 1  
    22    4   21 1  
    23    4   22 1  
    24    5   23 1  
    25    5   24 1  
    26    7   25 1  
    27    7   26 1  
    28    8   27 1  
    29    8   28 1  
    30    9   29 1  
    31    9   30 1  
    32   11   31 1  
    33   11   32 1  
    34   12   33 1  
    35   12   34 1  
    36   13   35 1  
    37   13   36 1  
    38   14   37 1  
    39   14   38 1  
    40   15   39 1  
    41   15   40 1  
    42   16   41 1  
    43   16   42 1  
    44   17   43 1  
    45   17   44 1  
# Name:          frag4-487-87/150395 -- energy: -7.009262
# Creation time: Sat Jun  5 12:53:38 2010


@<TRIPOS>MOLECULE
frag4-487-87/150395 -- energy: -7.009262
   44    45     1     1     1
SMALL
USER_CHARGES


@<TRIPOS>ATOM
      1 C1         -1.2233    0.3458    3.3030 C.3        1 <1>        0.000
      2 C2         -1.3439   -1.0398    2.6081 C.3        1 <1>        0.000
      3 N1         -2.4107    0.2933    4.1333 N.3        1 <1>        0.000
      4 C3          0.0022    0.7269    4.0933 C.3        1 <1>        0.000
      5 C4         -0.2106   -2.0592    2.8596 C.3        1 <1>        0.000
      6 O1         -2.6400   -1.5975    2.9156 O.3        1 <1>        0.000
      7 C6         -3.1854   -0.8296    3.8441 C.3        1 <1>        0.000
      8 C13         0.9313   -3.4299    1.3265 C.3        1 <1>        0.000
      9 C8          1.2990    0.9859    3.4049 C.3        1 <1>        0.000
     10 O2         -0.1431   -3.2422    2.0721 O.3        1 <1>        0.000
     11 C12         1.6677    1.9666    2.3471 C.3        1 <1>        0.000
     12 C16         2.9866    1.5870    1.7111 C.3        1 <1>        0.000
     13 C18         2.1560   -2.7037    1.0044 C.3        1 <1>        0.000
     14 C20         3.0998    1.5682    0.2048 C.3        1 <1>        0.000
     15 C21         2.3993   -1.4866    0.2186 C.3        1 <1>        0.000
     16 C24         2.0431    0.8770   -0.6343 C.3        1 <1>        0.000
     17 C26         1.4486   -0.4149   -0.1588 C.3        1 <1>        0.000
     18 H          -1.1266    1.1276    2.5496 H.spc      1 <1>        0.000
     19 H          -1.2320   -0.8393    1.5426 H.spc      1 <1>        0.000
     20 H          -2.1208    0.2437    5.1100 H.spc      1 <1>        0.000
     21 H          -0.2574    1.6847    4.5442 H.spc      1 <1>        0.000
     22 H           0.1999   -0.1447    4.7173 H.spc      1 <1>        0.000
     23 H          -0.3787   -2.4137    3.8766 H.spc      1 <1>        0.000
     24 H           0.7054   -1.5176    2.6234 H.spc      1 <1>        0.000
     25 H          -3.2760   -1.4190    4.7565 H.spc      1 <1>        0.000
     26 H          -4.1498   -0.4850    3.4709 H.spc      1 <1>        0.000
     27 H           0.4490   -3.3373    0.3534 H.spc      1 <1>        0.000
     28 H           1.3855   -4.2196    1.9250 H.spc      1 <1>        0.000
     29 H           1.3999    0.0579    2.8421 H.spc      1 <1>        0.000
     30 H           1.8762    1.3853    4.2388 H.spc      1 <1>        0.000
     31 H           1.7625    2.9548    2.7972 H.spc      1 <1>        0.000
     32 H           0.8925    1.9699    1.5809 H.spc      1 <1>        0.000
     33 H           3.6848    2.3593    2.0339 H.spc      1 <1>        0.000
     34 H           3.1571    0.5547    2.0168 H.spc      1 <1>        0.000
     35 H           2.4114   -2.3318    1.9966 H.spc      1 <1>        0.000
     36 H           2.6346   -3.4365    0.3547 H.spc      1 <1>        0.000
     37 H           3.0299    2.6169   -0.0839 H.spc      1 <1>        0.000
     38 H           4.0111    1.0028    0.0100 H.spc      1 <1>        0.000
     39 H           3.0620   -0.9413    0.8907 H.spc      1 <1>        0.000
     40 H           2.6166   -1.9173   -0.7588 H.spc      1 <1>        0.000
     41 H           1.2062    1.5751   -0.6541 H.spc      1 <1>        0.000
     42 H           2.5524    0.6210   -1.5634 H.spc      1 <1>        0.000
     43 H           0.8725   -0.8065   -0.9971 H.spc      1 <1>        0.000
     44 H           0.8931   -0.1739    0.7475 H.spc      1 <1>        0.000
@<TRIPOS>BOND
     1   10    8 1  
     2    1    2 1  
     3    4    9 1  
     4    6    7 1  
     5    1    4 1  
     6    2    5 1  
     7    3    7 1  
     8    1    3 1  
     9    2    6 1  
    10    9   11 1  
    11    5   10 1  
    12   16   17 1  
    13   15   17 1  
    14   14   16 1  
    15   13   15 1  
    16   12   14 1  
    17    8   13 1  
    18   11   12 1  
    19    1   18 1  
    20    2   19 1  
    21    3   20 1  
    22    4   21 1  
    23    4   22 1  
    24    5   23 1  
    25    5   24 1  
    26    7   25 1  
    27    7   26 1  
    28    8   27 1  
    29    8   28 1  
    30    9   29 1  
    31    9   30 1  
    32   11   31 1  
    33   11   32 1  
    34   12   33 1  
    35   12   34 1  
    36   13   35 1  
    37   13   36 1  
    38   14   37 1  
    39   14   38 1  
    40   15   39 1  
    41   15   40 1  
    42   16   41 1  
    43   16   42 1  
    44   17   43 1  
    45   17   44 1  
# Name:          frag4-487-87/150395 -- energy: -7.286696
# Creation time: Sat Jun  5 12:53:38 2010


@<TRIPOS>MOLECULE
frag4-487-87/150395 -- energy: -7.286696
   44    45     1     1     1
SMALL
USER_CHARGES


@<TRIPOS>ATOM
      1 C1         -1.5693    0.3452    3.3437 C.3        1 <1>        0.000
      2 C2         -1.5133   -1.1146    2.8114 C.3        1 <1>        0.000
      3 N1         -1.9242    0.0729    4.7021 N.3        1 <1>        0.000
      4 C3         -0.4273    1.3215    3.3146 C.3        1 <1>        0.000
      5 C4         -0.1760   -1.6521    2.2954 C.3        1 <1>        0.000
      6 O1         -2.0525   -2.0027    3.8101 O.3        1 <1>        0.000
      7 C6         -2.1560   -1.2759    4.9087 C.3        1 <1>        0.000
      8 C13         0.2354   -3.1550    0.5324 C.3        1 <1>        0.000
      9 C8          0.0247    1.9649    2.0422 C.3        1 <1>        0.000
     10 O2         -0.2234   -2.9501    1.7251 O.3        1 <1>        0.000
     11 C12         1.3659    2.2916    1.5049 C.3        1 <1>        0.000
     12 C16         2.5330    1.8341    2.3330 C.3        1 <1>        0.000
     13 C18         0.9694   -2.3613   -0.4431 C.3        1 <1>        0.000
     14 C20         3.0407    0.4141    2.1902 C.3        1 <1>        0.000
     15 C21         2.3188   -1.7887   -0.3512 C.3        1 <1>        0.000
     16 C24         3.6433   -0.0172    0.8636 C.3        1 <1>        0.000
     17 C26         2.7873   -0.3792   -0.3297 C.3        1 <1>        0.000
     18 H          -2.2073    0.9037    2.6588 H.spc      1 <1>        0.000
     19 H          -2.1157   -1.0776    1.9037 H.spc      1 <1>        0.000
     20 H          -1.1508    0.3620    5.3010 H.spc      1 <1>        0.000
     21 H          -0.7869    2.1580    3.9138 H.spc      1 <1>        0.000
     22 H           0.4313    0.7243    3.6216 H.spc      1 <1>        0.000
     23 H           0.4887   -1.7140    3.1571 H.spc      1 <1>        0.000
     24 H           0.1479   -0.9755    1.5046 H.spc      1 <1>        0.000
     25 H          -1.4029   -1.6340    5.6106 H.spc      1 <1>        0.000
     26 H          -3.1770   -1.3804    5.2757 H.spc      1 <1>        0.000
     27 H          -0.7165   -3.2135    0.0046 H.spc      1 <1>        0.000
     28 H           1.0243   -3.8632    0.7859 H.spc      1 <1>        0.000
     29 H          -0.3469    2.9751    2.2141 H.spc      1 <1>        0.000
     30 H          -0.2612    1.1832    1.3384 H.spc      1 <1>        0.000
     31 H           1.4246    3.3793    1.4657 H.spc      1 <1>        0.000
     32 H           1.4474    1.7762    0.5479 H.spc      1 <1>        0.000
     33 H           3.3646    2.4585    2.0064 H.spc      1 <1>        0.000
     34 H           2.1828    1.8996    3.3631 H.spc      1 <1>        0.000
     35 H           1.1194   -3.1007   -1.2298 H.spc      1 <1>        0.000
     36 H           0.3674   -1.4527   -0.4548 H.spc      1 <1>        0.000
     37 H           3.8544    0.3310    2.9107 H.spc      1 <1>        0.000
     38 H           2.1600   -0.2152    2.3186 H.spc      1 <1>        0.000
     39 H           2.5766   -2.0848    0.6656 H.spc      1 <1>        0.000
     40 H           2.7187   -2.1019   -1.3156 H.spc      1 <1>        0.000
     41 H           4.1848    0.8680    0.5298 H.spc      1 <1>        0.000
     42 H           4.1510   -0.9509    1.1058 H.spc      1 <1>        0.000
     43 H           3.4029   -0.2354   -1.2177 H.spc      1 <1>        0.000
     44 H           1.8986    0.2504   -0.2859 H.spc      1 <1>        0.000
@<TRIPOS>BOND
     1   10    8 1  
     2    1    2 1  
     3    4    9 1  
     4    6    7 1  
     5    1    4 1  
     6    2    5 1  
     7    3    7 1  
     8    1    3 1  
     9    2    6 1  
    10    9   11 1  
    11    5   10 1  
    12   16   17 1  
    13   15   17 1  
    14   14   16 1  
    15   13   15 1  
    16   12   14 1  
    17    8   13 1  
    18   11   12 1  
    19    1   18 1  
    20    2   19 1  
    21    3   20 1  
    22    4   21 1  
    23    4   22 1  
    24    5   23 1  
    25    5   24 1  
    26    7   25 1  
    27    7   26 1  
    28    8   27 1  
    29    8   28 1  
    30    9   29 1  
    31    9   30 1  
    32   11   31 1  
    33   11   32 1  
    34   12   33 1  
    35   12   34 1  
    36   13   35 1  
    37   13   36 1  
    38   14   37 1  
    39   14   38 1  
    40   15   39 1  
    41   15   40 1  
    42   16   41 1  
    43   16   42 1  
    44   17   43 1  
    45   17   44 1  
# Name:          frag4-487-87/150395 -- energy: -6.155470
# Creation time: Sat Jun  5 12:53:38 2010


@<TRIPOS>MOLECULE
frag4-487-87/150395 -- energy: -6.155470
   44    45     1     1     1
SMALL
USER_CHARGES


@<TRIPOS>ATOM
      1 C1         -1.1678    0.3147    3.3055 C.3        1 <1>        0.000
      2 C2         -1.6530   -0.8703    2.4529 C.3        1 <1>        0.000
      3 N1         -2.2879    0.3628    4.1967 N.3        1 <1>        0.000
      4 C3          0.1352    0.3055    4.0773 C.3        1 <1>        0.000
      5 C4         -0.5865   -1.7533    1.8352 C.3        1 <1>        0.000
      6 O1         -2.6764   -1.5965    3.1358 O.3        1 <1>        0.000
      7 C6         -3.0467   -0.8060    4.1204 C.3        1 <1>        0.000
      8 C13         1.4813   -2.8202    2.1175 C.3        1 <1>        0.000
      9 C8          1.4299    0.4696    3.3570 C.3        1 <1>        0.000
     10 O2          0.3217   -2.4937    2.6230 O.3        1 <1>        0.000
     11 C12         2.1300    1.6600    2.8080 C.3        1 <1>        0.000
     12 C16         1.6319    2.1909    1.4925 C.3        1 <1>        0.000
     13 C18         2.2574   -2.5877    0.9029 C.3        1 <1>        0.000
     14 C20         1.5624    1.2612    0.3078 C.3        1 <1>        0.000
     15 C21         1.9624   -1.8866   -0.3497 C.3        1 <1>        0.000
     16 C24         2.7930    0.5023   -0.1265 C.3        1 <1>        0.000
     17 C26         2.5894   -0.7055   -1.0031 C.3        1 <1>        0.000
     18 H          -0.9015    1.1490    2.6566 H.spc      1 <1>        0.000
     19 H          -2.0843   -0.4135    1.5621 H.spc      1 <1>        0.000
     20 H          -1.9402    0.4626    5.1504 H.spc      1 <1>        0.000
     21 H           0.0728    1.1782    4.7274 H.spc      1 <1>        0.000
     22 H           0.1887   -0.6938    4.5094 H.spc      1 <1>        0.000
     23 H           0.0522   -1.0486    1.3026 H.spc      1 <1>        0.000
     24 H          -1.1595   -2.5212    1.3155 H.spc      1 <1>        0.000
     25 H          -2.9099   -1.3520    5.0538 H.spc      1 <1>        0.000
     26 H          -4.0829   -0.5180    3.9430 H.spc      1 <1>        0.000
     27 H           1.2566   -3.8709    1.9340 H.spc      1 <1>        0.000
     28 H           2.0941   -2.2155    2.7860 H.spc      1 <1>        0.000
     29 H           1.1776   -0.0331    2.4234 H.spc      1 <1>        0.000
     30 H           2.1154    0.2192    4.1666 H.spc      1 <1>        0.000
     31 H           3.1601    1.3485    2.6349 H.spc      1 <1>        0.000
     32 H           1.9745    2.4597    3.5322 H.spc      1 <1>        0.000
     33 H           0.5988    2.4831    1.6809 H.spc      1 <1>        0.000
     34 H           2.3541    2.9558    1.2070 H.spc      1 <1>        0.000
     35 H           3.0138   -1.9141    1.3057 H.spc      1 <1>        0.000
     36 H           2.2999   -3.6092    0.5250 H.spc      1 <1>        0.000
     37 H           0.8561    0.4874    0.6087 H.spc      1 <1>        0.000
     38 H           1.3299    1.9107   -0.5361 H.spc      1 <1>        0.000
     39 H           2.2515   -2.6602   -1.0611 H.spc      1 <1>        0.000
     40 H           0.9947   -1.4566   -0.0914 H.spc      1 <1>        0.000
     41 H           3.3759    1.2039   -0.7232 H.spc      1 <1>        0.000
     42 H           3.2460    0.1268    0.7910 H.spc      1 <1>        0.000
     43 H           3.5820   -1.0231   -1.3226 H.spc      1 <1>        0.000
     44 H           1.9087   -0.3970   -1.7965 H.spc      1 <1>        0.000
@<TRIPOS>BOND
     1   10    8 1  
     2    1    2 1  
     3    4    9 1  
     4    6    7 1  
     5    1    4 1  
     6    2    5 1  
     7    3    7 1  
     8    1    3 1  
     9    2    6 1  
    10    9   11 1  
    11    5   10 1  
    12   16   17 1  
    13   15   17 1  
    14   14   16 1  
    15   13   15 1  
    16   12   14 1  
    17    8   13 1  
    18   11   12 1  
    19    1   18 1  
    20    2   19 1  
    21    3   20 1  
    22    4   21 1  
    23    4   22 1  
    24    5   23 1  
    25    5   24 1  
    26    7   25 1  
    27    7   26 1  
    28    8   27 1  
    29    8   28 1  
    30    9   29 1  
    31    9   30 1  
    32   11   31 1  
    33   11   32 1  
    34   12   33 1  
    35   12   34 1  
    36   13   35 1  
    37   13   36 1  
    38   14   37 1  
    39   14   38 1  
    40   15   39 1  
    41   15   40 1  
    42   16   41 1  
    43   16   42 1  
    44   17   43 1  
    45   17   44 1  
# Name:          frag4-487-87/150395 -- energy: -6.505982
# Creation time: Sat Jun  5 12:53:38 2010


@<TRIPOS>MOLECULE
frag4-487-87/150395 -- energy: -6.505982
   44    45     1     1     1
SMALL
USER_CHARGES


@<TRIPOS>ATOM
      1 C1         -1.4039    0.4247    3.4140 C.3        1 <1>        0.000
      2 C2         -1.5381   -0.9565    2.7199 C.3        1 <1>        0.000
      3 N1         -2.5659    0.3194    4.2469 N.3        1 <1>        0.000
      4 C3         -0.1836    0.7654    4.2638 C.3        1 <1>        0.000
      5 C4         -0.2767   -1.5592    2.1078 C.3        1 <1>        0.000
      6 O1         -2.2912   -1.8237    3.5866 O.3        1 <1>        0.000
      7 C6         -2.9534   -1.0150    4.3890 C.3        1 <1>        0.000
      8 C13         0.6167   -3.3962    0.9522 C.3        1 <1>        0.000
      9 C8          1.0791    1.2240    3.6190 C.3        1 <1>        0.000
     10 O2         -0.4097   -2.8472    1.5314 O.3        1 <1>        0.000
     11 C12         1.4063    2.0194    2.4099 C.3        1 <1>        0.000
     12 C16         2.7100    1.6585    1.7425 C.3        1 <1>        0.000
     13 C18         1.9647   -3.0040    0.5782 C.3        1 <1>        0.000
     14 C20         2.7868    1.6959    0.2372 C.3        1 <1>        0.000
     15 C21         2.6487   -1.7101    0.5699 C.3        1 <1>        0.000
     16 C24         2.2778    0.5341   -0.5840 C.3        1 <1>        0.000
     17 C26         3.0090   -0.7823   -0.5310 C.3        1 <1>        0.000
     18 H          -1.2998    1.2180    2.6738 H.spc      1 <1>        0.000
     19 H          -2.0938   -0.8033    1.7948 H.spc      1 <1>        0.000
     20 H          -2.3464    0.6985    5.1680 H.spc      1 <1>        0.000
     21 H          -0.5033    1.6161    4.8656 H.spc      1 <1>        0.000
     22 H           0.0843   -0.1773    4.7408 H.spc      1 <1>        0.000
     23 H           0.4357   -1.6657    2.9259 H.spc      1 <1>        0.000
     24 H           0.0141   -0.8927    1.2958 H.spc      1 <1>        0.000
     25 H          -2.7454   -1.3170    5.4155 H.spc      1 <1>        0.000
     26 H          -4.0116   -1.0854    4.1372 H.spc      1 <1>        0.000
     27 H           0.1997   -3.4600   -0.0528 H.spc      1 <1>        0.000
     28 H           0.8829   -4.0870    1.7523 H.spc      1 <1>        0.000
     29 H           1.4474    0.2559    3.2795 H.spc      1 <1>        0.000
     30 H           1.3941    1.9432    4.3750 H.spc      1 <1>        0.000
     31 H           1.4939    3.0575    2.7305 H.spc      1 <1>        0.000
     32 H           0.6170    1.8264    1.6834 H.spc      1 <1>        0.000
     33 H           3.4203    2.4126    2.0814 H.spc      1 <1>        0.000
     34 H           2.8863    0.6165    2.0096 H.spc      1 <1>        0.000
     35 H           2.5207   -3.4939    1.3776 H.spc      1 <1>        0.000
     36 H           1.9107   -3.1835   -0.4956 H.spc      1 <1>        0.000
     37 H           2.1413    2.5278   -0.0445 H.spc      1 <1>        0.000
     38 H           3.8550    1.7292    0.0231 H.spc      1 <1>        0.000
     39 H           1.8955   -1.1055    1.0752 H.spc      1 <1>        0.000
     40 H           3.6466   -2.0325    0.8670 H.spc      1 <1>        0.000
     41 H           1.2886    0.3196   -0.1797 H.spc      1 <1>        0.000
     42 H           2.3709    0.8628   -1.6191 H.spc      1 <1>        0.000
     43 H           4.0591   -0.5332   -0.3782 H.spc      1 <1>        0.000
     44 H           2.7525   -1.3023   -1.4540 H.spc      1 <1>        0.000
@<TRIPOS>BOND
     1   10    8 1  
     2    1    2 1  
     3    4    9 1  
     4    6    7 1  
     5    1    4 1  
     6    2    5 1  
     7    3    7 1  
     8    1    3 1  
     9    2    6 1  
    10    9   11 1  
    11    5   10 1  
    12   16   17 1  
    13   15   17 1  
    14   14   16 1  
    15   13   15 1  
    16   12   14 1  
    17    8   13 1  
    18   11   12 1  
    19    1   18 1  
    20    2   19 1  
    21    3   20 1  
    22    4   21 1  
    23    4   22 1  
    24    5   23 1  
    25    5   24 1  
    26    7   25 1  
    27    7   26 1  
    28    8   27 1  
    29    8   28 1  
    30    9   29 1  
    31    9   30 1  
    32   11   31 1  
    33   11   32 1  
    34   12   33 1  
    35   12   34 1  
    36   13   35 1  
    37   13   36 1  
    38   14   37 1  
    39   14   38 1  
    40   15   39 1  
    41   15   40 1  
    42   16   41 1  
    43   16   42 1  
    44   17   43 1  
    45   17   44 1  
# Name:          frag4-487-87/150395 -- energy: -7.729626
# Creation time: Sat Jun  5 12:53:38 2010


@<TRIPOS>MOLECULE
frag4-487-87/150395 -- energy: -7.729626
   44    45     1     1     1
SMALL
USER_CHARGES


@<TRIPOS>ATOM
      1 C1         -1.6192    0.2687    3.3430 C.3        1 <1>        0.000
      2 C2         -1.5248   -1.1874    2.8174 C.3        1 <1>        0.000
      3 N1         -2.3467    0.0353    4.5467 N.3        1 <1>        0.000
      4 C3         -0.4579    1.2084    3.5943 C.3        1 <1>        0.000
      5 C4         -0.1473   -1.8587    2.7815 C.3        1 <1>        0.000
      6 O1         -2.5064   -1.9817    3.5084 O.3        1 <1>        0.000
      7 C6         -2.8788   -1.2623    4.5551 C.3        1 <1>        0.000
      8 C13         0.3294   -3.3357    1.0011 C.3        1 <1>        0.000
      9 C8          0.4510    1.5986    2.4724 C.3        1 <1>        0.000
     10 O2         -0.0830   -3.1706    2.2200 O.3        1 <1>        0.000
     11 C12         1.9270    1.8206    2.4792 C.3        1 <1>        0.000
     12 C16         2.5803    2.2970    1.2103 C.3        1 <1>        0.000
     13 C18         0.8758   -2.4998   -0.0753 C.3        1 <1>        0.000
     14 C20         3.8553    1.6010    0.7855 C.3        1 <1>        0.000
     15 C21         2.1822   -1.7948   -0.1806 C.3        1 <1>        0.000
     16 C24         3.7797    0.1378    0.3973 C.3        1 <1>        0.000
     17 C26         2.4599   -0.3293   -0.2032 C.3        1 <1>        0.000
     18 H          -2.0097    0.8624    2.5165 H.spc      1 <1>        0.000
     19 H          -1.7340   -1.1191    1.7498 H.spc      1 <1>        0.000
     20 H          -1.7154    0.1398    5.3411 H.spc      1 <1>        0.000
     21 H          -0.9275    2.1434    3.9000 H.spc      1 <1>        0.000
     22 H           0.1849    0.6652    4.2870 H.spc      1 <1>        0.000
     23 H           0.1611   -1.9635    3.8217 H.spc      1 <1>        0.000
     24 H           0.4748   -1.2302    2.1442 H.spc      1 <1>        0.000
     25 H          -2.5128   -1.7651    5.4503 H.spc      1 <1>        0.000
     26 H          -3.9650   -1.1756    4.5284 H.spc      1 <1>        0.000
     27 H          -0.6400   -3.5409    0.5470 H.spc      1 <1>        0.000
     28 H           1.2397   -3.8898    1.2302 H.spc      1 <1>        0.000
     29 H           0.0992    2.6113    2.2753 H.spc      1 <1>        0.000
     30 H           0.3874    0.7082    1.8469 H.spc      1 <1>        0.000
     31 H           2.3639    0.8419    2.6775 H.spc      1 <1>        0.000
     32 H           2.0946    2.6163    3.2051 H.spc      1 <1>        0.000
     33 H           1.8592    2.1046    0.4158 H.spc      1 <1>        0.000
     34 H           2.8564    3.3358    1.3915 H.spc      1 <1>        0.000
     35 H           0.9991   -3.2498   -0.8566 H.spc      1 <1>        0.000
     36 H           0.2012   -1.6457   -0.0159 H.spc      1 <1>        0.000
     37 H           4.1789    2.1206   -0.1164 H.spc      1 <1>        0.000
     38 H           4.5044    1.6323    1.6606 H.spc      1 <1>        0.000
     39 H           2.6381   -2.0719    0.7699 H.spc      1 <1>        0.000
     40 H           2.4802   -2.0722   -1.1917 H.spc      1 <1>        0.000
     41 H           4.5358   -0.0129   -0.3732 H.spc      1 <1>        0.000
     42 H           3.9136   -0.4295    1.3183 H.spc      1 <1>        0.000
     43 H           2.4989   -0.0514   -1.2565 H.spc      1 <1>        0.000
     44 H           1.6795    0.1294    0.4039 H.spc      1 <1>        0.000
@<TRIPOS>BOND
     1   10    8 1  
     2    1    2 1  
     3    4    9 1  
     4    6    7 1  
     5    1    4 1  
     6    2    5 1  
     7    3    7 1  
     8    1    3 1  
     9    2    6 1  
    10    9   11 1  
    11    5   10 1  
    12   16   17 1  
    13   15   17 1  
    14   14   16 1  
    15   13   15 1  
    16   12   14 1  
    17    8   13 1  
    18   11   12 1  
    19    1   18 1  
    20    2   19 1  
    21    3   20 1  
    22    4   21 1  
    23    4   22 1  
    24    5   23 1  
    25    5   24 1  
    26    7   25 1  
    27    7   26 1  
    28    8   27 1  
    29    8   28 1  
    30    9   29 1  
    31    9   30 1  
    32   11   31 1  
    33   11   32 1  
    34   12   33 1  
    35   12   34 1  
    36   13   35 1  
    37   13   36 1  
    38   14   37 1  
    39   14   38 1  
    40   15   39 1  
    41   15   40 1  
    42   16   41 1  
    43   16   42 1  
    44   17   43 1  
    45   17   44 1  
# Name:          frag4-487-87/150395 -- energy: -4.909881
# Creation time: Sat Jun  5 12:53:38 2010


@<TRIPOS>MOLECULE
frag4-487-87/150395 -- energy: -4.909881
   44    45     1     1     1
SMALL
USER_CHARGES


@<TRIPOS>ATOM
      1 C1         -1.5591    0.1280    2.7503 C.3        1 <1>        0.000
      2 C2         -1.0715   -1.3440    2.9540 C.3        1 <1>        0.000
      3 N1         -2.6723    0.0541    3.6571 N.3        1 <1>        0.000
      4 C3         -0.8521    1.4386    3.0444 C.3        1 <1>        0.000
      5 C4          0.3585   -1.7684    2.6506 C.3        1 <1>        0.000
      6 O1         -1.5179   -1.7796    4.2410 O.3        1 <1>        0.000
      7 C6         -2.5176   -0.9834    4.5457 C.3        1 <1>        0.000
      8 C13         0.5691   -3.2881    0.9051 C.3        1 <1>        0.000
      9 C8          0.2464    1.9315    2.1236 C.3        1 <1>        0.000
     10 O2          0.5436   -3.1059    2.1912 O.3        1 <1>        0.000
     11 C12         1.6240    2.3953    2.4693 C.3        1 <1>        0.000
     12 C16         2.6220    1.2925    2.7210 C.3        1 <1>        0.000
     13 C18         0.5812   -2.4239   -0.2926 C.3        1 <1>        0.000
     14 C20         3.5831    0.9108    1.6040 C.3        1 <1>        0.000
     15 C21         1.6327   -1.5016   -0.7499 C.3        1 <1>        0.000
     16 C24         3.2612   -0.2376    0.6609 C.3        1 <1>        0.000
     17 C26         2.0452   -0.1711   -0.2224 C.3        1 <1>        0.000
     18 H          -1.5628    0.2741    1.6701 H.spc      1 <1>        0.000
     19 H          -1.5341   -1.8685    2.1179 H.spc      1 <1>        0.000
     20 H          -2.7256    0.9277    4.1809 H.spc      1 <1>        0.000
     21 H          -1.6340    2.1937    2.9638 H.spc      1 <1>        0.000
     22 H          -0.3524    1.2702    3.9984 H.spc      1 <1>        0.000
     23 H           0.9005   -1.6962    3.5936 H.spc      1 <1>        0.000
     24 H           0.6991   -1.1223    1.8415 H.spc      1 <1>        0.000
     25 H          -2.3103   -0.5520    5.5250 H.spc      1 <1>        0.000
     26 H          -3.4316   -1.5768    4.5237 H.spc      1 <1>        0.000
     27 H          -0.4355   -3.6948    0.7891 H.spc      1 <1>        0.000
     28 H           1.5862   -3.6720    0.8260 H.spc      1 <1>        0.000
     29 H          -0.1948    2.8600    1.7611 H.spc      1 <1>        0.000
     30 H           0.4725    1.0191    1.5717 H.spc      1 <1>        0.000
     31 H           1.5420    2.9637    3.3958 H.spc      1 <1>        0.000
     32 H           1.9899    2.9621    1.6132 H.spc      1 <1>        0.000
     33 H           3.2557    1.6614    3.5275 H.spc      1 <1>        0.000
     34 H           2.0212    0.4001    2.8962 H.spc      1 <1>        0.000
     35 H           0.6068   -3.1723   -1.0847 H.spc      1 <1>        0.000
     36 H          -0.2144   -1.7209   -0.0457 H.spc      1 <1>        0.000
     37 H           3.6032    1.7886    0.9581 H.spc      1 <1>        0.000
     38 H           4.4820    0.5830    2.1262 H.spc      1 <1>        0.000
     39 H           2.5199   -2.0872   -0.5088 H.spc      1 <1>        0.000
     40 H           1.2225   -1.2065   -1.7157 H.spc      1 <1>        0.000
     41 H           4.1006   -0.2616   -0.0341 H.spc      1 <1>        0.000
     42 H           3.0721   -1.0851    1.3198 H.spc      1 <1>        0.000
     43 H           2.2896    0.4621   -1.0753 H.spc      1 <1>        0.000
     44 H           1.2216    0.2176    0.3766 H.spc      1 <1>        0.000
@<TRIPOS>BOND
     1   10    8 1  
     2    1    2 1  
     3    4    9 1  
     4    6    7 1  
     5    1    4 1  
     6    2    5 1  
     7    3    7 1  
     8    1    3 1  
     9    2    6 1  
    10    9   11 1  
    11    5   10 1  
    12   16   17 1  
    13   15   17 1  
    14   14   16 1  
    15   13   15 1  
    16   12   14 1  
    17    8   13 1  
    18   11   12 1  
    19    1   18 1  
    20    2   19 1  
    21    3   20 1  
    22    4   21 1  
    23    4   22 1  
    24    5   23 1  
    25    5   24 1  
    26    7   25 1  
    27    7   26 1  
    28    8   27 1  
    29    8   28 1  
    30    9   29 1  
    31    9   30 1  
    32   11   31 1  
    33   11   32 1  
    34   12   33 1  
    35   12   34 1  
    36   13   35 1  
    37   13   36 1  
    38   14   37 1  
    39   14   38 1  
    40   15   39 1  
    41   15   40 1  
    42   16   41 1  
    43   16   42 1  
    44   17   43 1  
    45   17   44 1  
# Name:          frag4-487-87/150395 -- energy: -3.476593
# Creation time: Sat Jun  5 12:53:38 2010


@<TRIPOS>MOLECULE
frag4-487-87/150395 -- energy: -3.476593
   44    45     1     1     1
SMALL
USER_CHARGES


@<TRIPOS>ATOM
      1 C1         -1.4076    0.2811    3.3408 C.3        1 <1>        0.000
      2 C2         -1.2787   -1.1777    2.7918 C.3        1 <1>        0.000
      3 N1         -2.3256    0.0216    4.4185 N.3        1 <1>        0.000
      4 C3         -0.2057    1.1452    3.7834 C.3        1 <1>        0.000
      5 C4          0.0997   -1.8316    2.7212 C.3        1 <1>        0.000
      6 O1         -2.2131   -2.0341    3.4741 O.3        1 <1>        0.000
      7 C6         -2.7545   -1.3063    4.4278 C.3        1 <1>        0.000
      8 C13         0.2760   -3.1581    0.8015 C.3        1 <1>        0.000
      9 C8          0.1361    2.2608    2.8143 C.3        1 <1>        0.000
     10 O2          0.1591   -3.1063    2.1011 O.3        1 <1>        0.000
     11 C12         1.2957    2.4691    1.8963 C.3        1 <1>        0.000
     12 C16         2.3672    1.4120    1.9006 C.3        1 <1>        0.000
     13 C18         0.6625   -2.2179   -0.2596 C.3        1 <1>        0.000
     14 C20         3.2701    1.3083    0.6954 C.3        1 <1>        0.000
     15 C21         1.7543   -1.2226   -0.3279 C.3        1 <1>        0.000
     16 C24         3.9262   -0.0140    0.3732 C.3        1 <1>        0.000
     17 C26         3.1149   -1.2822    0.3007 C.3        1 <1>        0.000
     18 H          -1.6747    0.9459    2.5194 H.spc      1 <1>        0.000
     19 H          -1.5109   -1.0550    1.7339 H.spc      1 <1>        0.000
     20 H          -1.8464    0.2093    5.2992 H.spc      1 <1>        0.000
     21 H          -0.4715    1.6096    4.7330 H.spc      1 <1>        0.000
     22 H           0.6624    0.4887    3.8425 H.spc      1 <1>        0.000
     23 H           0.4184   -1.9805    3.7529 H.spc      1 <1>        0.000
     24 H           0.7191   -1.1700    2.1156 H.spc      1 <1>        0.000
     25 H          -2.4593   -1.7415    5.3826 H.spc      1 <1>        0.000
     26 H          -3.8330   -1.3056    4.2701 H.spc      1 <1>        0.000
     27 H          -0.7823   -3.2429    0.5546 H.spc      1 <1>        0.000
     28 H           1.1452   -3.8139    0.7507 H.spc      1 <1>        0.000
     29 H           0.3230    3.0656    3.5253 H.spc      1 <1>        0.000
     30 H          -0.6514    2.1057    2.0768 H.spc      1 <1>        0.000
     31 H           1.7803    3.3861    2.2315 H.spc      1 <1>        0.000
     32 H           0.8814    2.4696    0.8881 H.spc      1 <1>        0.000
     33 H           3.0240    1.6713    2.7309 H.spc      1 <1>        0.000
     34 H           1.8343    0.4621    1.9437 H.spc      1 <1>        0.000
     35 H           1.0051   -2.9226   -1.0173 H.spc      1 <1>        0.000
     36 H          -0.1981   -1.5493   -0.2387 H.spc      1 <1>        0.000
     37 H           2.6210    1.5113   -0.1564 H.spc      1 <1>        0.000
     38 H           4.0979    1.9844    0.9093 H.spc      1 <1>        0.000
     39 H           2.0142   -1.2754   -1.3851 H.spc      1 <1>        0.000
     40 H           1.3103   -0.3929    0.2222 H.spc      1 <1>        0.000
     41 H           4.3046    0.1174   -0.6405 H.spc      1 <1>        0.000
     42 H           4.6079   -0.1822    1.2069 H.spc      1 <1>        0.000
     43 H           2.9388   -1.5689    1.3375 H.spc      1 <1>        0.000
     44 H           3.6930   -1.9560   -0.3317 H.spc      1 <1>        0.000
@<TRIPOS>BOND
     1   10    8 1  
     2    1    2 1  
     3    4    9 1  
     4    6    7 1  
     5    1    4 1  
     6    2    5 1  
     7    3    7 1  
     8    1    3 1  
     9    2    6 1  
    10    9   11 1  
    11    5   10 1  
    12   16   17 1  
    13   15   17 1  
    14   14   16 1  
    15   13   15 1  
    16   12   14 1  
    17    8   13 1  
    18   11   12 1  
    19    1   18 1  
    20    2   19 1  
    21    3   20 1  
    22    4   21 1  
    23    4   22 1  
    24    5   23 1  
    25    5   24 1  
    26    7   25 1  
    27    7   26 1  
    28    8   27 1  
    29    8   28 1  
    30    9   29 1  
    31    9   30 1  
    32   11   31 1  
    33   11   32 1  
    34   12   33 1  
    35   12   34 1  
    36   13   35 1  
    37   13   36 1  
    38   14   37 1  
    39   14   38 1  
    40   15   39 1  
    41   15   40 1  
    42   16   41 1  
    43   16   42 1  
    44   17   43 1  
    45   17   44 1  
# Name:          frag4-487-87/150395 -- energy: -4.555397
# Creation time: Sat Jun  5 12:53:39 2010


@<TRIPOS>MOLECULE
frag4-487-87/150395 -- energy: -4.555397
   44    45     1     1     1
SMALL
USER_CHARGES


@<TRIPOS>ATOM
      1 C1         -1.6653    0.3251    3.1066 C.3        1 <1>        0.000
      2 C2         -1.2954   -1.1270    2.7099 C.3        1 <1>        0.000
      3 N1         -2.6112    0.0165    4.1329 N.3        1 <1>        0.000
      4 C3         -0.6630    1.3748    3.5602 C.3        1 <1>        0.000
      5 C4          0.1519   -1.5351    2.9302 C.3        1 <1>        0.000
      6 O1         -2.2005   -2.0499    3.3249 O.3        1 <1>        0.000
      7 C6         -2.8584   -1.3473    4.2292 C.3        1 <1>        0.000
      8 C13         0.8142   -3.2168    1.4606 C.3        1 <1>        0.000
      9 C8          0.3875    1.8807    2.6144 C.3        1 <1>        0.000
     10 O2          0.5260   -2.8713    2.6709 O.3        1 <1>        0.000
     11 C12         1.8690    2.0864    2.7867 C.3        1 <1>        0.000
     12 C16         2.8050    1.0943    2.1546 C.3        1 <1>        0.000
     13 C18         1.0360   -2.5741    0.1646 C.3        1 <1>        0.000
     14 C20         3.1709    1.2559    0.7032 C.3        1 <1>        0.000
     15 C21         1.3536   -1.2021   -0.2322 C.3        1 <1>        0.000
     16 C24         3.5521    0.0437   -0.1014 C.3        1 <1>        0.000
     17 C26         2.5040   -0.6063   -0.9622 C.3        1 <1>        0.000
     18 H          -1.9448    0.8725    2.2064 H.spc      1 <1>        0.000
     19 H          -1.4017   -1.1577    1.6255 H.spc      1 <1>        0.000
     20 H          -2.2264    0.3320    5.0233 H.spc      1 <1>        0.000
     21 H          -1.2722    2.2516    3.7800 H.spc      1 <1>        0.000
     22 H          -0.0980    0.8832    4.3522 H.spc      1 <1>        0.000
     23 H           0.3271   -1.3936    3.9967 H.spc      1 <1>        0.000
     24 H           0.7258   -0.9375    2.2219 H.spc      1 <1>        0.000
     25 H          -2.5294   -1.6782    5.2143 H.spc      1 <1>        0.000
     26 H          -3.9243   -1.5065    4.0660 H.spc      1 <1>        0.000
     27 H          -0.1393   -3.6871    1.2203 H.spc      1 <1>        0.000
     28 H           1.8458   -3.5169    1.6444 H.spc      1 <1>        0.000
     29 H           0.0672    2.9185    2.5217 H.spc      1 <1>        0.000
     30 H           0.3979    1.0613    1.8957 H.spc      1 <1>        0.000
     31 H           2.0467    2.0049    3.8590 H.spc      1 <1>        0.000
     32 H           2.0852    3.0361    2.2974 H.spc      1 <1>        0.000
     33 H           3.7443    1.2115    2.6951 H.spc      1 <1>        0.000
     34 H           2.2795    0.1408    2.2066 H.spc      1 <1>        0.000
     35 H           1.9769   -3.0533   -0.1060 H.spc      1 <1>        0.000
     36 H           0.0237   -2.6383   -0.2345 H.spc      1 <1>        0.000
     37 H           2.2639    1.6302    0.2284 H.spc      1 <1>        0.000
     38 H           4.0665    1.8771    0.7103 H.spc      1 <1>        0.000
     39 H           0.5735   -1.0494   -0.9780 H.spc      1 <1>        0.000
     40 H           1.5270   -0.7694    0.7531 H.spc      1 <1>        0.000
     41 H           4.3155    0.3924   -0.7970 H.spc      1 <1>        0.000
     42 H           3.8246   -0.7124    0.6349 H.spc      1 <1>        0.000
     43 H           2.9970   -1.4257   -1.4853 H.spc      1 <1>        0.000
     44 H           2.0946    0.1787   -1.5980 H.spc      1 <1>        0.000
@<TRIPOS>BOND
     1   10    8 1  
     2    1    2 1  
     3    4    9 1  
     4    6    7 1  
     5    1    4 1  
     6    2    5 1  
     7    3    7 1  
     8    1    3 1  
     9    2    6 1  
    10    9   11 1  
    11    5   10 1  
    12   16   17 1  
    13   15   17 1  
    14   14   16 1  
    15   13   15 1  
    16   12   14 1  
    17    8   13 1  
    18   11   12 1  
    19    1   18 1  
    20    2   19 1  
    21    3   20 1  
    22    4   21 1  
    23    4   22 1  
    24    5   23 1  
    25    5   24 1  
    26    7   25 1  
    27    7   26 1  
    28    8   27 1  
    29    8   28 1  
    30    9   29 1  
    31    9   30 1  
    32   11   31 1  
    33   11   32 1  
    34   12   33 1  
    35   12   34 1  
    36   13   35 1  
    37   13   36 1  
    38   14   37 1  
    39   14   38 1  
    40   15   39 1  
    41   15   40 1  
    42   16   41 1  
    43   16   42 1  
    44   17   43 1  
    45   17   44 1  
# Name:          frag4-487-87/150395 -- energy: -9.211720
# Creation time: Sat Jun  5 12:53:39 2010


@<TRIPOS>MOLECULE
frag4-487-87/150395 -- energy: -9.211720
   44    45     1     1     1
SMALL
USER_CHARGES


@<TRIPOS>ATOM
      1 C1         -1.5949    0.2656    3.8369 C.3        1 <1>        0.000
      2 C2         -1.9705   -0.6294    2.6296 C.3        1 <1>        0.000
      3 N1         -1.8613   -0.6855    4.8758 N.3        1 <1>        0.000
      4 C3         -0.2531    0.9688    3.9948 C.3        1 <1>        0.000
      5 C4         -0.8003   -1.0546    1.7663 C.3        1 <1>        0.000
      6 O1         -2.7256   -1.7592    3.0807 O.3        1 <1>        0.000
      7 C6         -2.4814   -1.8282    4.3713 C.3        1 <1>        0.000
      8 C13         1.0768   -2.4714    1.8121 C.3        1 <1>        0.000
      9 C8          0.1704    1.9897    2.9840 C.3        1 <1>        0.000
     10 O2          0.2400   -1.7196    2.4533 O.3        1 <1>        0.000
     11 C12         1.4358    2.2174    2.2083 C.3        1 <1>        0.000
     12 C16         1.9576    1.0295    1.4436 C.3        1 <1>        0.000
     13 C18         1.4234   -2.6984    0.4176 C.3        1 <1>        0.000
     14 C20         3.1774    1.0817    0.5571 C.3        1 <1>        0.000
     15 C21         1.9307   -1.7355   -0.5631 C.3        1 <1>        0.000
     16 C24         3.8605   -0.2275    0.1972 C.3        1 <1>        0.000
     17 C26         3.2909   -1.1962   -0.8121 C.3        1 <1>        0.000
     18 H          -2.1414    1.2068    3.7777 H.spc      1 <1>        0.000
     19 H          -2.5821   -0.0122    1.9714 H.spc      1 <1>        0.000
     20 H          -0.9751   -0.9583    5.3008 H.spc      1 <1>        0.000
     21 H          -0.3412    1.5248    4.9282 H.spc      1 <1>        0.000
     22 H           0.4870    0.1731    3.9100 H.spc      1 <1>        0.000
     23 H          -0.3698   -0.1438    1.3500 H.spc      1 <1>        0.000
     24 H          -1.1914   -1.7583    1.0315 H.spc      1 <1>        0.000
     25 H          -1.8074   -2.6690    4.5351 H.spc      1 <1>        0.000
     26 H          -3.4377   -1.9377    4.8827 H.spc      1 <1>        0.000
     27 H           0.6019   -3.4323    2.0101 H.spc      1 <1>        0.000
     28 H           1.9964   -1.9733    2.1192 H.spc      1 <1>        0.000
     29 H           0.2111    2.8639    3.6338 H.spc      1 <1>        0.000
     30 H          -0.4807    1.6932    2.1616 H.spc      1 <1>        0.000
     31 H           2.2029    2.4748    2.9387 H.spc      1 <1>        0.000
     32 H           1.2096    2.9851    1.4683 H.spc      1 <1>        0.000
     33 H           2.2592    0.3427    2.2345 H.spc      1 <1>        0.000
     34 H           1.1525    0.8188    0.7397 H.spc      1 <1>        0.000
     35 H           2.2848   -3.3577    0.5239 H.spc      1 <1>        0.000
     36 H           0.4442   -2.9256   -0.0039 H.spc      1 <1>        0.000
     37 H           2.8272    1.4929   -0.3897 H.spc      1 <1>        0.000
     38 H           3.9189    1.6471    1.1215 H.spc      1 <1>        0.000
     39 H           1.7980   -2.3187   -1.4743 H.spc      1 <1>        0.000
     40 H           1.4420   -0.8319   -0.1987 H.spc      1 <1>        0.000
     41 H           4.7931    0.0959   -0.2652 H.spc      1 <1>        0.000
     42 H           3.8289   -0.7907    1.1299 H.spc      1 <1>        0.000
     43 H           3.9546   -2.0606   -0.7921 H.spc      1 <1>        0.000
     44 H           3.2151   -0.6348   -1.7433 H.spc      1 <1>        0.000
@<TRIPOS>BOND
     1   10    8 1  
     2    1    2 1  
     3    4    9 1  
     4    6    7 1  
     5    1    4 1  
     6    2    5 1  
     7    3    7 1  
     8    1    3 1  
     9    2    6 1  
    10    9   11 1  
    11    5   10 1  
    12   16   17 1  
    13   15   17 1  
    14   14   16 1  
    15   13   15 1  
    16   12   14 1  
    17    8   13 1  
    18   11   12 1  
    19    1   18 1  
    20    2   19 1  
    21    3   20 1  
    22    4   21 1  
    23    4   22 1  
    24    5   23 1  
    25    5   24 1  
    26    7   25 1  
    27    7   26 1  
    28    8   27 1  
    29    8   28 1  
    30    9   29 1  
    31    9   30 1  
    32   11   31 1  
    33   11   32 1  
    34   12   33 1  
    35   12   34 1  
    36   13   35 1  
    37   13   36 1  
    38   14   37 1  
    39   14   38 1  
    40   15   39 1  
    41   15   40 1  
    42   16   41 1  
    43   16   42 1  
    44   17   43 1  
    45   17   44 1  
# Name:          frag4-487-87/150395 -- energy: -5.964051
# Creation time: Sat Jun  5 12:53:39 2010


@<TRIPOS>MOLECULE
frag4-487-87/150395 -- energy: -5.964051
   44    45     1     1     1
SMALL
USER_CHARGES


@<TRIPOS>ATOM
      1 C1         -1.1703    0.3481    2.8902 C.3        1 <1>        0.000
      2 C2         -0.8934   -1.1707    2.7077 C.3        1 <1>        0.000
      3 N1         -2.5619    0.2386    3.1944 N.3        1 <1>        0.000
      4 C3         -0.4890    1.2393    3.9052 C.3        1 <1>        0.000
      5 C4          0.5163   -1.7349    2.9187 C.3        1 <1>        0.000
      6 O1         -1.9002   -1.9169    3.4061 O.3        1 <1>        0.000
      7 C6         -2.8933   -1.0674    3.5869 C.3        1 <1>        0.000
      8 C13         0.9314   -3.5551    1.4517 C.3        1 <1>        0.000
      9 C8          0.8366    1.8605    3.6305 C.3        1 <1>        0.000
     10 O2          0.7303   -3.1043    2.6497 O.3        1 <1>        0.000
     11 C12         1.4435    2.5146    2.4391 C.3        1 <1>        0.000
     12 C16         2.8351    2.0285    2.1014 C.3        1 <1>        0.000
     13 C18         1.1552   -3.0489    0.0979 C.3        1 <1>        0.000
     14 C20         2.9863    0.7696    1.2970 C.3        1 <1>        0.000
     15 C21         1.1149   -1.6968   -0.4609 C.3        1 <1>        0.000
     16 C24         2.0414    0.5473    0.1280 C.3        1 <1>        0.000
     17 C26         2.1933   -0.7043   -0.6903 C.3        1 <1>        0.000
     18 H          -0.7781    0.8752    2.0205 H.spc      1 <1>        0.000
     19 H          -0.9512   -1.3001    1.6270 H.spc      1 <1>        0.000
     20 H          -2.7788    0.8745    3.9618 H.spc      1 <1>        0.000
     21 H          -1.1620    2.0919    3.9960 H.spc      1 <1>        0.000
     22 H          -0.2952    0.5742    4.7467 H.spc      1 <1>        0.000
     23 H           0.7193   -1.6145    3.9828 H.spc      1 <1>        0.000
     24 H           1.1505   -1.1993    2.2123 H.spc      1 <1>        0.000
     25 H          -3.1304   -1.0488    4.6506 H.spc      1 <1>        0.000
     26 H          -3.7341   -1.3985    2.9774 H.spc      1 <1>        0.000
     27 H          -0.0758   -3.9368    1.2843 H.spc      1 <1>        0.000
     28 H           1.9410   -3.9299    1.6202 H.spc      1 <1>        0.000
     29 H           1.4515    0.9609    3.6584 H.spc      1 <1>        0.000
     30 H           0.7474    2.7357    4.2741 H.spc      1 <1>        0.000
     31 H           1.5216    3.5785    2.6631 H.spc      1 <1>        0.000
     32 H           0.8067    2.2801    1.5861 H.spc      1 <1>        0.000
     33 H           3.2657    2.8140    1.4803 H.spc      1 <1>        0.000
     34 H           3.2978    1.8065    3.0630 H.spc      1 <1>        0.000
     35 H           2.2221   -3.2514    0.0036 H.spc      1 <1>        0.000
     36 H           0.2851   -3.4762   -0.4006 H.spc      1 <1>        0.000
     37 H           3.9812    0.8280    0.8556 H.spc      1 <1>        0.000
     38 H           2.7790   -0.0432    1.9931 H.spc      1 <1>        0.000
     39 H           0.8519   -1.9289   -1.4929 H.spc      1 <1>        0.000
     40 H           0.5555   -1.1870    0.3235 H.spc      1 <1>        0.000
     41 H           1.0491    0.4774    0.5735 H.spc      1 <1>        0.000
     42 H           2.2458    1.3654   -0.5627 H.spc      1 <1>        0.000
     43 H           3.1349   -1.1716   -0.4020 H.spc      1 <1>        0.000
     44 H           2.1542   -0.4154   -1.7406 H.spc      1 <1>        0.000
@<TRIPOS>BOND
     1   10    8 1  
     2    1    2 1  
     3    4    9 1  
     4    6    7 1  
     5    1    4 1  
     6    2    5 1  
     7    3    7 1  
     8    1    3 1  
     9    2    6 1  
    10    9   11 1  
    11    5   10 1  
    12   16   17 1  
    13   15   17 1  
    14   14   16 1  
    15   13   15 1  
    16   12   14 1  
    17    8   13 1  
    18   11   12 1  
    19    1   18 1  
    20    2   19 1  
    21    3   20 1  
    22    4   21 1  
    23    4   22 1  
    24    5   23 1  
    25    5   24 1  
    26    7   25 1  
    27    7   26 1  
    28    8   27 1  
    29    8   28 1  
    30    9   29 1  
    31    9   30 1  
    32   11   31 1  
    33   11   32 1  
    34   12   33 1  
    35   12   34 1  
    36   13   35 1  
    37   13   36 1  
    38   14   37 1  
    39   14   38 1  
    40   15   39 1  
    41   15   40 1  
    42   16   41 1  
    43   16   42 1  
    44   17   43 1  
    45   17   44 1  
# Name:          frag4-487-87/150395 -- energy: -5.986778
# Creation time: Sat Jun  5 12:53:39 2010


@<TRIPOS>MOLECULE
frag4-487-87/150395 -- energy: -5.986778
   44    45     1     1     1
SMALL
USER_CHARGES


@<TRIPOS>ATOM
      1 C1         -1.2401    0.4289    3.2675 C.3        1 <1>        0.000
      2 C2         -1.0337   -0.9975    2.7122 C.3        1 <1>        0.000
      3 N1         -2.5803    0.2925    3.7421 N.3        1 <1>        0.000
      4 C3         -0.3250    1.0278    4.3068 C.3        1 <1>        0.000
      5 C4          0.3120   -1.6774    2.9167 C.3        1 <1>        0.000
      6 O1         -2.1477   -1.8264    3.0799 O.3        1 <1>        0.000
      7 C6         -3.0248   -1.0243    3.6459 C.3        1 <1>        0.000
      8 C13         0.7350   -3.4783    1.4321 C.3        1 <1>        0.000
      9 C8          1.0020    1.4561    3.7943 C.3        1 <1>        0.000
     10 O2          0.3675   -3.0528    2.6005 O.3        1 <1>        0.000
     11 C12         1.4299    2.2993    2.6444 C.3        1 <1>        0.000
     12 C16         2.4558    1.6651    1.7336 C.3        1 <1>        0.000
     13 C18         1.2583   -2.9745    0.1672 C.3        1 <1>        0.000
     14 C20         2.0755    1.4426    0.2873 C.3        1 <1>        0.000
     15 C21         1.6724   -1.6440   -0.2971 C.3        1 <1>        0.000
     16 C24         2.9419    0.5378   -0.5543 C.3        1 <1>        0.000
     17 C26         2.9778   -0.9277   -0.2257 C.3        1 <1>        0.000
     18 H          -1.0077    1.1584    2.4916 H.spc      1 <1>        0.000
     19 H          -0.9981   -0.8529    1.6324 H.spc      1 <1>        0.000
     20 H          -2.6055    0.5710    4.7230 H.spc      1 <1>        0.000
     21 H          -0.8204    1.9205    4.6886 H.spc      1 <1>        0.000
     22 H          -0.1421    0.2535    5.0519 H.spc      1 <1>        0.000
     23 H           0.5348   -1.5996    3.9808 H.spc      1 <1>        0.000
     24 H           1.0104   -1.1809    2.2431 H.spc      1 <1>        0.000
     25 H          -3.2014   -1.3886    4.6579 H.spc      1 <1>        0.000
     26 H          -3.9222   -1.0261    3.0272 H.spc      1 <1>        0.000
     27 H          -0.2631   -3.7209    1.0673 H.spc      1 <1>        0.000
     28 H           1.6510   -3.9699    1.7600 H.spc      1 <1>        0.000
     29 H           1.3697    0.4913    3.4449 H.spc      1 <1>        0.000
     30 H           1.2946    2.1178    4.6096 H.spc      1 <1>        0.000
     31 H           1.8917    3.1929    3.0643 H.spc      1 <1>        0.000
     32 H           0.5415    2.4805    2.0394 H.spc      1 <1>        0.000
     33 H           3.2931    2.3625    1.7095 H.spc      1 <1>        0.000
     34 H           2.6325    0.6707    2.1435 H.spc      1 <1>        0.000
     35 H           2.2337   -3.4609    0.1810 H.spc      1 <1>        0.000
     36 H           0.3667   -3.0990   -0.4473 H.spc      1 <1>        0.000
     37 H           1.1016    0.9542    0.3207 H.spc      1 <1>        0.000
     38 H           2.1494    2.4241   -0.1809 H.spc      1 <1>        0.000
     39 H           1.6096   -1.8000   -1.3741 H.spc      1 <1>        0.000
     40 H           1.0880   -1.0244    0.3831 H.spc      1 <1>        0.000
     41 H           2.5225    0.5947   -1.5588 H.spc      1 <1>        0.000
     42 H           3.9610    0.8907   -0.3961 H.spc      1 <1>        0.000
     43 H           3.3121   -1.0018    0.8091 H.spc      1 <1>        0.000
     44 H           3.6241   -1.3931   -0.9699 H.spc      1 <1>        0.000
@<TRIPOS>BOND
     1   10    8 1  
     2    1    2 1  
     3    4    9 1  
     4    6    7 1  
     5    1    4 1  
     6    2    5 1  
     7    3    7 1  
     8    1    3 1  
     9    2    6 1  
    10    9   11 1  
    11    5   10 1  
    12   16   17 1  
    13   15   17 1  
    14   14   16 1  
    15   13   15 1  
    16   12   14 1  
    17    8   13 1  
    18   11   12 1  
    19    1   18 1  
    20    2   19 1  
    21    3   20 1  
    22    4   21 1  
    23    4   22 1  
    24    5   23 1  
    25    5   24 1  
    26    7   25 1  
    27    7   26 1  
    28    8   27 1  
    29    8   28 1  
    30    9   29 1  
    31    9   30 1  
    32   11   31 1  
    33   11   32 1  
    34   12   33 1  
    35   12   34 1  
    36   13   35 1  
    37   13   36 1  
    38   14   37 1  
    39   14   38 1  
    40   15   39 1  
    41   15   40 1  
    42   16   41 1  
    43   16   42 1  
    44   17   43 1  
    45   17   44 1  
# Name:          frag4-487-87/150395 -- energy: -7.521677
# Creation time: Sat Jun  5 12:53:39 2010


@<TRIPOS>MOLECULE
frag4-487-87/150395 -- energy: -7.521677
   44    45     1     1     1
SMALL
USER_CHARGES


@<TRIPOS>ATOM
      1 C1         -1.1317    0.3605    3.5816 C.3        1 <1>        0.000
      2 C2         -1.5744   -0.8298    2.6820 C.3        1 <1>        0.000
      3 N1         -2.0640    0.1733    4.6406 N.3        1 <1>        0.000
      4 C3          0.3022    0.4442    4.1267 C.3        1 <1>        0.000
      5 C4         -0.4637   -1.4896    1.8744 C.3        1 <1>        0.000
      6 O1         -2.4120   -1.7130    3.4424 O.3        1 <1>        0.000
      7 C6         -2.7387   -1.0351    4.5188 C.3        1 <1>        0.000
      8 C13         0.3556   -3.3461    0.8078 C.3        1 <1>        0.000
      9 C8          1.3717    0.9446    3.2051 C.3        1 <1>        0.000
     10 O2         -0.7095   -2.7221    1.2371 O.3        1 <1>        0.000
     11 C12         1.3576    2.1246    2.3096 C.3        1 <1>        0.000
     12 C16         1.2103    1.8495    0.8372 C.3        1 <1>        0.000
     13 C18         1.7466   -2.9346    0.5807 C.3        1 <1>        0.000
     14 C20         2.4028    1.4978   -0.0386 C.3        1 <1>        0.000
     15 C21         2.2692   -1.6035    0.2032 C.3        1 <1>        0.000
     16 C24         3.5478    0.6456    0.4598 C.3        1 <1>        0.000
     17 C26         3.4068   -0.8192    0.7847 C.3        1 <1>        0.000
     18 H          -1.1249    1.2874    3.0081 H.spc      1 <1>        0.000
     19 H          -2.1798   -0.4304    1.8683 H.spc      1 <1>        0.000
     20 H          -1.5532    0.1701    5.5235 H.spc      1 <1>        0.000
     21 H           0.2613    1.1650    4.9433 H.spc      1 <1>        0.000
     22 H           0.5822   -0.5813    4.3675 H.spc      1 <1>        0.000
     23 H           0.3181   -1.7052    2.6027 H.spc      1 <1>        0.000
     24 H          -0.2607   -0.7927    1.0613 H.spc      1 <1>        0.000
     25 H          -2.4747   -1.6455    5.3824 H.spc      1 <1>        0.000
     26 H          -3.8032   -0.8101    4.4530 H.spc      1 <1>        0.000
     27 H           0.0541   -3.5031   -0.2278 H.spc      1 <1>        0.000
     28 H           0.5127   -4.0150    1.6540 H.spc      1 <1>        0.000
     29 H           1.4003    0.1373    2.4733 H.spc      1 <1>        0.000
     30 H           2.1318    1.2478    3.9251 H.spc      1 <1>        0.000
     31 H           2.3277    2.6067    2.4307 H.spc      1 <1>        0.000
     32 H           0.4838    2.7100    2.5959 H.spc      1 <1>        0.000
     33 H           0.5938    0.9512    0.8043 H.spc      1 <1>        0.000
     34 H           0.8655    2.8006    0.4315 H.spc      1 <1>        0.000
     35 H           2.1557   -3.0363    1.5859 H.spc      1 <1>        0.000
     36 H           1.9850   -3.5084   -0.3149 H.spc      1 <1>        0.000
     37 H           1.9646    0.8943   -0.8335 H.spc      1 <1>        0.000
     38 H           2.8702    2.4636   -0.2307 H.spc      1 <1>        0.000
     39 H           2.6682   -1.8230   -0.7871 H.spc      1 <1>        0.000
     40 H           1.4282   -0.9733    0.4925 H.spc      1 <1>        0.000
     41 H           4.2396    0.6456   -0.3825 H.spc      1 <1>        0.000
     42 H           3.7835    1.0907    1.4265 H.spc      1 <1>        0.000
     43 H           3.2377   -0.8468    1.8611 H.spc      1 <1>        0.000
     44 H           4.3011   -1.2808    0.3661 H.spc      1 <1>        0.000
@<TRIPOS>BOND
     1   10    8 1  
     2    1    2 1  
     3    4    9 1  
     4    6    7 1  
     5    1    4 1  
     6    2    5 1  
     7    3    7 1  
     8    1    3 1  
     9    2    6 1  
    10    9   11 1  
    11    5   10 1  
    12   16   17 1  
    13   15   17 1  
    14   14   16 1  
    15   13   15 1  
    16   12   14 1  
    17    8   13 1  
    18   11   12 1  
    19    1   18 1  
    20    2   19 1  
    21    3   20 1  
    22    4   21 1  
    23    4   22 1  
    24    5   23 1  
    25    5   24 1  
    26    7   25 1  
    27    7   26 1  
    28    8   27 1  
    29    8   28 1  
    30    9   29 1  
    31    9   30 1  
    32   11   31 1  
    33   11   32 1  
    34   12   33 1  
    35   12   34 1  
    36   13   35 1  
    37   13   36 1  
    38   14   37 1  
    39   14   38 1  
    40   15   39 1  
    41   15   40 1  
    42   16   41 1  
    43   16   42 1  
    44   17   43 1  
    45   17   44 1  
# Name:          frag4-487-87/150395 -- energy: -4.299877
# Creation time: Sat Jun  5 12:53:39 2010


@<TRIPOS>MOLECULE
frag4-487-87/150395 -- energy: -4.299877
   44    45     1     1     1
SMALL
USER_CHARGES


@<TRIPOS>ATOM
      1 C1         -1.6235    0.3813    3.1009 C.3        1 <1>        0.000
      2 C2         -1.7600   -1.1022    2.6507 C.3        1 <1>        0.000
      3 N1         -1.8338    0.1855    4.5102 N.3        1 <1>        0.000
      4 C3         -0.4493    1.2737    2.6940 C.3        1 <1>        0.000
      5 C4         -0.4688   -1.7853    2.2038 C.3        1 <1>        0.000
      6 O1         -2.4993   -1.8125    3.6600 O.3        1 <1>        0.000
      7 C6         -2.4597   -1.0530    4.7321 C.3        1 <1>        0.000
      8 C13         0.4498   -3.4984    0.9429 C.3        1 <1>        0.000
      9 C8          0.9014    0.9954    3.2850 C.3        1 <1>        0.000
     10 O2         -0.5467   -3.0927    1.6671 O.3        1 <1>        0.000
     11 C12         2.2781    1.5133    3.0237 C.3        1 <1>        0.000
     12 C16         2.4110    2.3688    1.7904 C.3        1 <1>        0.000
     13 C18         1.7274   -2.9553    0.4699 C.3        1 <1>        0.000
     14 C20         2.3096    1.7411    0.4160 C.3        1 <1>        0.000
     15 C21         2.3390   -1.6253    0.5715 C.3        1 <1>        0.000
     16 C24         3.3048    0.6756    0.0056 C.3        1 <1>        0.000
     17 C26         2.7965   -0.6624   -0.4703 C.3        1 <1>        0.000
     18 H          -2.3084    1.0309    2.5559 H.spc      1 <1>        0.000
     19 H          -2.3209   -1.1187    1.7162 H.spc      1 <1>        0.000
     20 H          -0.9338    0.1986    4.9900 H.spc      1 <1>        0.000
     21 H          -0.3292    1.1148    1.6224 H.spc      1 <1>        0.000
     22 H          -0.7141    2.2706    3.0464 H.spc      1 <1>        0.000
     23 H           0.1292   -1.8845    3.1097 H.spc      1 <1>        0.000
     24 H          -0.0855   -1.1667    1.3923 H.spc      1 <1>        0.000
     25 H          -1.8841   -1.5827    5.4911 H.spc      1 <1>        0.000
     26 H          -3.4879   -0.8541    5.0342 H.spc      1 <1>        0.000
     27 H          -0.0656   -3.5144   -0.0174 H.spc      1 <1>        0.000
     28 H           0.8532   -4.2270    1.6461 H.spc      1 <1>        0.000
     29 H           1.0354   -0.0227    2.9193 H.spc      1 <1>        0.000
     30 H           0.7442    1.4334    4.2707 H.spc      1 <1>        0.000
     31 H           2.9191    0.6443    2.8753 H.spc      1 <1>        0.000
     32 H           2.5454    2.1413    3.8735 H.spc      1 <1>        0.000
     33 H           1.5626    3.0513    1.8406 H.spc      1 <1>        0.000
     34 H           3.4285    2.7569    1.8374 H.spc      1 <1>        0.000
     35 H           2.4058   -3.5113    1.1170 H.spc      1 <1>        0.000
     36 H           1.5442   -2.9836   -0.6042 H.spc      1 <1>        0.000
     37 H           1.3452    1.2331    0.4150 H.spc      1 <1>        0.000
     38 H           2.4848    2.5641   -0.2769 H.spc      1 <1>        0.000
     39 H           1.4957   -1.0672    0.9782 H.spc      1 <1>        0.000
     40 H           3.3020   -1.8996    1.0021 H.spc      1 <1>        0.000
     41 H           3.8267    1.0973   -0.8534 H.spc      1 <1>        0.000
     42 H           3.8664    0.4540    0.9131 H.spc      1 <1>        0.000
     43 H           3.6409   -1.1411   -0.9661 H.spc      1 <1>        0.000
     44 H           1.9193   -0.4465   -1.0802 H.spc      1 <1>        0.000
@<TRIPOS>BOND
     1   10    8 1  
     2    1    2 1  
     3    4    9 1  
     4    6    7 1  
     5    1    4 1  
     6    2    5 1  
     7    3    7 1  
     8    1    3 1  
     9    2    6 1  
    10    9   11 1  
    11    5   10 1  
    12   16   17 1  
    13   15   17 1  
    14   14   16 1  
    15   13   15 1  
    16   12   14 1  
    17    8   13 1  
    18   11   12 1  
    19    1   18 1  
    20    2   19 1  
    21    3   20 1  
    22    4   21 1  
    23    4   22 1  
    24    5   23 1  
    25    5   24 1  
    26    7   25 1  
    27    7   26 1  
    28    8   27 1  
    29    8   28 1  
    30    9   29 1  
    31    9   30 1  
    32   11   31 1  
    33   11   32 1  
    34   12   33 1  
    35   12   34 1  
    36   13   35 1  
    37   13   36 1  
    38   14   37 1  
    39   14   38 1  
    40   15   39 1  
    41   15   40 1  
    42   16   41 1  
    43   16   42 1  
    44   17   43 1  
    45   17   44 1  
# Name:          frag4-487-87/150395 -- energy: -6.212981
# Creation time: Sat Jun  5 12:53:39 2010


@<TRIPOS>MOLECULE
frag4-487-87/150395 -- energy: -6.212981
   44    45     1     1     1
SMALL
USER_CHARGES


@<TRIPOS>ATOM
      1 C1         -1.8180    0.2909    3.1638 C.3        1 <1>        0.000
      2 C2         -1.6409   -1.2185    2.8290 C.3        1 <1>        0.000
      3 N1         -1.9766    0.1836    4.5786 N.3        1 <1>        0.000
      4 C3         -0.9063    1.3827    2.6014 C.3        1 <1>        0.000
      5 C4         -0.4025   -1.6257    2.0417 C.3        1 <1>        0.000
      6 O1         -1.8494   -2.0006    4.0074 O.3        1 <1>        0.000
      7 C6         -1.9834   -1.1482    4.9971 C.3        1 <1>        0.000
      8 C13         0.2829   -3.2314    0.5046 C.3        1 <1>        0.000
      9 C8          0.3398    1.8574    3.2756 C.3        1 <1>        0.000
     10 O2         -0.3640   -2.9681    1.6076 O.3        1 <1>        0.000
     11 C12         1.5333    2.5502    2.7118 C.3        1 <1>        0.000
     12 C16         2.6497    1.6611    2.2121 C.3        1 <1>        0.000
     13 C18         1.0617   -2.4703   -0.4672 C.3        1 <1>        0.000
     14 C20         2.7381    1.3531    0.7295 C.3        1 <1>        0.000
     15 C21         2.4523   -2.0184   -0.3922 C.3        1 <1>        0.000
     16 C24         3.5592    0.1813    0.2328 C.3        1 <1>        0.000
     17 C26         3.2005   -1.2321    0.6198 C.3        1 <1>        0.000
     18 H          -2.6371    0.7441    2.6055 H.spc      1 <1>        0.000
     19 H          -2.4175   -1.4366    2.0960 H.spc      1 <1>        0.000
     20 H          -1.1926    0.6577    5.0270 H.spc      1 <1>        0.000
     21 H          -0.5272    0.9313    1.6845 H.spc      1 <1>        0.000
     22 H          -1.5447    2.2658    2.6257 H.spc      1 <1>        0.000
     23 H           0.4459   -1.4952    2.7135 H.spc      1 <1>        0.000
     24 H          -0.3942   -1.0109    1.1416 H.spc      1 <1>        0.000
     25 H          -1.1379   -1.2877    5.6707 H.spc      1 <1>        0.000
     26 H          -2.9455   -1.3410    5.4718 H.spc      1 <1>        0.000
     27 H          -0.5779   -3.4489   -0.1278 H.spc      1 <1>        0.000
     28 H           1.1021   -3.8022    0.9418 H.spc      1 <1>        0.000
     29 H           0.7845    0.9024    3.5554 H.spc      1 <1>        0.000
     30 H          -0.0685    2.6522    3.8999 H.spc      1 <1>        0.000
     31 H           1.9555    3.1391    3.5261 H.spc      1 <1>        0.000
     32 H           1.1791    3.1088    1.8454 H.spc      1 <1>        0.000
     33 H           3.5657    2.2060    2.4404 H.spc      1 <1>        0.000
     34 H           2.4749    0.6967    2.6890 H.spc      1 <1>        0.000
     35 H           1.1306   -3.1944   -1.2790 H.spc      1 <1>        0.000
     36 H           0.5392   -1.5142   -0.4370 H.spc      1 <1>        0.000
     37 H           1.7157    1.1021    0.4470 H.spc      1 <1>        0.000
     38 H           3.2331    2.2260    0.3040 H.spc      1 <1>        0.000
     39 H           2.9439   -2.9828   -0.2642 H.spc      1 <1>        0.000
     40 H           2.4464   -1.2951   -1.2076 H.spc      1 <1>        0.000
     41 H           3.4264    0.2028   -0.8489 H.spc      1 <1>        0.000
     42 H           4.5420    0.3376    0.6774 H.spc      1 <1>        0.000
     43 H           2.5467   -1.1534    1.4884 H.spc      1 <1>        0.000
     44 H           4.1447   -1.7545    0.7741 H.spc      1 <1>        0.000
@<TRIPOS>BOND
     1   10    8 1  
     2    1    2 1  
     3    4    9 1  
     4    6    7 1  
     5    1    4 1  
     6    2    5 1  
     7    3    7 1  
     8    1    3 1  
     9    2    6 1  
    10    9   11 1  
    11    5   10 1  
    12   16   17 1  
    13   15   17 1  
    14   14   16 1  
    15   13   15 1  
    16   12   14 1  
    17    8   13 1  
    18   11   12 1  
    19    1   18 1  
    20    2   19 1  
    21    3   20 1  
    22    4   21 1  
    23    4   22 1  
    24    5   23 1  
    25    5   24 1  
    26    7   25 1  
    27    7   26 1  
    28    8   27 1  
    29    8   28 1  
    30    9   29 1  
    31    9   30 1  
    32   11   31 1  
    33   11   32 1  
    34   12   33 1  
    35   12   34 1  
    36   13   35 1  
    37   13   36 1  
    38   14   37 1  
    39   14   38 1  
    40   15   39 1  
    41   15   40 1  
    42   16   41 1  
    43   16   42 1  
    44   17   43 1  
    45   17   44 1  
# Name:          frag4-487-87/150395 -- energy: -4.623252
# Creation time: Sat Jun  5 12:53:39 2010


@<TRIPOS>MOLECULE
frag4-487-87/150395 -- energy: -4.623252
   44    45     1     1     1
SMALL
USER_CHARGES


@<TRIPOS>ATOM
      1 C1         -1.5679    0.4332    3.5396 C.3        1 <1>        0.000
      2 C2         -1.4769   -0.9677    2.8442 C.3        1 <1>        0.000
      3 N1         -2.4769    0.0614    4.5797 N.3        1 <1>        0.000
      4 C3         -0.4154    1.2265    4.1277 C.3        1 <1>        0.000
      5 C4         -0.2410   -1.4870    2.1043 C.3        1 <1>        0.000
      6 O1         -1.9955   -1.9689    3.7407 O.3        1 <1>        0.000
      7 C6         -2.6495   -1.3083    4.6671 C.3        1 <1>        0.000
      8 C13         0.2319   -3.2596    0.5427 C.3        1 <1>        0.000
      9 C8          0.3900    2.0206    3.1714 C.3        1 <1>        0.000
     10 O2         -0.4711   -2.7664    1.5142 O.3        1 <1>        0.000
     11 C12         1.7414    1.7904    2.6190 C.3        1 <1>        0.000
     12 C16         1.8710    2.0428    1.1476 C.3        1 <1>        0.000
     13 C18         1.4056   -2.9012   -0.2229 C.3        1 <1>        0.000
     14 C20         3.1088    1.5530    0.4382 C.3        1 <1>        0.000
     15 C21         2.5923   -2.1433    0.1723 C.3        1 <1>        0.000
     16 C24         3.6058    0.1351    0.6420 C.3        1 <1>        0.000
     17 C26         3.2239   -0.9134   -0.3747 C.3        1 <1>        0.000
     18 H          -1.7792    1.1662    2.7610 H.spc      1 <1>        0.000
     19 H          -2.0702   -0.7542    1.9551 H.spc      1 <1>        0.000
     20 H          -2.0916    0.3874    5.4661 H.spc      1 <1>        0.000
     21 H          -0.8610    1.9431    4.8177 H.spc      1 <1>        0.000
     22 H           0.2652    0.4953    4.5638 H.spc      1 <1>        0.000
     23 H           0.5719   -1.5842    2.8239 H.spc      1 <1>        0.000
     24 H           0.0015   -0.7827    1.3086 H.spc      1 <1>        0.000
     25 H          -2.2670   -1.6295    5.6359 H.spc      1 <1>        0.000
     26 H          -3.7112   -1.5177    4.5366 H.spc      1 <1>        0.000
     27 H          -0.5024   -3.1146   -0.2497 H.spc      1 <1>        0.000
     28 H           0.6727   -4.0893    1.0954 H.spc      1 <1>        0.000
     29 H           0.5829    2.9057    3.7776 H.spc      1 <1>        0.000
     30 H          -0.2069    1.8897    2.2688 H.spc      1 <1>        0.000
     31 H           1.9741    0.7379    2.7810 H.spc      1 <1>        0.000
     32 H           2.4110    2.4895    3.1199 H.spc      1 <1>        0.000
     33 H           1.0462    1.4953    0.6914 H.spc      1 <1>        0.000
     34 H           1.8956    3.1278    1.0462 H.spc      1 <1>        0.000
     35 H           1.8463   -3.8864   -0.3752 H.spc      1 <1>        0.000
     36 H           0.9649   -2.2108   -0.9421 H.spc      1 <1>        0.000
     37 H           2.8454    1.5947   -0.6187 H.spc      1 <1>        0.000
     38 H           3.9094    2.1767    0.8359 H.spc      1 <1>        0.000
     39 H           2.2440   -1.7538    1.1289 H.spc      1 <1>        0.000
     40 H           3.3621   -2.8695   -0.0888 H.spc      1 <1>        0.000
     41 H           4.6924    0.2028    0.5880 H.spc      1 <1>        0.000
     42 H           3.1523   -0.1949    1.5766 H.spc      1 <1>        0.000
     43 H           4.1502   -1.2296   -0.8544 H.spc      1 <1>        0.000
     44 H           2.4849   -0.4526   -1.0301 H.spc      1 <1>        0.000
@<TRIPOS>BOND
     1   10    8 1  
     2    1    2 1  
     3    4    9 1  
     4    6    7 1  
     5    1    4 1  
     6    2    5 1  
     7    3    7 1  
     8    1    3 1  
     9    2    6 1  
    10    9   11 1  
    11    5   10 1  
    12   16   17 1  
    13   15   17 1  
    14   14   16 1  
    15   13   15 1  
    16   12   14 1  
    17    8   13 1  
    18   11   12 1  
    19    1   18 1  
    20    2   19 1  
    21    3   20 1  
    22    4   21 1  
    23    4   22 1  
    24    5   23 1  
    25    5   24 1  
    26    7   25 1  
    27    7   26 1  
    28    8   27 1  
    29    8   28 1  
    30    9   29 1  
    31    9   30 1  
    32   11   31 1  
    33   11   32 1  
    34   12   33 1  
    35   12   34 1  
    36   13   35 1  
    37   13   36 1  
    38   14   37 1  
    39   14   38 1  
    40   15   39 1  
    41   15   40 1  
    42   16   41 1  
    43   16   42 1  
    44   17   43 1  
    45   17   44 1  
# Name:          frag4-487-87/150395 -- energy: -5.448058
# Creation time: Sat Jun  5 12:53:39 2010


@<TRIPOS>MOLECULE
frag4-487-87/150395 -- energy: -5.448058
   44    45     1     1     1
SMALL
USER_CHARGES


@<TRIPOS>ATOM
      1 C1         -1.5806    0.2970    3.2167 C.3        1 <1>        0.000
      2 C2         -1.9786   -1.0192    2.4948 C.3        1 <1>        0.000
      3 N1         -1.6632   -0.1716    4.5609 N.3        1 <1>        0.000
      4 C3         -0.3842    1.0484    2.6886 C.3        1 <1>        0.000
      5 C4         -0.8631   -1.7975    1.7817 C.3        1 <1>        0.000
      6 O1         -2.7105   -1.8319    3.4161 O.3        1 <1>        0.000
      7 C6         -2.3899   -1.3642    4.6083 C.3        1 <1>        0.000
      8 C13         1.2773   -2.6832    1.8324 C.3        1 <1>        0.000
      9 C8          0.7590    1.5603    3.4884 C.3        1 <1>        0.000
     10 O2          0.2833   -2.1881    2.5142 O.3        1 <1>        0.000
     11 C12         2.1438    1.9020    3.0412 C.3        1 <1>        0.000
     12 C16         2.2783    2.2836    1.5806 C.3        1 <1>        0.000
     13 C18         1.5507   -2.9190    0.4189 C.3        1 <1>        0.000
     14 C20         2.1504    1.2677    0.4552 C.3        1 <1>        0.000
     15 C21         1.9489   -1.9735   -0.6285 C.3        1 <1>        0.000
     16 C24         3.0562    0.0585    0.4634 C.3        1 <1>        0.000
     17 C26         2.9986   -0.9223   -0.6796 C.3        1 <1>        0.000
     18 H          -2.2023    1.1768    3.0510 H.spc      1 <1>        0.000
     19 H          -2.5968   -0.7204    1.6482 H.spc      1 <1>        0.000
     20 H          -0.7218   -0.3383    4.9163 H.spc      1 <1>        0.000
     21 H           0.0987    0.2907    2.0715 H.spc      1 <1>        0.000
     22 H          -0.8409    1.9737    2.3374 H.spc      1 <1>        0.000
     23 H          -0.4882   -1.1134    1.0204 H.spc      1 <1>        0.000
     24 H          -1.3291   -2.7332    1.4728 H.spc      1 <1>        0.000
     25 H          -1.7634   -2.1110    5.0961 H.spc      1 <1>        0.000
     26 H          -3.3185   -1.1615    5.1418 H.spc      1 <1>        0.000
     27 H           1.1841   -3.7217    2.1500 H.spc      1 <1>        0.000
     28 H           1.9977   -1.8826    2.0006 H.spc      1 <1>        0.000
     29 H           0.9599    0.6996    4.1264 H.spc      1 <1>        0.000
     30 H           0.3867    2.5472    3.7631 H.spc      1 <1>        0.000
     31 H           2.7481    1.0065    3.1863 H.spc      1 <1>        0.000
     32 H           2.4526    2.7722    3.6204 H.spc      1 <1>        0.000
     33 H           1.4324    2.9509    1.4153 H.spc      1 <1>        0.000
     34 H           3.3125    2.6186    1.5017 H.spc      1 <1>        0.000
     35 H           2.4542   -3.5243    0.4915 H.spc      1 <1>        0.000
     36 H           0.5554   -3.1928    0.0689 H.spc      1 <1>        0.000
     37 H           1.1413    0.8665    0.5489 H.spc      1 <1>        0.000
     38 H           2.4144    1.8135   -0.4506 H.spc      1 <1>        0.000
     39 H           2.3625   -2.6742   -1.3537 H.spc      1 <1>        0.000
     40 H           1.0616   -1.3407   -0.6445 H.spc      1 <1>        0.000
     41 H           4.0651    0.4693    0.4239 H.spc      1 <1>        0.000
     42 H           2.7425   -0.5153    1.3354 H.spc      1 <1>        0.000
     43 H           3.9492   -1.4552   -0.6575 H.spc      1 <1>        0.000
     44 H           2.7761   -0.3279   -1.5657 H.spc      1 <1>        0.000
@<TRIPOS>BOND
     1   10    8 1  
     2    1    2 1  
     3    4    9 1  
     4    6    7 1  
     5    1    4 1  
     6    2    5 1  
     7    3    7 1  
     8    1    3 1  
     9    2    6 1  
    10    9   11 1  
    11    5   10 1  
    12   16   17 1  
    13   15   17 1  
    14   14   16 1  
    15   13   15 1  
    16   12   14 1  
    17    8   13 1  
    18   11   12 1  
    19    1   18 1  
    20    2   19 1  
    21    3   20 1  
    22    4   21 1  
    23    4   22 1  
    24    5   23 1  
    25    5   24 1  
    26    7   25 1  
    27    7   26 1  
    28    8   27 1  
    29    8   28 1  
    30    9   29 1  
    31    9   30 1  
    32   11   31 1  
    33   11   32 1  
    34   12   33 1  
    35   12   34 1  
    36   13   35 1  
    37   13   36 1  
    38   14   37 1  
    39   14   38 1  
    40   15   39 1  
    41   15   40 1  
    42   16   41 1  
    43   16   42 1  
    44   17   43 1  
    45   17   44 1  
# Name:          frag4-487-87/150395 -- energy: -5.275860
# Creation time: Sat Jun  5 12:53:39 2010


@<TRIPOS>MOLECULE
frag4-487-87/150395 -- energy: -5.275860
   44    45     1     1     1
SMALL
USER_CHARGES


@<TRIPOS>ATOM
      1 C1         -1.0494    0.3664    3.3903 C.3        1 <1>        0.000
      2 C2         -1.0676   -1.0190    2.6710 C.3        1 <1>        0.000
      3 N1         -2.2771    0.2385    4.1280 N.3        1 <1>        0.000
      4 C3          0.0959    0.8486    4.2572 C.3        1 <1>        0.000
      5 C4          0.0818   -2.0061    2.9137 C.3        1 <1>        0.000
      6 O1         -2.3376   -1.6529    2.8905 O.3        1 <1>        0.000
      7 C6         -2.9678   -0.9242    3.7938 C.3        1 <1>        0.000
      8 C13         0.5005   -3.3175    1.0383 C.3        1 <1>        0.000
      9 C8          1.0440    1.8602    3.6911 C.3        1 <1>        0.000
     10 O2          0.0069   -3.2436    2.2340 O.3        1 <1>        0.000
     11 C12         2.0537    1.7780    2.6035 C.3        1 <1>        0.000
     12 C16         1.6145    2.1583    1.2233 C.3        1 <1>        0.000
     13 C18         1.4759   -2.6201    0.2169 C.3        1 <1>        0.000
     14 C20         1.3178    1.1328    0.1410 C.3        1 <1>        0.000
     15 C21         2.6664   -1.8554    0.5719 C.3        1 <1>        0.000
     16 C24         2.4300    0.4141   -0.5873 C.3        1 <1>        0.000
     17 C26         3.2886   -0.6109    0.0762 C.3        1 <1>        0.000
     18 H          -0.9187    1.1515    2.6455 H.spc      1 <1>        0.000
     19 H          -0.9006   -0.7523    1.6274 H.spc      1 <1>        0.000
     20 H          -2.0497    0.2001    5.1216 H.spc      1 <1>        0.000
     21 H          -0.3774    1.3446    5.1046 H.spc      1 <1>        0.000
     22 H           0.7031   -0.0368    4.4455 H.spc      1 <1>        0.000
     23 H           0.0548   -2.2444    3.9770 H.spc      1 <1>        0.000
     24 H           0.9831   -1.5150    2.5468 H.spc      1 <1>        0.000
     25 H          -3.0661   -1.5253    4.6978 H.spc      1 <1>        0.000
     26 H          -3.9301   -0.6314    3.3739 H.spc      1 <1>        0.000
     27 H          -0.3896   -2.9875    0.5027 H.spc      1 <1>        0.000
     28 H           1.0744   -4.2327    1.1840 H.spc      1 <1>        0.000
     29 H           1.7093    1.9818    4.5459 H.spc      1 <1>        0.000
     30 H           0.3283    2.5352    3.2219 H.spc      1 <1>        0.000
     31 H           2.3351    0.7267    2.5429 H.spc      1 <1>        0.000
     32 H           2.8324    2.4922    2.8711 H.spc      1 <1>        0.000
     33 H           0.6469    2.6314    1.3908 H.spc      1 <1>        0.000
     34 H           2.4751    2.6973    0.8272 H.spc      1 <1>        0.000
     35 H           1.9442   -3.4718   -0.2765 H.spc      1 <1>        0.000
     36 H           0.8496   -1.8167   -0.1710 H.spc      1 <1>        0.000
     37 H           0.7953    0.3366    0.6714 H.spc      1 <1>        0.000
     38 H           0.8254    1.7120   -0.6401 H.spc      1 <1>        0.000
     39 H           2.3421   -1.4959    1.5485 H.spc      1 <1>        0.000
     40 H           3.4211   -2.5619    0.2264 H.spc      1 <1>        0.000
     41 H           1.9042   -0.1544   -1.3544 H.spc      1 <1>        0.000
     42 H           3.1310    1.2127   -0.8300 H.spc      1 <1>        0.000
     43 H           3.6769   -0.1173    0.9671 H.spc      1 <1>        0.000
     44 H           3.9865   -0.9346   -0.6960 H.spc      1 <1>        0.000
@<TRIPOS>BOND
     1   10    8 1  
     2    1    2 1  
     3    4    9 1  
     4    6    7 1  
     5    1    4 1  
     6    2    5 1  
     7    3    7 1  
     8    1    3 1  
     9    2    6 1  
    10    9   11 1  
    11    5   10 1  
    12   16   17 1  
    13   15   17 1  
    14   14   16 1  
    15   13   15 1  
    16   12   14 1  
    17    8   13 1  
    18   11   12 1  
    19    1   18 1  
    20    2   19 1  
    21    3   20 1  
    22    4   21 1  
    23    4   22 1  
    24    5   23 1  
    25    5   24 1  
    26    7   25 1  
    27    7   26 1  
    28    8   27 1  
    29    8   28 1  
    30    9   29 1  
    31    9   30 1  
    32   11   31 1  
    33   11   32 1  
    34   12   33 1  
    35   12   34 1  
    36   13   35 1  
    37   13   36 1  
    38   14   37 1  
    39   14   38 1  
    40   15   39 1  
    41   15   40 1  
    42   16   41 1  
    43   16   42 1  
    44   17   43 1  
    45   17   44 1  
# Name:          frag4-487-87/150395 -- energy: -7.390591
# Creation time: Sat Jun  5 12:53:39 2010


@<TRIPOS>MOLECULE
frag4-487-87/150395 -- energy: -7.390591
   44    45     1     1     1
SMALL
USER_CHARGES


@<TRIPOS>ATOM
      1 C1         -1.5288    0.1585    3.3339 C.3        1 <1>        0.000
      2 C2         -2.2065   -1.1270    2.7767 C.3        1 <1>        0.000
      3 N1         -1.5526   -0.1470    4.7253 N.3        1 <1>        0.000
      4 C3         -0.2547    0.5906    2.6522 C.3        1 <1>        0.000
      5 C4         -1.3765   -2.0340    1.8373 C.3        1 <1>        0.000
      6 O1         -2.8343   -1.8156    3.8549 O.3        1 <1>        0.000
      7 C6         -2.3973   -1.2455    4.9640 C.3        1 <1>        0.000
      8 C13         0.7711   -2.8998    1.3587 C.3        1 <1>        0.000
      9 C8          0.5777    1.7304    3.1156 C.3        1 <1>        0.000
     10 O2         -0.1625   -2.6575    2.2399 O.3        1 <1>        0.000
     11 C12         1.5610    2.5610    2.3567 C.3        1 <1>        0.000
     12 C16         2.1109    1.8854    1.1167 C.3        1 <1>        0.000
     13 C18         1.1423   -2.4679    0.0058 C.3        1 <1>        0.000
     14 C20         3.4942    1.2838    1.1597 C.3        1 <1>        0.000
     15 C21         2.1448   -1.4758   -0.4263 C.3        1 <1>        0.000
     16 C24         3.9124    0.3267    0.0648 C.3        1 <1>        0.000
     17 C26         3.4752   -1.1190    0.1175 C.3        1 <1>        0.000
     18 H          -2.0229    1.1072    3.1243 H.spc      1 <1>        0.000
     19 H          -2.9547   -0.7842    2.0621 H.spc      1 <1>        0.000
     20 H          -0.6081   -0.3776    5.0338 H.spc      1 <1>        0.000
     21 H           0.4027   -0.2666    2.7975 H.spc      1 <1>        0.000
     22 H          -0.6020    0.9238    1.6742 H.spc      1 <1>        0.000
     23 H          -1.0568   -1.3512    1.0501 H.spc      1 <1>        0.000
     24 H          -2.0414   -2.8781    1.6543 H.spc      1 <1>        0.000
     25 H          -1.8232   -1.9906    5.5148 H.spc      1 <1>        0.000
     26 H          -3.2657   -0.8817    5.5131 H.spc      1 <1>        0.000
     27 H           0.4558   -3.9103    1.0987 H.spc      1 <1>        0.000
     28 H           1.5897   -2.4122    1.8881 H.spc      1 <1>        0.000
     29 H           1.2446    1.2191    3.8098 H.spc      1 <1>        0.000
     30 H          -0.1957    2.4721    3.3150 H.spc      1 <1>        0.000
     31 H           2.4035    2.7526    3.0212 H.spc      1 <1>        0.000
     32 H           1.0402    3.4613    2.0305 H.spc      1 <1>        0.000
     33 H           1.4444    1.0414    0.9393 H.spc      1 <1>        0.000
     34 H           2.1738    2.6780    0.3711 H.spc      1 <1>        0.000
     35 H           1.5950   -3.3833   -0.3752 H.spc      1 <1>        0.000
     36 H           0.2244   -1.9649   -0.2985 H.spc      1 <1>        0.000
     37 H           4.1723    2.1320    1.0653 H.spc      1 <1>        0.000
     38 H           3.5140    0.6905    2.0739 H.spc      1 <1>        0.000
     39 H           2.4484   -1.9234   -1.3727 H.spc      1 <1>        0.000
     40 H           1.6027   -0.5578   -0.1995 H.spc      1 <1>        0.000
     41 H           3.4423    0.7210   -0.8361 H.spc      1 <1>        0.000
     42 H           4.9991    0.2857    0.1390 H.spc      1 <1>        0.000
     43 H           3.4236   -1.3624    1.1787 H.spc      1 <1>        0.000
     44 H           4.1907   -1.6557   -0.5055 H.spc      1 <1>        0.000
@<TRIPOS>BOND
     1   10    8 1  
     2    1    2 1  
     3    4    9 1  
     4    6    7 1  
     5    1    4 1  
     6    2    5 1  
     7    3    7 1  
     8    1    3 1  
     9    2    6 1  
    10    9   11 1  
    11    5   10 1  
    12   16   17 1  
    13   15   17 1  
    14   14   16 1  
    15   13   15 1  
    16   12   14 1  
    17    8   13 1  
    18   11   12 1  
    19    1   18 1  
    20    2   19 1  
    21    3   20 1  
    22    4   21 1  
    23    4   22 1  
    24    5   23 1  
    25    5   24 1  
    26    7   25 1  
    27    7   26 1  
    28    8   27 1  
    29    8   28 1  
    30    9   29 1  
    31    9   30 1  
    32   11   31 1  
    33   11   32 1  
    34   12   33 1  
    35   12   34 1  
    36   13   35 1  
    37   13   36 1  
    38   14   37 1  
    39   14   38 1  
    40   15   39 1  
    41   15   40 1  
    42   16   41 1  
    43   16   42 1  
    44   17   43 1  
    45   17   44 1  
# Name:          frag4-487-87/150395 -- energy: 2.601963
# Creation time: Sat Jun  5 12:53:39 2010


@<TRIPOS>MOLECULE
frag4-487-87/150395 -- energy: 2.601963
   44    45     1     1     1
SMALL
USER_CHARGES


@<TRIPOS>ATOM
      1 C1         -1.9711    0.2800    3.0815 C.3        1 <1>        0.000
      2 C2         -1.5084   -1.1763    2.8189 C.3        1 <1>        0.000
      3 N1         -2.3511    0.1297    4.4623 N.3        1 <1>        0.000
      4 C3         -1.1671    1.5714    3.0139 C.3        1 <1>        0.000
      5 C4         -0.0811   -1.3490    2.3791 C.3        1 <1>        0.000
      6 O1         -1.7984   -1.9998    3.9589 O.3        1 <1>        0.000
      7 C6         -2.0984   -1.1588    4.9240 C.3        1 <1>        0.000
      8 C13         0.5868   -2.9630    0.8697 C.3        1 <1>        0.000
      9 C8          0.1455    1.7214    2.3396 C.3        1 <1>        0.000
     10 O2          0.3451   -2.6624    2.1036 O.3        1 <1>        0.000
     11 C12         1.5064    1.7742    2.9570 C.3        1 <1>        0.000
     12 C16         2.5667    0.9003    2.3505 C.3        1 <1>        0.000
     13 C18         0.7689   -2.1977   -0.3620 C.3        1 <1>        0.000
     14 C20         2.9857    1.1241    0.9220 C.3        1 <1>        0.000
     15 C21         1.8581   -1.2626   -0.6600 C.3        1 <1>        0.000
     16 C24         3.8303    0.0703    0.2535 C.3        1 <1>        0.000
     17 C26         3.2585   -1.2546   -0.1590 C.3        1 <1>        0.000
     18 H          -2.6139    0.5035    2.2301 H.spc      1 <1>        0.000
     19 H          -2.0873   -1.4999    1.9539 H.spc      1 <1>        0.000
     20 H          -1.8051    0.7857    5.0208 H.spc      1 <1>        0.000
     21 H          -1.8112    2.2153    2.4150 H.spc      1 <1>        0.000
     22 H          -0.9121    1.7417    4.0599 H.spc      1 <1>        0.000
     23 H           0.5320   -1.0044    3.2119 H.spc      1 <1>        0.000
     24 H           0.0107   -0.8021    1.4407 H.spc      1 <1>        0.000
     25 H          -1.2438   -1.1085    5.5987 H.spc      1 <1>        0.000
     26 H          -3.0038   -1.5209    5.4110 H.spc      1 <1>        0.000
     27 H          -0.3681   -3.4300    0.6285 H.spc      1 <1>        0.000
     28 H           1.6097   -3.3202    0.9892 H.spc      1 <1>        0.000
     29 H           0.0594    2.7330    1.9430 H.spc      1 <1>        0.000
     30 H           0.2042    0.7815    1.7907 H.spc      1 <1>        0.000
     31 H           1.3817    1.4224    3.9811 H.spc      1 <1>        0.000
     32 H           1.8536    2.7987    2.8231 H.spc      1 <1>        0.000
     33 H           3.4625    1.1057    2.9365 H.spc      1 <1>        0.000
     34 H           2.1370   -0.1014    2.3586 H.spc      1 <1>        0.000
     35 H           0.9559   -2.9901   -1.0868 H.spc      1 <1>        0.000
     36 H          -0.0920   -1.5297   -0.3343 H.spc      1 <1>        0.000
     37 H           2.0574    1.1527    0.3515 H.spc      1 <1>        0.000
     38 H           3.6065    2.0198    0.9417 H.spc      1 <1>        0.000
     39 H           2.0251   -1.4809   -1.7148 H.spc      1 <1>        0.000
     40 H           1.4746   -0.3550   -0.1939 H.spc      1 <1>        0.000
     41 H           4.1202    0.5319   -0.6904 H.spc      1 <1>        0.000
     42 H           4.5666   -0.1913    1.0135 H.spc      1 <1>        0.000
     43 H           3.2548   -1.8691    0.7413 H.spc      1 <1>        0.000
     44 H           3.8732   -1.5965   -0.9917 H.spc      1 <1>        0.000
@<TRIPOS>BOND
     1   10    8 1  
     2    1    2 1  
     3    4    9 1  
     4    6    7 1  
     5    1    4 1  
     6    2    5 1  
     7    3    7 1  
     8    1    3 1  
     9    2    6 1  
    10    9   11 1  
    11    5   10 1  
    12   16   17 1  
    13   15   17 1  
    14   14   16 1  
    15   13   15 1  
    16   12   14 1  
    17    8   13 1  
    18   11   12 1  
    19    1   18 1  
    20    2   19 1  
    21    3   20 1  
    22    4   21 1  
    23    4   22 1  
    24    5   23 1  
    25    5   24 1  
    26    7   25 1  
    27    7   26 1  
    28    8   27 1  
    29    8   28 1  
    30    9   29 1  
    31    9   30 1  
    32   11   31 1  
    33   11   32 1  
    34   12   33 1  
    35   12   34 1  
    36   13   35 1  
    37   13   36 1  
    38   14   37 1  
    39   14   38 1  
    40   15   39 1  
    41   15   40 1  
    42   16   41 1  
    43   16   42 1  
    44   17   43 1  
    45   17   44 1  
