#      Rotatable Fragment
#      Build by yxyuan
#
# Name:          frag5-580-129/138278
# Creation time: Sat Jun  5 12:53:45 2010


@<TRIPOS>MOLECULE
frag5-580-129/138278
   23    24     1     1     1
SMALL
USER_CHARGES


@<TRIPOS>ATOM
      1 C1         -1.7629   -0.4243    0.1752 C.ar       1 <1>        0.000
      2 C2         -1.7844   -1.8235    0.0110 C.ar       1 <1>        0.000
      3 C3         -3.0216    0.3330    0.2067 C.3        1 <1>        0.000
      4 C4         -0.5452    0.2005    0.2834 C.ar       1 <1>        0.000
      5 C5         -0.5023   -2.4348   -0.0823 C.ar       1 <1>        0.000
      6 C6         -3.0640   -2.5267   -0.0884 C.3        1 <1>        0.000
      7 C8         -3.9450   -0.2793   -0.8163 C.3        1 <1>        0.000
      8 C9          0.6526   -0.4964    0.1197 C.ar       1 <1>        0.000
      9 C10         0.7545   -1.8499   -0.0573 C.ar       1 <1>        0.000
     10 C11        -4.0178   -1.7768   -0.9854 C.3        1 <1>        0.000
     11 O1          1.8849   -2.5354   -0.1704 O.3        1 <1>        0.000
     12 H          -2.8405    1.3829   -0.0234 H.spc      1 <1>        0.000
     13 H          -3.4690    0.2874    1.1996 H.spc      1 <1>        0.000
     14 H          -0.5133    1.2677    0.5027 H.spc      1 <1>        0.000
     15 H          -0.5097   -3.5196   -0.1888 H.spc      1 <1>        0.000
     16 H          -3.5024   -2.6021    0.9067 H.spc      1 <1>        0.000
     17 H          -2.8897   -3.5168   -0.5096 H.spc      1 <1>        0.000
     18 H          -4.9427    0.0009   -0.4783 H.spc      1 <1>        0.000
     19 H          -3.5622    0.0798   -1.7716 H.spc      1 <1>        0.000
     20 H           1.5771    0.0808    0.1338 H.spc      1 <1>        0.000
     21 H          -3.7481   -2.0050   -2.0166 H.spc      1 <1>        0.000
     22 H          -5.0291   -2.0887   -0.7244 H.spc      1 <1>        0.000
     23 H           1.6828   -3.4667   -0.2863 H.spc      1 <1>        0.000
@<TRIPOS>BOND
     1    2    6 1  
     2    7   10 1  
     3    1    4 ar 
     4    4    8 ar 
     5    8    9 ar 
     6    9   11 1  
     7    1    3 1  
     8    5    9 ar 
     9    1    2 ar 
    10    2    5 ar 
    11    3    7 1  
    12    6   10 1  
    13    3   12 1  
    14    3   13 1  
    15    4   14 1  
    16    5   15 1  
    17    6   16 1  
    18    6   17 1  
    19    7   18 1  
    20    7   19 1  
    21    8   20 1  
    22   10   21 1  
    23   10   22 1  
    24   11   23 1  
# Name:          frag5-580-129/138278 -- energy: -1.264339
# Creation time: Sat Jun  5 12:53:45 2010


@<TRIPOS>MOLECULE
frag5-580-129/138278 -- energy: -1.264339
   23    24     1     1     1
SMALL
USER_CHARGES


@<TRIPOS>ATOM
      1 C1         -1.7629   -0.4243    0.1752 C.ar       1 <1>        0.000
      2 C2         -1.7844   -1.8235    0.0110 C.ar       1 <1>        0.000
      3 C3         -3.0216    0.3330    0.2067 C.3        1 <1>        0.000
      4 C4         -0.5452    0.2005    0.2834 C.ar       1 <1>        0.000
      5 C5         -0.5023   -2.4348   -0.0823 C.ar       1 <1>        0.000
      6 C6         -3.0640   -2.5267   -0.0884 C.3        1 <1>        0.000
      7 C8         -3.9450   -0.2793   -0.8163 C.3        1 <1>        0.000
      8 C9          0.6526   -0.4964    0.1197 C.ar       1 <1>        0.000
      9 C10         0.7545   -1.8499   -0.0573 C.ar       1 <1>        0.000
     10 C11        -4.0178   -1.7768   -0.9854 C.3        1 <1>        0.000
     11 O1          1.8849   -2.5354   -0.1704 O.3        1 <1>        0.000
     12 H          -2.8405    1.3829   -0.0234 H.spc      1 <1>        0.000
     13 H          -3.4690    0.2874    1.1996 H.spc      1 <1>        0.000
     14 H          -0.5133    1.2677    0.5027 H.spc      1 <1>        0.000
     15 H          -0.5097   -3.5196   -0.1888 H.spc      1 <1>        0.000
     16 H          -3.5024   -2.6021    0.9067 H.spc      1 <1>        0.000
     17 H          -2.8897   -3.5168   -0.5096 H.spc      1 <1>        0.000
     18 H          -4.9427    0.0009   -0.4783 H.spc      1 <1>        0.000
     19 H          -3.5622    0.0798   -1.7716 H.spc      1 <1>        0.000
     20 H           1.5771    0.0808    0.1338 H.spc      1 <1>        0.000
     21 H          -3.7481   -2.0050   -2.0166 H.spc      1 <1>        0.000
     22 H          -5.0291   -2.0887   -0.7244 H.spc      1 <1>        0.000
     23 H           1.6828   -3.4667   -0.2863 H.spc      1 <1>        0.000
@<TRIPOS>BOND
     1    2    6 1  
     2    7   10 1  
     3    1    4 ar 
     4    4    8 ar 
     5    8    9 ar 
     6    9   11 1  
     7    1    3 1  
     8    5    9 ar 
     9    1    2 ar 
    10    2    5 ar 
    11    3    7 1  
    12    6   10 1  
    13    3   12 1  
    14    3   13 1  
    15    4   14 1  
    16    5   15 1  
    17    6   16 1  
    18    6   17 1  
    19    7   18 1  
    20    7   19 1  
    21    8   20 1  
    22   10   21 1  
    23   10   22 1  
    24   11   23 1  
