#      Rotatable Fragment
#      Build by yxyuan
#
# Name:          frag3-269-3/96164
# Creation time: Sat Jun  5 12:53:22 2010


@<TRIPOS>MOLECULE
frag3-269-3/96164
   12    11     1     1     1
SMALL
USER_CHARGES


@<TRIPOS>ATOM
      1 N2         -0.7707   -1.3799    0.4161 N.2        1 <1>        0.000
      2 C10         0.4636   -0.9477    0.3674 C.2        1 <1>        0.000
      3 N3          1.4971   -1.7869    0.5170 N.pl3      1 <1>        0.000
      4 N4          0.6596    0.3133    0.2002 N.am       1 <1>        0.000
      5 S2          2.0014    1.0941    0.3169 S.o2       1 <1>        0.000
      6 O2          2.5166    0.8179    1.6288 O.2        1 <1>        0.000
      7 O3          2.5928    1.0419   -0.9871 O.2        1 <1>        0.000
      8 H          -1.5452   -0.7228    0.3225 H.spc      1 <1>        0.000
      9 H           1.3286   -2.7809    0.6719 H.spc      1 <1>        0.000
     10 H           2.4524   -1.4318    0.4761 H.spc      1 <1>        0.000
     11 H          -0.1630    0.8677   -0.0373 H.spc      1 <1>        0.000
     12 H           2.1640    2.4078    0.4458 H.spc      1 <1>        0.000
@<TRIPOS>BOND
     1    1    2 2  
     2    2    3 1  
     3    2    4 1  
     4    4    5 1  
     5    5    6 2  
     6    5    7 2  
     7    1    8 1  
     8    3    9 1  
     9    3   10 1  
    10    4   11 1  
    11    5   12 1  
# Name:          frag3-269-3/96164
# Creation time: Sat Jun  5 12:53:22 2010


@<TRIPOS>MOLECULE
frag3-269-3/96164
   12    11     1     1     1
SMALL
USER_CHARGES


@<TRIPOS>ATOM
      1 N2         -0.6735   -1.4393    0.8233 N.2        1 <1>        0.000
      2 C10         0.4265   -1.0120    0.2586 C.2        1 <1>        0.000
      3 N3          1.1743   -1.8346   -0.5090 N.pl3      1 <1>        0.000
      4 N4          0.7879    0.1826    0.5299 N.am       1 <1>        0.000
      5 S2          2.2112    0.7965    0.5590 S.o2       1 <1>        0.000
      6 O2          2.8279    0.6032   -0.7158 O.2        1 <1>        0.000
      7 O3          2.2062    1.8563    1.5133 O.2        1 <1>        0.000
      8 H          -1.1982   -0.8259    1.4468 H.spc      1 <1>        0.000
      9 H           0.8833   -2.8014   -0.6540 H.spc      1 <1>        0.000
     10 H           2.0299   -1.4889   -0.9436 H.spc      1 <1>        0.000
     11 H           0.0306    0.8257    0.7608 H.spc      1 <1>        0.000
     12 H           3.3235    0.3156    1.1072 H.spc      1 <1>        0.000
@<TRIPOS>BOND
     1    1    2 2  
     2    2    3 1  
     3    2    4 1  
     4    4    5 1  
     5    5    6 2  
     6    5    7 2  
     7    1    8 1  
     8    3    9 1  
     9    3   10 1  
    10    4   11 1  
    11    5   12 1  
# Name:          frag3-269-3/96164
# Creation time: Sat Jun  5 12:53:22 2010


@<TRIPOS>MOLECULE
frag3-269-3/96164
   12    11     1     1     1
SMALL
USER_CHARGES


@<TRIPOS>ATOM
      1 N2         -0.4702   -0.8191   -0.3611 N.2        1 <1>        0.000
      2 C10         0.5910   -1.1854    0.4012 C.2        1 <1>        0.000
      3 N3          0.6991   -2.4000    0.8895 N.pl3      1 <1>        0.000
      4 N4          1.5313   -0.3778    0.7009 N.am       1 <1>        0.000
      5 S2          1.8994    1.1188    0.4008 S.o2       1 <1>        0.000
      6 O2          2.8357    1.4632    1.4453 O.2        1 <1>        0.000
      7 O3          1.8741    1.3531   -1.0172 O.2        1 <1>        0.000
      8 H          -0.5371    0.1341   -0.7178 H.spc      1 <1>        0.000
      9 H          -0.0247   -3.0928    0.6984 H.spc      1 <1>        0.000
     10 H           1.5068   -2.6504    1.4598 H.spc      1 <1>        0.000
     11 H           2.2314   -0.8231    1.2941 H.spc      1 <1>        0.000
     12 H           1.1280    2.1931    0.5414 H.spc      1 <1>        0.000
@<TRIPOS>BOND
     1    1    2 2  
     2    2    3 1  
     3    2    4 1  
     4    4    5 1  
     5    5    6 2  
     6    5    7 2  
     7    1    8 1  
     8    3    9 1  
     9    3   10 1  
    10    4   11 1  
    11    5   12 1  
# Name:          frag3-269-3/96164 -- energy: -0.818464
# Creation time: Sat Jun  5 12:53:22 2010


@<TRIPOS>MOLECULE
frag3-269-3/96164 -- energy: -0.818464
   12    11     1     1     1
SMALL
USER_CHARGES


@<TRIPOS>ATOM
      1 N2         -0.7707   -1.3799    0.4161 N.2        1 <1>        0.000
      2 C10         0.4636   -0.9477    0.3674 C.2        1 <1>        0.000
      3 N3          1.4971   -1.7869    0.5170 N.pl3      1 <1>        0.000
      4 N4          0.6596    0.3133    0.2002 N.am       1 <1>        0.000
      5 S2          2.0014    1.0941    0.3169 S.o2       1 <1>        0.000
      6 O2          2.5166    0.8179    1.6288 O.2        1 <1>        0.000
      7 O3          2.5928    1.0419   -0.9871 O.2        1 <1>        0.000
      8 H          -1.5452   -0.7228    0.3225 H.spc      1 <1>        0.000
      9 H           1.3286   -2.7809    0.6719 H.spc      1 <1>        0.000
     10 H           2.4524   -1.4318    0.4761 H.spc      1 <1>        0.000
     11 H          -0.1630    0.8677   -0.0373 H.spc      1 <1>        0.000
     12 H           2.1640    2.4078    0.4458 H.spc      1 <1>        0.000
@<TRIPOS>BOND
     1    1    2 2  
     2    2    3 1  
     3    2    4 1  
     4    4    5 1  
     5    5    6 2  
     6    5    7 2  
     7    1    8 1  
     8    3    9 1  
     9    3   10 1  
    10    4   11 1  
    11    5   12 1  
# Name:          frag3-269-3/96164 -- energy: -0.588980
# Creation time: Sat Jun  5 12:53:22 2010


@<TRIPOS>MOLECULE
frag3-269-3/96164 -- energy: -0.588980
   12    11     1     1     1
SMALL
USER_CHARGES


@<TRIPOS>ATOM
      1 N2         -0.6735   -1.4393    0.8233 N.2        1 <1>        0.000
      2 C10         0.4265   -1.0120    0.2586 C.2        1 <1>        0.000
      3 N3          1.1743   -1.8346   -0.5090 N.pl3      1 <1>        0.000
      4 N4          0.7879    0.1826    0.5299 N.am       1 <1>        0.000
      5 S2          2.2112    0.7965    0.5590 S.o2       1 <1>        0.000
      6 O2          2.8279    0.6032   -0.7158 O.2        1 <1>        0.000
      7 O3          2.2062    1.8563    1.5133 O.2        1 <1>        0.000
      8 H          -1.1982   -0.8259    1.4468 H.spc      1 <1>        0.000
      9 H           0.8833   -2.8014   -0.6540 H.spc      1 <1>        0.000
     10 H           2.0299   -1.4889   -0.9436 H.spc      1 <1>        0.000
     11 H           0.0306    0.8257    0.7608 H.spc      1 <1>        0.000
     12 H           3.3235    0.3156    1.1072 H.spc      1 <1>        0.000
@<TRIPOS>BOND
     1    1    2 2  
     2    2    3 1  
     3    2    4 1  
     4    4    5 1  
     5    5    6 2  
     6    5    7 2  
     7    1    8 1  
     8    3    9 1  
     9    3   10 1  
    10    4   11 1  
    11    5   12 1  
# Name:          frag3-269-3/96164 -- energy: -0.543532
# Creation time: Sat Jun  5 12:53:22 2010


@<TRIPOS>MOLECULE
frag3-269-3/96164 -- energy: -0.543532
   12    11     1     1     1
SMALL
USER_CHARGES


@<TRIPOS>ATOM
      1 N2         -0.4702   -0.8191   -0.3611 N.2        1 <1>        0.000
      2 C10         0.5910   -1.1854    0.4012 C.2        1 <1>        0.000
      3 N3          0.6991   -2.4000    0.8895 N.pl3      1 <1>        0.000
      4 N4          1.5313   -0.3778    0.7009 N.am       1 <1>        0.000
      5 S2          1.8994    1.1188    0.4008 S.o2       1 <1>        0.000
      6 O2          2.8357    1.4632    1.4453 O.2        1 <1>        0.000
      7 O3          1.8741    1.3531   -1.0172 O.2        1 <1>        0.000
      8 H          -0.5371    0.1341   -0.7178 H.spc      1 <1>        0.000
      9 H          -0.0247   -3.0928    0.6984 H.spc      1 <1>        0.000
     10 H           1.5068   -2.6504    1.4598 H.spc      1 <1>        0.000
     11 H           2.2314   -0.8231    1.2941 H.spc      1 <1>        0.000
     12 H           1.1280    2.1931    0.5414 H.spc      1 <1>        0.000
@<TRIPOS>BOND
     1    1    2 2  
     2    2    3 1  
     3    2    4 1  
     4    4    5 1  
     5    5    6 2  
     6    5    7 2  
     7    1    8 1  
     8    3    9 1  
     9    3   10 1  
    10    4   11 1  
    11    5   12 1  
