#      Rotatable Fragment
#      Build by yxyuan
#
# Name:          frag4-337-162/48856
# Creation time: Sat Jun  5 12:52:54 2010


@<TRIPOS>MOLECULE
frag4-337-162/48856
   20    21     1     1     1
SMALL
USER_CHARGES


@<TRIPOS>ATOM
      1 O1         -1.8015   -1.1547   -1.0615 O.3        1 <1>        0.000
      2 C1         -0.9004   -0.1805   -0.5546 C.3        1 <1>        0.000
      3 C2         -1.2986    1.2345   -0.9942 C.3        1 <1>        0.000
      4 C3         -2.7416    1.4932   -0.6252 C.3        1 <1>        0.000
      5 C4         -3.6565    0.2927   -0.4674 C.ar       1 <1>        0.000
      6 C5         -3.1099   -0.9951   -0.6978 C.ar       1 <1>        0.000
      7 C6         -3.9569   -2.1006   -0.5171 C.ar       1 <1>        0.000
      8 C7         -5.2892   -1.9483   -0.1510 C.ar       1 <1>        0.000
      9 C8         -5.8100   -0.6681    0.0500 C.ar       1 <1>        0.000
     10 C9         -4.9905    0.4526   -0.1082 C.ar       1 <1>        0.000
     11 H           0.0953   -0.3956   -0.9423 H.spc      1 <1>        0.000
     12 H          -0.9218   -0.2231    0.5344 H.spc      1 <1>        0.000
     13 H          -1.1791    1.3253   -2.0738 H.spc      1 <1>        0.000
     14 H          -0.6606    1.9624   -0.4930 H.spc      1 <1>        0.000
     15 H          -2.7110    1.9671    0.3559 H.spc      1 <1>        0.000
     16 H          -3.1556    2.0681   -1.4536 H.spc      1 <1>        0.000
     17 H          -3.5592   -3.1042   -0.6678 H.spc      1 <1>        0.000
     18 H          -5.9248   -2.8243   -0.0213 H.spc      1 <1>        0.000
     19 H          -6.8559   -0.5431    0.3303 H.spc      1 <1>        0.000
     20 H          -5.3966    1.4517    0.0499 H.spc      1 <1>        0.000
@<TRIPOS>BOND
     1    9   10 ar 
     2    4    5 1  
     3    8    9 ar 
     4    5   10 ar 
     5    7    8 ar 
     6    5    6 ar 
     7    6    7 ar 
     8    1    6 1  
     9    1    2 1  
    10    2    3 1  
    11    3    4 1  
    12    2   11 1  
    13    2   12 1  
    14    3   13 1  
    15    3   14 1  
    16    4   15 1  
    17    4   16 1  
    18    7   17 1  
    19    8   18 1  
    20    9   19 1  
    21   10   20 1  
# Name:          frag4-337-162/48856 -- energy: -1.014486
# Creation time: Sat Jun  5 12:52:54 2010


@<TRIPOS>MOLECULE
frag4-337-162/48856 -- energy: -1.014486
   20    21     1     1     1
SMALL
USER_CHARGES


@<TRIPOS>ATOM
      1 O1         -1.8015   -1.1547   -1.0615 O.3        1 <1>        0.000
      2 C1         -0.9004   -0.1805   -0.5546 C.3        1 <1>        0.000
      3 C2         -1.2986    1.2345   -0.9942 C.3        1 <1>        0.000
      4 C3         -2.7416    1.4932   -0.6252 C.3        1 <1>        0.000
      5 C4         -3.6565    0.2927   -0.4674 C.ar       1 <1>        0.000
      6 C5         -3.1099   -0.9951   -0.6978 C.ar       1 <1>        0.000
      7 C6         -3.9569   -2.1006   -0.5171 C.ar       1 <1>        0.000
      8 C7         -5.2892   -1.9483   -0.1510 C.ar       1 <1>        0.000
      9 C8         -5.8100   -0.6681    0.0500 C.ar       1 <1>        0.000
     10 C9         -4.9905    0.4526   -0.1082 C.ar       1 <1>        0.000
     11 H           0.0953   -0.3956   -0.9423 H.spc      1 <1>        0.000
     12 H          -0.9218   -0.2231    0.5344 H.spc      1 <1>        0.000
     13 H          -1.1791    1.3253   -2.0738 H.spc      1 <1>        0.000
     14 H          -0.6606    1.9624   -0.4930 H.spc      1 <1>        0.000
     15 H          -2.7110    1.9671    0.3559 H.spc      1 <1>        0.000
     16 H          -3.1556    2.0681   -1.4536 H.spc      1 <1>        0.000
     17 H          -3.5592   -3.1042   -0.6678 H.spc      1 <1>        0.000
     18 H          -5.9248   -2.8243   -0.0213 H.spc      1 <1>        0.000
     19 H          -6.8559   -0.5431    0.3303 H.spc      1 <1>        0.000
     20 H          -5.3966    1.4517    0.0499 H.spc      1 <1>        0.000
@<TRIPOS>BOND
     1    9   10 ar 
     2    4    5 1  
     3    8    9 ar 
     4    5   10 ar 
     5    7    8 ar 
     6    5    6 ar 
     7    6    7 ar 
     8    1    6 1  
     9    1    2 1  
    10    2    3 1  
    11    3    4 1  
    12    2   11 1  
    13    2   12 1  
    14    3   13 1  
    15    3   14 1  
    16    4   15 1  
    17    4   16 1  
    18    7   17 1  
    19    8   18 1  
    20    9   19 1  
    21   10   20 1  
