#      Rotatable Fragment
#      Build by yxyuan
#
# Name:          frag4-423-50/48856
# Creation time: Sat Jun  5 12:52:11 2010


@<TRIPOS>MOLECULE
frag4-423-50/48856
   36    40     1     1     1
SMALL
USER_CHARGES


@<TRIPOS>ATOM
      1 N1          4.3668    1.7758   -0.3019 N.4        1 <1>        0.000
      2 C1          3.3855    2.3581    0.6534 C.3        1 <1>        0.000
      3 C2          2.0843    2.7720   -0.1043 C.3        1 <1>        0.000
      4 C3          1.5099    1.4890   -0.7508 C.3        1 <1>        0.000
      5 C4          0.0666    1.5478   -1.3586 C.3        1 <1>        0.000
      6 O1         -0.6174    0.3244   -0.9898 O.3        1 <1>        0.000
      7 C5          0.0192   -0.0841    0.1538 C.ar       1 <1>        0.000
      8 C6          1.2145    0.5778    0.4123 C.ar       1 <1>        0.000
      9 C15         1.0419    3.3618    0.8101 C.2        1 <1>        0.000
     10 C7          1.9391    0.4379    1.5966 C.ar       1 <1>        0.000
     11 C8          1.5131   -0.5816    2.4544 C.ar       1 <1>        0.000
     12 C9          0.3580   -1.3251    2.1757 C.ar       1 <1>        0.000
     13 C10        -0.4083   -1.0640    1.0378 C.ar       1 <1>        0.000
     14 C12         3.0867    1.3981    1.8571 C.3        1 <1>        0.000
     15 C13        -0.7191    2.7818   -0.8429 C.3        1 <1>        0.000
     16 C14        -0.2550    3.3426    0.4755 C.2        1 <1>        0.000
     17 C18         2.5329    0.8216   -1.6985 C.3        1 <1>        0.000
     18 C19         3.8688    0.5585   -0.9836 C.3        1 <1>        0.000
     19 H           4.5523    2.4769   -1.0191 H.spc      1 <1>        0.000
     20 H           5.1968    1.5137    0.2300 H.spc      1 <1>        0.000
     21 H           3.8275    3.2538    1.0897 H.spc      1 <1>        0.000
     22 H           2.3346    3.5376   -0.8387 H.spc      1 <1>        0.000
     23 H           0.1305    1.6435   -2.4425 H.spc      1 <1>        0.000
     24 H           1.3471    3.8097    1.7558 H.spc      1 <1>        0.000
     25 H           2.0885   -0.8013    3.3537 H.spc      1 <1>        0.000
     26 H           0.0533   -2.1191    2.8575 H.spc      1 <1>        0.000
     27 H          -1.3261   -1.6203    0.8476 H.spc      1 <1>        0.000
     28 H           2.8078    2.0182    2.7090 H.spc      1 <1>        0.000
     29 H           3.9816    0.7999    2.0287 H.spc      1 <1>        0.000
     30 H          -1.7483    2.4546   -0.6955 H.spc      1 <1>        0.000
     31 H          -0.5779    3.5703   -1.5821 H.spc      1 <1>        0.000
     32 H          -0.9911    3.7419    1.1732 H.spc      1 <1>        0.000
     33 H           2.7153    1.4913   -2.5389 H.spc      1 <1>        0.000
     34 H           2.1249   -0.1322   -2.0330 H.spc      1 <1>        0.000
     35 H           3.7133   -0.2181   -0.2348 H.spc      1 <1>        0.000
     36 H           4.6048    0.2530   -1.7273 H.spc      1 <1>        0.000
@<TRIPOS>BOND
     1    5    6 1  
     2    8   10 ar 
     3    1   18 1  
     4    4   17 1  
     5    4    5 1  
     6    4    8 1  
     7    6    7 1  
     8    5   15 1  
     9    2   14 1  
    10    3    4 1  
    11    3    9 1  
    12    2    3 1  
    13    1    2 1  
    14    7   13 ar 
    15    7    8 ar 
    16   17   18 1  
    17   16    9 2  
    18   15   16 1  
    19   12   13 ar 
    20   11   12 ar 
    21   10   11 ar 
    22   10   14 1  
    23    1   19 1  
    24    1   20 1  
    25    2   21 1  
    26    3   22 1  
    27    5   23 1  
    28    9   24 1  
    29   11   25 1  
    30   12   26 1  
    31   13   27 1  
    32   14   28 1  
    33   14   29 1  
    34   15   30 1  
    35   15   31 1  
    36   16   32 1  
    37   17   33 1  
    38   17   34 1  
    39   18   35 1  
    40   18   36 1  
# Name:          frag4-423-50/48856 -- energy: -6.525820
# Creation time: Sat Jun  5 12:52:11 2010


@<TRIPOS>MOLECULE
frag4-423-50/48856 -- energy: -6.525820
   36    40     1     1     1
SMALL
USER_CHARGES


@<TRIPOS>ATOM
      1 N1          4.3668    1.7758   -0.3019 N.4        1 <1>        0.000
      2 C1          3.3855    2.3581    0.6534 C.3        1 <1>        0.000
      3 C2          2.0843    2.7720   -0.1043 C.3        1 <1>        0.000
      4 C3          1.5099    1.4890   -0.7508 C.3        1 <1>        0.000
      5 C4          0.0666    1.5478   -1.3586 C.3        1 <1>        0.000
      6 O1         -0.6174    0.3244   -0.9898 O.3        1 <1>        0.000
      7 C5          0.0192   -0.0841    0.1538 C.ar       1 <1>        0.000
      8 C6          1.2145    0.5778    0.4123 C.ar       1 <1>        0.000
      9 C15         1.0419    3.3618    0.8101 C.2        1 <1>        0.000
     10 C7          1.9391    0.4379    1.5966 C.ar       1 <1>        0.000
     11 C8          1.5131   -0.5816    2.4544 C.ar       1 <1>        0.000
     12 C9          0.3580   -1.3251    2.1757 C.ar       1 <1>        0.000
     13 C10        -0.4083   -1.0640    1.0378 C.ar       1 <1>        0.000
     14 C12         3.0867    1.3981    1.8571 C.3        1 <1>        0.000
     15 C13        -0.7191    2.7818   -0.8429 C.3        1 <1>        0.000
     16 C14        -0.2550    3.3426    0.4755 C.2        1 <1>        0.000
     17 C18         2.5329    0.8216   -1.6985 C.3        1 <1>        0.000
     18 C19         3.8688    0.5585   -0.9836 C.3        1 <1>        0.000
     19 H           4.5523    2.4769   -1.0191 H.spc      1 <1>        0.000
     20 H           5.1968    1.5137    0.2300 H.spc      1 <1>        0.000
     21 H           3.8275    3.2538    1.0897 H.spc      1 <1>        0.000
     22 H           2.3346    3.5376   -0.8387 H.spc      1 <1>        0.000
     23 H           0.1305    1.6435   -2.4425 H.spc      1 <1>        0.000
     24 H           1.3471    3.8097    1.7558 H.spc      1 <1>        0.000
     25 H           2.0885   -0.8013    3.3537 H.spc      1 <1>        0.000
     26 H           0.0533   -2.1191    2.8575 H.spc      1 <1>        0.000
     27 H          -1.3261   -1.6203    0.8476 H.spc      1 <1>        0.000
     28 H           2.8078    2.0182    2.7090 H.spc      1 <1>        0.000
     29 H           3.9816    0.7999    2.0287 H.spc      1 <1>        0.000
     30 H          -1.7483    2.4546   -0.6955 H.spc      1 <1>        0.000
     31 H          -0.5779    3.5703   -1.5821 H.spc      1 <1>        0.000
     32 H          -0.9911    3.7419    1.1732 H.spc      1 <1>        0.000
     33 H           2.7153    1.4913   -2.5389 H.spc      1 <1>        0.000
     34 H           2.1249   -0.1322   -2.0330 H.spc      1 <1>        0.000
     35 H           3.7133   -0.2181   -0.2348 H.spc      1 <1>        0.000
     36 H           4.6048    0.2530   -1.7273 H.spc      1 <1>        0.000
@<TRIPOS>BOND
     1    5    6 1  
     2    8   10 ar 
     3    1   18 1  
     4    4   17 1  
     5    4    5 1  
     6    4    8 1  
     7    6    7 1  
     8    5   15 1  
     9    2   14 1  
    10    3    4 1  
    11    3    9 1  
    12    2    3 1  
    13    1    2 1  
    14    7   13 ar 
    15    7    8 ar 
    16   17   18 1  
    17   16    9 2  
    18   15   16 1  
    19   12   13 ar 
    20   11   12 ar 
    21   10   11 ar 
    22   10   14 1  
    23    1   19 1  
    24    1   20 1  
    25    2   21 1  
    26    3   22 1  
    27    5   23 1  
    28    9   24 1  
    29   11   25 1  
    30   12   26 1  
    31   13   27 1  
    32   14   28 1  
    33   14   29 1  
    34   15   30 1  
    35   15   31 1  
    36   16   32 1  
    37   17   33 1  
    38   17   34 1  
    39   18   35 1  
    40   18   36 1  
