#      Rotatable Fragment
#      Build by yxyuan
#
# Name:          frag4-462-105/150395
# Creation time: Sat Jun  5 12:53:37 2010


@<TRIPOS>MOLECULE
frag4-462-105/150395
   22    24     1     1     1
SMALL
USER_CHARGES


@<TRIPOS>ATOM
      1 C1          0.6525   -0.4093   -0.1837 C.2        1 <1>        0.000
      2 C2         -0.6967   -0.4340   -0.1365 C.2        1 <1>        0.000
      3 C3          1.1141    0.9847   -0.2072 C.2        1 <1>        0.000
      4 C4          1.6342   -1.4826   -0.1303 C.2        1 <1>        0.000
      5 C5         -0.9278    1.0829   -0.1138 C.2        1 <1>        0.000
      6 C6         -1.7844   -1.3516   -0.1078 C.2        1 <1>        0.000
      7 O1          0.1022    1.8195   -0.2699 O.3        1 <1>        0.000
      8 C7          2.3816    1.3451   -0.1241 C.2        1 <1>        0.000
      9 C8          2.9422   -1.1496   -0.0208 C.2        1 <1>        0.000
     10 C9         -2.2984    1.5438    0.1555 C.2        1 <1>        0.000
     11 C10        -3.0082   -0.8258    0.0682 C.2        1 <1>        0.000
     12 C11         3.3738    0.2735    0.0386 C.3        1 <1>        0.000
     13 C13        -3.2255    0.5803    0.2428 C.2        1 <1>        0.000
     14 H           1.3247   -2.5267   -0.1772 H.spc      1 <1>        0.000
     15 H          -1.6324   -2.4248   -0.2226 H.spc      1 <1>        0.000
     16 H           2.6792    2.3925   -0.1740 H.spc      1 <1>        0.000
     17 H           3.6930   -1.9385    0.0247 H.spc      1 <1>        0.000
     18 H          -2.5436    2.5990    0.2760 H.spc      1 <1>        0.000
     19 H          -3.8691   -1.4943    0.0786 H.spc      1 <1>        0.000
     20 H           3.7531    0.4028    1.0522 H.spc      1 <1>        0.000
     21 H           4.0465    0.3916   -0.8109 H.spc      1 <1>        0.000
     22 H          -4.2439    0.8965    0.4685 H.spc      1 <1>        0.000
@<TRIPOS>BOND
     1    2    6 1  
     2    5    7 2  
     3   11   13 1  
     4    4    9 2  
     5    8   12 1  
     6    3    7 1  
     7    2    5 1  
     8    5   10 1  
     9    6   11 2  
    10   10   13 2  
    11    3    8 2  
    12    9   12 1  
    13    1    2 2  
    14    1    3 1  
    15    1    4 1  
    16    4   14 1  
    17    6   15 1  
    18    8   16 1  
    19    9   17 1  
    20   10   18 1  
    21   11   19 1  
    22   12   20 1  
    23   12   21 1  
    24   13   22 1  
# Name:          frag4-462-105/150395 -- energy: -1.514510
# Creation time: Sat Jun  5 12:53:37 2010


@<TRIPOS>MOLECULE
frag4-462-105/150395 -- energy: -1.514510
   22    24     1     1     1
SMALL
USER_CHARGES


@<TRIPOS>ATOM
      1 C1          0.6525   -0.4093   -0.1837 C.2        1 <1>        0.000
      2 C2         -0.6967   -0.4340   -0.1365 C.2        1 <1>        0.000
      3 C3          1.1141    0.9847   -0.2072 C.2        1 <1>        0.000
      4 C4          1.6342   -1.4826   -0.1303 C.2        1 <1>        0.000
      5 C5         -0.9278    1.0829   -0.1138 C.2        1 <1>        0.000
      6 C6         -1.7844   -1.3516   -0.1078 C.2        1 <1>        0.000
      7 O1          0.1022    1.8195   -0.2699 O.3        1 <1>        0.000
      8 C7          2.3816    1.3451   -0.1241 C.2        1 <1>        0.000
      9 C8          2.9422   -1.1496   -0.0208 C.2        1 <1>        0.000
     10 C9         -2.2984    1.5438    0.1555 C.2        1 <1>        0.000
     11 C10        -3.0082   -0.8258    0.0682 C.2        1 <1>        0.000
     12 C11         3.3738    0.2735    0.0386 C.3        1 <1>        0.000
     13 C13        -3.2255    0.5803    0.2428 C.2        1 <1>        0.000
     14 H           1.3247   -2.5267   -0.1772 H.spc      1 <1>        0.000
     15 H          -1.6324   -2.4248   -0.2226 H.spc      1 <1>        0.000
     16 H           2.6792    2.3925   -0.1740 H.spc      1 <1>        0.000
     17 H           3.6930   -1.9385    0.0247 H.spc      1 <1>        0.000
     18 H          -2.5436    2.5990    0.2760 H.spc      1 <1>        0.000
     19 H          -3.8691   -1.4943    0.0786 H.spc      1 <1>        0.000
     20 H           3.7531    0.4028    1.0522 H.spc      1 <1>        0.000
     21 H           4.0465    0.3916   -0.8109 H.spc      1 <1>        0.000
     22 H          -4.2439    0.8965    0.4685 H.spc      1 <1>        0.000
@<TRIPOS>BOND
     1    2    6 1  
     2    5    7 2  
     3   11   13 1  
     4    4    9 2  
     5    8   12 1  
     6    3    7 1  
     7    2    5 1  
     8    5   10 1  
     9    6   11 2  
    10   10   13 2  
    11    3    8 2  
    12    9   12 1  
    13    1    2 2  
    14    1    3 1  
    15    1    4 1  
    16    4   14 1  
    17    6   15 1  
    18    8   16 1  
    19    9   17 1  
    20   10   18 1  
    21   11   19 1  
    22   12   20 1  
    23   12   21 1  
    24   13   22 1  
