#      Rotatable Fragment
#      Build by yxyuan
#
# Name:          frag4-325-721/150395
# Creation time: Sat Jun  5 12:53:31 2010


@<TRIPOS>MOLECULE
frag4-325-721/150395
   19    20     1     1     1
SMALL
USER_CHARGES


@<TRIPOS>ATOM
      1 C1         -2.7362    0.0513   -0.0129 C.ar       1 <1>        0.000
      2 C2         -2.7303    1.4518   -0.0427 C.ar       1 <1>        0.000
      3 C3         -1.5365   -0.6601    0.0045 C.ar       1 <1>        0.000
      4 C4         -4.1402   -0.5005   -0.0129 C.3        1 <1>        0.000
      5 C5         -1.5237    2.1514   -0.0457 C.ar       1 <1>        0.000
      6 C6         -4.1302    2.0138   -0.0739 C.3        1 <1>        0.000
      7 C7         -0.3295    0.0392   -0.0179 C.ar       1 <1>        0.000
      8 C8         -5.0441    0.7589   -0.1105 C.3        1 <1>        0.000
      9 C9         -0.3237    1.4402   -0.0473 C.ar       1 <1>        0.000
     10 H          -1.5420   -1.7497    0.0352 H.spc      1 <1>        0.000
     11 H          -4.3099   -1.1936   -0.8369 H.spc      1 <1>        0.000
     12 H          -4.3507   -1.0899    0.8795 H.spc      1 <1>        0.000
     13 H          -1.5185    3.2414   -0.0468 H.spc      1 <1>        0.000
     14 H          -4.3377    2.6486    0.7875 H.spc      1 <1>        0.000
     15 H          -4.2925    2.6658   -0.9322 H.spc      1 <1>        0.000
     16 H           0.6138   -0.5070   -0.0125 H.spc      1 <1>        0.000
     17 H          -5.7469    0.7820    0.7223 H.spc      1 <1>        0.000
     18 H          -5.6171    0.7388   -1.0375 H.spc      1 <1>        0.000
     19 H           0.6243    1.9775   -0.0716 H.spc      1 <1>        0.000
@<TRIPOS>BOND
     1    4    8 1  
     2    7    9 ar 
     3    5    9 ar 
     4    6    8 1  
     5    1    2 ar 
     6    1    3 ar 
     7    1    4 1  
     8    2    5 ar 
     9    2    6 1  
    10    3    7 ar 
    11    3   10 1  
    12    4   11 1  
    13    4   12 1  
    14    5   13 1  
    15    6   14 1  
    16    6   15 1  
    17    7   16 1  
    18    8   17 1  
    19    8   18 1  
    20    9   19 1  
# Name:          frag4-325-721/150395 -- energy: -1.043665
# Creation time: Sat Jun  5 12:53:31 2010


@<TRIPOS>MOLECULE
frag4-325-721/150395 -- energy: -1.043665
   19    20     1     1     1
SMALL
USER_CHARGES


@<TRIPOS>ATOM
      1 C1         -2.7362    0.0513   -0.0129 C.ar       1 <1>        0.000
      2 C2         -2.7303    1.4518   -0.0427 C.ar       1 <1>        0.000
      3 C3         -1.5365   -0.6601    0.0045 C.ar       1 <1>        0.000
      4 C4         -4.1402   -0.5005   -0.0129 C.3        1 <1>        0.000
      5 C5         -1.5237    2.1514   -0.0457 C.ar       1 <1>        0.000
      6 C6         -4.1302    2.0138   -0.0739 C.3        1 <1>        0.000
      7 C7         -0.3295    0.0392   -0.0179 C.ar       1 <1>        0.000
      8 C8         -5.0441    0.7589   -0.1105 C.3        1 <1>        0.000
      9 C9         -0.3237    1.4402   -0.0473 C.ar       1 <1>        0.000
     10 H          -1.5420   -1.7497    0.0352 H.spc      1 <1>        0.000
     11 H          -4.3099   -1.1936   -0.8369 H.spc      1 <1>        0.000
     12 H          -4.3507   -1.0899    0.8795 H.spc      1 <1>        0.000
     13 H          -1.5185    3.2414   -0.0468 H.spc      1 <1>        0.000
     14 H          -4.3377    2.6486    0.7875 H.spc      1 <1>        0.000
     15 H          -4.2925    2.6658   -0.9322 H.spc      1 <1>        0.000
     16 H           0.6138   -0.5070   -0.0125 H.spc      1 <1>        0.000
     17 H          -5.7469    0.7820    0.7223 H.spc      1 <1>        0.000
     18 H          -5.6171    0.7388   -1.0375 H.spc      1 <1>        0.000
     19 H           0.6243    1.9775   -0.0716 H.spc      1 <1>        0.000
@<TRIPOS>BOND
     1    4    8 1  
     2    7    9 ar 
     3    5    9 ar 
     4    6    8 1  
     5    1    2 ar 
     6    1    3 ar 
     7    1    4 1  
     8    2    5 ar 
     9    2    6 1  
    10    3    7 ar 
    11    3   10 1  
    12    4   11 1  
    13    4   12 1  
    14    5   13 1  
    15    6   14 1  
    16    6   15 1  
    17    7   16 1  
    18    8   17 1  
    19    8   18 1  
    20    9   19 1  
