#      Rotatable Fragment
#      Build by yxyuan
#
# Name:          frag3-184-7/31924
# Creation time: Sat Jun  5 12:52:09 2010


@<TRIPOS>MOLECULE
frag3-184-7/31924
    8     7     1     1     1
SMALL
USER_CHARGES


@<TRIPOS>ATOM
      1 C12        -1.1751    0.1219    0.1352 C.2        1 <1>        0.000
      2 O2         -1.4076   -0.6752    1.0309 O.2        1 <1>        0.000
      3 N2          0.0189    0.4283   -0.4443 N.am       1 <1>        0.000
      4 C13         0.0193    1.3257   -1.4697 C.2        1 <1>        0.000
      5 O3          0.9794    1.7501   -2.0980 O.2        1 <1>        0.000
      6 H          -2.0396    0.6607   -0.2527 H.spc      1 <1>        0.000
      7 H           0.8859   -0.0007   -0.1207 H.spc      1 <1>        0.000
      8 H          -0.9554    1.7129   -1.7666 H.spc      1 <1>        0.000
@<TRIPOS>BOND
     1    1    2 2  
     2    1    3 am 
     3    3    4 am 
     4    4    5 2  
     5    1    6 1  
     6    3    7 1  
     7    4    8 1  
# Name:          frag3-184-7/31924
# Creation time: Sat Jun  5 12:52:09 2010


@<TRIPOS>MOLECULE
frag3-184-7/31924
    8     7     1     1     1
SMALL
USER_CHARGES


@<TRIPOS>ATOM
      1 C12        -1.0256    0.2328   -0.0298 C.2        1 <1>        0.000
      2 O2         -1.6137   -0.5839    0.6711 O.2        1 <1>        0.000
      3 N2          0.3297    0.4835   -0.1075 N.am       1 <1>        0.000
      4 C13         0.6793    1.2470   -1.1851 C.2        1 <1>        0.000
      5 O3          0.0652    1.5713   -2.1946 O.2        1 <1>        0.000
      6 H          -1.6568    0.8415   -0.6773 H.spc      1 <1>        0.000
      7 H           1.0040    0.1331    0.5729 H.spc      1 <1>        0.000
      8 H           1.6943    1.6414   -1.1381 H.spc      1 <1>        0.000
@<TRIPOS>BOND
     1    1    2 2  
     2    1    3 am 
     3    3    4 am 
     4    4    5 2  
     5    1    6 1  
     6    3    7 1  
     7    4    8 1  
# Name:          frag3-184-7/31924 -- energy: -0.150916
# Creation time: Sat Jun  5 12:52:09 2010


@<TRIPOS>MOLECULE
frag3-184-7/31924 -- energy: -0.150916
    8     7     1     1     1
SMALL
USER_CHARGES


@<TRIPOS>ATOM
      1 C12        -1.1751    0.1219    0.1352 C.2        1 <1>        0.000
      2 O2         -1.4076   -0.6752    1.0309 O.2        1 <1>        0.000
      3 N2          0.0189    0.4283   -0.4443 N.am       1 <1>        0.000
      4 C13         0.0193    1.3257   -1.4697 C.2        1 <1>        0.000
      5 O3          0.9794    1.7501   -2.0980 O.2        1 <1>        0.000
      6 H          -2.0396    0.6607   -0.2527 H.spc      1 <1>        0.000
      7 H           0.8859   -0.0007   -0.1207 H.spc      1 <1>        0.000
      8 H          -0.9554    1.7129   -1.7666 H.spc      1 <1>        0.000
@<TRIPOS>BOND
     1    1    2 2  
     2    1    3 am 
     3    3    4 am 
     4    4    5 2  
     5    1    6 1  
     6    3    7 1  
     7    4    8 1  
# Name:          frag3-184-7/31924 -- energy: -0.050312
# Creation time: Sat Jun  5 12:52:09 2010


@<TRIPOS>MOLECULE
frag3-184-7/31924 -- energy: -0.050312
    8     7     1     1     1
SMALL
USER_CHARGES


@<TRIPOS>ATOM
      1 C12        -1.0256    0.2328   -0.0298 C.2        1 <1>        0.000
      2 O2         -1.6137   -0.5839    0.6711 O.2        1 <1>        0.000
      3 N2          0.3297    0.4835   -0.1075 N.am       1 <1>        0.000
      4 C13         0.6793    1.2470   -1.1851 C.2        1 <1>        0.000
      5 O3          0.0652    1.5713   -2.1946 O.2        1 <1>        0.000
      6 H          -1.6568    0.8415   -0.6773 H.spc      1 <1>        0.000
      7 H           1.0040    0.1331    0.5729 H.spc      1 <1>        0.000
      8 H           1.6943    1.6414   -1.1381 H.spc      1 <1>        0.000
@<TRIPOS>BOND
     1    1    2 2  
     2    1    3 am 
     3    3    4 am 
     4    4    5 2  
     5    1    6 1  
     6    3    7 1  
     7    4    8 1  
