#      Rotatable Fragment
#      Build by yxyuan
#
# Name:          frag3-240-5/96164
# Creation time: Sat Jun  5 12:53:16 2010


@<TRIPOS>MOLECULE
frag3-240-5/96164
   12    11     1     1     1
SMALL
USER_CHARGES


@<TRIPOS>ATOM
      1 O3          1.2036    2.8432   -0.5782 O.3        1 <1>        0.000
      2 C12         1.2985    1.5686   -0.2192 C.2        1 <1>        0.000
      3 C17         2.6265    0.9873    0.0177 C.2        1 <1>        0.000
      4 O5          0.2987    0.8760   -0.1272 O.2        1 <1>        0.000
      5 C19         3.7798    1.5958   -0.3129 C.2        1 <1>        0.000
      6 C22         5.0947    0.9988   -0.1284 C.2        1 <1>        0.000
      7 O9          5.1656   -0.2253    0.4174 O.3        1 <1>        0.000
      8 O10         6.0982    1.5805   -0.5183 O.2        1 <1>        0.000
      9 H           2.0800    3.2345   -0.5996 H.spc      1 <1>        0.000
     10 H           2.6806    0.0058    0.4888 H.spc      1 <1>        0.000
     11 H           3.7266    2.5953   -0.7446 H.spc      1 <1>        0.000
     12 H           4.2841   -0.5175    0.6607 H.spc      1 <1>        0.000
@<TRIPOS>BOND
     1    1    2 1  
     2    2    3 1  
     3    2    4 2  
     4    3    5 2  
     5    5    6 1  
     6    6    8 2  
     7    6    7 1  
     8    1    9 1  
     9    3   10 1  
    10    5   11 1  
    11    7   12 1  
# Name:          frag3-240-5/96164
# Creation time: Sat Jun  5 12:53:16 2010


@<TRIPOS>MOLECULE
frag3-240-5/96164
   12    11     1     1     1
SMALL
USER_CHARGES


@<TRIPOS>ATOM
      1 O3          5.3148    0.6583    1.0797 O.3        1 <1>        0.000
      2 C12         5.0610    0.8779   -0.2089 C.2        1 <1>        0.000
      3 C17         3.6894    1.1439   -0.6242 C.2        1 <1>        0.000
      4 O5          5.9655    0.8539   -1.0308 O.2        1 <1>        0.000
      5 C19         2.6962    1.3924    0.2487 C.2        1 <1>        0.000
      6 C22         1.3358    1.6706   -0.2291 C.2        1 <1>        0.000
      7 O9          0.5039    2.1271    0.7066 O.3        1 <1>        0.000
      8 O10         0.9990    1.5008   -1.3911 O.2        1 <1>        0.000
      9 H           4.4972    0.7140    1.5797 H.spc      1 <1>        0.000
     10 H           3.4580    1.1414   -1.6894 H.spc      1 <1>        0.000
     11 H           2.9030    1.3872    1.3189 H.spc      1 <1>        0.000
     12 H           0.9680    2.1855    1.5449 H.spc      1 <1>        0.000
@<TRIPOS>BOND
     1    1    2 1  
     2    2    3 1  
     3    2    4 2  
     4    3    5 2  
     5    5    6 1  
     6    6    8 2  
     7    6    7 1  
     8    1    9 1  
     9    3   10 1  
    10    5   11 1  
    11    7   12 1  
# Name:          frag3-240-5/96164
# Creation time: Sat Jun  5 12:53:16 2010


@<TRIPOS>MOLECULE
frag3-240-5/96164
   12    11     1     1     1
SMALL
USER_CHARGES


@<TRIPOS>ATOM
      1 O3          5.5925   -0.4338   -0.1706 O.3        1 <1>        0.000
      2 C12         5.0201    0.7684   -0.0297 C.2        1 <1>        0.000
      3 C17         3.5458    0.7340    0.0028 C.2        1 <1>        0.000
      4 O5          5.6456    1.8166    0.0632 O.2        1 <1>        0.000
      5 C19         2.8431    1.8291   -0.3488 C.2        1 <1>        0.000
      6 C22         1.3767    1.8061   -0.2901 C.2        1 <1>        0.000
      7 O9          0.7793    2.6561   -1.1210 O.3        1 <1>        0.000
      8 O10         0.7626    1.0483    0.4449 O.2        1 <1>        0.000
      9 H           4.9106   -1.1075   -0.2229 H.spc      1 <1>        0.000
     10 H           3.0265   -0.1738    0.3101 H.spc      1 <1>        0.000
     11 H           3.3626    2.7297   -0.6760 H.spc      1 <1>        0.000
     12 H           1.4452    3.1532   -1.6018 H.spc      1 <1>        0.000
@<TRIPOS>BOND
     1    1    2 1  
     2    2    3 1  
     3    2    4 2  
     4    3    5 2  
     5    5    6 1  
     6    6    8 2  
     7    6    7 1  
     8    1    9 1  
     9    3   10 1  
    10    5   11 1  
    11    7   12 1  
# Name:          frag3-240-5/96164 -- energy: 1.458715
# Creation time: Sat Jun  5 12:53:16 2010


@<TRIPOS>MOLECULE
frag3-240-5/96164 -- energy: 1.458715
   12    11     1     1     1
SMALL
USER_CHARGES


@<TRIPOS>ATOM
      1 O3          5.3148    0.6583    1.0797 O.3        1 <1>        0.000
      2 C12         5.0610    0.8779   -0.2089 C.2        1 <1>        0.000
      3 C17         3.6894    1.1439   -0.6242 C.2        1 <1>        0.000
      4 O5          5.9655    0.8539   -1.0308 O.2        1 <1>        0.000
      5 C19         2.6962    1.3924    0.2487 C.2        1 <1>        0.000
      6 C22         1.3358    1.6706   -0.2291 C.2        1 <1>        0.000
      7 O9          0.5039    2.1271    0.7066 O.3        1 <1>        0.000
      8 O10         0.9990    1.5008   -1.3911 O.2        1 <1>        0.000
      9 H           4.4972    0.7140    1.5797 H.spc      1 <1>        0.000
     10 H           3.4580    1.1414   -1.6894 H.spc      1 <1>        0.000
     11 H           2.9030    1.3872    1.3189 H.spc      1 <1>        0.000
     12 H           0.9680    2.1855    1.5449 H.spc      1 <1>        0.000
@<TRIPOS>BOND
     1    1    2 1  
     2    2    3 1  
     3    2    4 2  
     4    3    5 2  
     5    5    6 1  
     6    6    8 2  
     7    6    7 1  
     8    1    9 1  
     9    3   10 1  
    10    5   11 1  
    11    7   12 1  
# Name:          frag3-240-5/96164 -- energy: -0.173177
# Creation time: Sat Jun  5 12:53:16 2010


@<TRIPOS>MOLECULE
frag3-240-5/96164 -- energy: -0.173177
   12    11     1     1     1
SMALL
USER_CHARGES


@<TRIPOS>ATOM
      1 O3          5.5925   -0.4338   -0.1706 O.3        1 <1>        0.000
      2 C12         5.0201    0.7684   -0.0297 C.2        1 <1>        0.000
      3 C17         3.5458    0.7340    0.0028 C.2        1 <1>        0.000
      4 O5          5.6456    1.8166    0.0632 O.2        1 <1>        0.000
      5 C19         2.8431    1.8291   -0.3488 C.2        1 <1>        0.000
      6 C22         1.3767    1.8061   -0.2901 C.2        1 <1>        0.000
      7 O9          0.7793    2.6561   -1.1210 O.3        1 <1>        0.000
      8 O10         0.7626    1.0483    0.4449 O.2        1 <1>        0.000
      9 H           4.9106   -1.1075   -0.2229 H.spc      1 <1>        0.000
     10 H           3.0265   -0.1738    0.3101 H.spc      1 <1>        0.000
     11 H           3.3626    2.7297   -0.6760 H.spc      1 <1>        0.000
     12 H           1.4452    3.1532   -1.6018 H.spc      1 <1>        0.000
@<TRIPOS>BOND
     1    1    2 1  
     2    2    3 1  
     3    2    4 2  
     4    3    5 2  
     5    5    6 1  
     6    6    8 2  
     7    6    7 1  
     8    1    9 1  
     9    3   10 1  
    10    5   11 1  
    11    7   12 1  
