#      Rotatable Fragment
#      Build by yxyuan
#
# Name:          frag3-282-3/96164
# Creation time: Sat Jun  5 12:53:28 2010


@<TRIPOS>MOLECULE
frag3-282-3/96164
    8     7     1     1     1
SMALL
USER_CHARGES


@<TRIPOS>ATOM
      1 N1          1.2102    0.0911    0.1152 N.pl3      1 <1>        0.000
      2 C19         0.0041   -0.0252   -0.4540 C.2        1 <1>        0.000
      3 C21        -1.1741   -0.0498    0.1441 C.2        1 <1>        0.000
      4 H           1.2900    0.1741    1.1287 H.spc      1 <1>        0.000
      5 H           2.0494    0.0968   -0.4646 H.spc      1 <1>        0.000
      6 H          -0.0075   -0.1097   -1.5407 H.spc      1 <1>        0.000
      7 H          -1.2361    0.0302    1.2294 H.spc      1 <1>        0.000
      8 H          -2.0838   -0.1501   -0.4479 H.spc      1 <1>        0.000
@<TRIPOS>BOND
     1    1    2 1  
     2    2    3 2  
     3    1    4 1  
     4    1    5 1  
     5    2    6 1  
     6    3    7 1  
     7    3    8 1  
# Name:          frag3-282-3/96164 -- energy: -0.203469
# Creation time: Sat Jun  5 12:53:28 2010


@<TRIPOS>MOLECULE
frag3-282-3/96164 -- energy: -0.203469
    8     7     1     1     1
SMALL
USER_CHARGES


@<TRIPOS>ATOM
      1 N1          1.2102    0.0911    0.1152 N.pl3      1 <1>        0.000
      2 C19         0.0041   -0.0252   -0.4540 C.2        1 <1>        0.000
      3 C21        -1.1741   -0.0498    0.1441 C.2        1 <1>        0.000
      4 H           1.2900    0.1741    1.1287 H.spc      1 <1>        0.000
      5 H           2.0494    0.0968   -0.4646 H.spc      1 <1>        0.000
      6 H          -0.0075   -0.1097   -1.5407 H.spc      1 <1>        0.000
      7 H          -1.2361    0.0302    1.2294 H.spc      1 <1>        0.000
      8 H          -2.0838   -0.1501   -0.4479 H.spc      1 <1>        0.000
@<TRIPOS>BOND
     1    1    2 1  
     2    2    3 2  
     3    1    4 1  
     4    1    5 1  
     5    2    6 1  
     6    3    7 1  
     7    3    8 1  
