#      Rotatable Fragment
#      Build by yxyuan
#
# Name:          frag3-273-3/96164
# Creation time: Sat Jun  5 12:53:23 2010


@<TRIPOS>MOLECULE
frag3-273-3/96164
    9     8     1     1     1
SMALL
USER_CHARGES


@<TRIPOS>ATOM
      1 N2          0.2634    2.5481    0.0344 N.am       1 <1>        0.000
      2 C13         1.4203    1.9315    0.0050 C.2        1 <1>        0.000
      3 O3          0.1284    3.8919    0.0713 O.3        1 <1>        0.000
      4 N3          2.5632    2.6044    0.1364 N.am       1 <1>        0.000
      5 S1          1.4186    0.2879   -0.1913 S.2        1 <1>        0.000
      6 H          -0.5839    1.9802    0.0291 H.spc      1 <1>        0.000
      7 H          -0.8044    4.1183    0.0879 H.spc      1 <1>        0.000
      8 H           3.4533    2.1066    0.1167 H.spc      1 <1>        0.000
      9 H           2.5478    3.6172    0.2566 H.spc      1 <1>        0.000
@<TRIPOS>BOND
     1    1    2 am 
     2    1    3 1  
     3    2    4 am 
     4    2    5 2  
     5    1    6 1  
     6    3    7 1  
     7    4    8 1  
     8    4    9 1  
# Name:          frag3-273-3/96164
# Creation time: Sat Jun  5 12:53:23 2010


@<TRIPOS>MOLECULE
frag3-273-3/96164
    9     8     1     1     1
SMALL
USER_CHARGES


@<TRIPOS>ATOM
      1 N2          0.8047    3.1510    0.0489 N.am       1 <1>        0.000
      2 C13         1.6281    2.1481    0.0268 C.2        1 <1>        0.000
      3 O3         -0.5277    3.0901    0.0004 O.3        1 <1>        0.000
      4 N3          2.9075    2.3067    0.1613 N.am       1 <1>        0.000
      5 S1          0.9815    0.5679   -0.1815 S.2        1 <1>        0.000
      6 H           1.2183    4.0814    0.1096 H.spc      1 <1>        0.000
      7 H          -0.8889    3.9790    0.0326 H.spc      1 <1>        0.000
      8 H           3.5265    1.4962    0.1434 H.spc      1 <1>        0.000
      9 H           3.2952    3.2420    0.2851 H.spc      1 <1>        0.000
@<TRIPOS>BOND
     1    1    2 am 
     2    1    3 1  
     3    2    4 am 
     4    2    5 2  
     5    1    6 1  
     6    3    7 1  
     7    4    8 1  
     8    4    9 1  
# Name:          frag3-273-3/96164 -- energy: -0.294588
# Creation time: Sat Jun  5 12:53:23 2010


@<TRIPOS>MOLECULE
frag3-273-3/96164 -- energy: -0.294588
    9     8     1     1     1
SMALL
USER_CHARGES


@<TRIPOS>ATOM
      1 N2          0.2634    2.5481    0.0344 N.am       1 <1>        0.000
      2 C13         1.4203    1.9315    0.0050 C.2        1 <1>        0.000
      3 O3          0.1284    3.8919    0.0713 O.3        1 <1>        0.000
      4 N3          2.5632    2.6044    0.1364 N.am       1 <1>        0.000
      5 S1          1.4186    0.2879   -0.1913 S.2        1 <1>        0.000
      6 H          -0.5839    1.9802    0.0291 H.spc      1 <1>        0.000
      7 H          -0.8044    4.1183    0.0879 H.spc      1 <1>        0.000
      8 H           3.4533    2.1066    0.1167 H.spc      1 <1>        0.000
      9 H           2.5478    3.6172    0.2566 H.spc      1 <1>        0.000
@<TRIPOS>BOND
     1    1    2 am 
     2    1    3 1  
     3    2    4 am 
     4    2    5 2  
     5    1    6 1  
     6    3    7 1  
     7    4    8 1  
     8    4    9 1  
# Name:          frag3-273-3/96164 -- energy: -0.296235
# Creation time: Sat Jun  5 12:53:23 2010


@<TRIPOS>MOLECULE
frag3-273-3/96164 -- energy: -0.296235
    9     8     1     1     1
SMALL
USER_CHARGES


@<TRIPOS>ATOM
      1 N2          0.8047    3.1510    0.0489 N.am       1 <1>        0.000
      2 C13         1.6281    2.1481    0.0268 C.2        1 <1>        0.000
      3 O3         -0.5277    3.0901    0.0004 O.3        1 <1>        0.000
      4 N3          2.9075    2.3067    0.1613 N.am       1 <1>        0.000
      5 S1          0.9815    0.5679   -0.1815 S.2        1 <1>        0.000
      6 H           1.2183    4.0814    0.1096 H.spc      1 <1>        0.000
      7 H          -0.8889    3.9790    0.0326 H.spc      1 <1>        0.000
      8 H           3.5265    1.4962    0.1434 H.spc      1 <1>        0.000
      9 H           3.2952    3.2420    0.2851 H.spc      1 <1>        0.000
@<TRIPOS>BOND
     1    1    2 am 
     2    1    3 1  
     3    2    4 am 
     4    2    5 2  
     5    1    6 1  
     6    3    7 1  
     7    4    8 1  
     8    4    9 1  
