#      Rotatable Fragment
#      Build by yxyuan
#
# Name:          frag4-386-73/48856
# Creation time: Sat Jun  5 12:53:40 2010


@<TRIPOS>MOLECULE
frag4-386-73/48856
   11    11     1     1     1
SMALL
USER_CHARGES


@<TRIPOS>ATOM
      1 C1          3.0017    0.5700   -0.1636 C.3        1 <1>        0.000
      2 C2          1.9237    0.8521    0.8456 C.3        1 <1>        0.000
      3 N1          1.0457    0.0042    0.0527 N.3        1 <1>        0.000
      4 C3          2.0155   -0.2877   -0.9122 C.3        1 <1>        0.000
      5 H           3.9689    0.1733    0.1450 H.spc      1 <1>        0.000
      6 H           3.5298    1.3828   -0.6622 H.spc      1 <1>        0.000
      7 H           1.6436    1.8724    1.1076 H.spc      1 <1>        0.000
      8 H           2.0797    0.6713    1.9091 H.spc      1 <1>        0.000
      9 H           0.1679    0.4101   -0.2715 H.spc      1 <1>        0.000
     10 H           2.2585   -1.3231   -1.1510 H.spc      1 <1>        0.000
     11 H           1.8145   -0.1004   -1.9670 H.spc      1 <1>        0.000
@<TRIPOS>BOND
     1    1    2 1  
     2    1    4 1  
     3    2    3 1  
     4    3    4 1  
     5    1    5 1  
     6    1    6 1  
     7    2    7 1  
     8    2    8 1  
     9    3    9 1  
    10    4   10 1  
    11    4   11 1  
# Name:          frag4-386-73/48856 -- energy: -0.425117
# Creation time: Sat Jun  5 12:53:40 2010


@<TRIPOS>MOLECULE
frag4-386-73/48856 -- energy: -0.425117
   11    11     1     1     1
SMALL
USER_CHARGES


@<TRIPOS>ATOM
      1 C1          3.0017    0.5700   -0.1636 C.3        1 <1>        0.000
      2 C2          1.9237    0.8521    0.8456 C.3        1 <1>        0.000
      3 N1          1.0457    0.0042    0.0527 N.3        1 <1>        0.000
      4 C3          2.0155   -0.2877   -0.9122 C.3        1 <1>        0.000
      5 H           3.9689    0.1733    0.1450 H.spc      1 <1>        0.000
      6 H           3.5298    1.3828   -0.6622 H.spc      1 <1>        0.000
      7 H           1.6436    1.8724    1.1076 H.spc      1 <1>        0.000
      8 H           2.0797    0.6713    1.9091 H.spc      1 <1>        0.000
      9 H           0.1679    0.4101   -0.2715 H.spc      1 <1>        0.000
     10 H           2.2585   -1.3231   -1.1510 H.spc      1 <1>        0.000
     11 H           1.8145   -0.1004   -1.9670 H.spc      1 <1>        0.000
@<TRIPOS>BOND
     1    1    2 1  
     2    1    4 1  
     3    2    3 1  
     4    3    4 1  
     5    1    5 1  
     6    1    6 1  
     7    2    7 1  
     8    2    8 1  
     9    3    9 1  
    10    4   10 1  
    11    4   11 1  
