#      Rotatable Fragment
#      Build by yxyuan
#
# Name:          frag3-106-137/31924
# Creation time: Sat Jun  5 12:52:00 2010


@<TRIPOS>MOLECULE
frag3-106-137/31924
    8     7     1     1     1
SMALL
USER_CHARGES


@<TRIPOS>ATOM
      1 C3         -1.1978   -0.0254    0.1199 C.2        1 <1>        0.000
      2 C4         -0.0169    0.4599   -0.2663 C.2        1 <1>        0.000
      3 C7          1.2211   -0.2538    0.0454 C.2        1 <1>        0.000
      4 O2          2.2712   -0.1159   -0.5649 O.2        1 <1>        0.000
      5 H          -1.2470   -0.9629    0.6737 H.spc      1 <1>        0.000
      6 H          -2.1136    0.5156   -0.1183 H.spc      1 <1>        0.000
      7 H           0.0259    1.3979   -0.8198 H.spc      1 <1>        0.000
      8 H           1.2063   -0.9564    0.8786 H.spc      1 <1>        0.000
@<TRIPOS>BOND
     1    1    2 2  
     2    2    3 1  
     3    3    4 2  
     4    1    5 1  
     5    1    6 1  
     6    2    7 1  
     7    3    8 1  
# Name:          frag3-106-137/31924
# Creation time: Sat Jun  5 12:52:00 2010


@<TRIPOS>MOLECULE
frag3-106-137/31924
    8     7     1     1     1
SMALL
USER_CHARGES


@<TRIPOS>ATOM
      1 C3         -0.9671   -0.2764   -0.2305 C.2        1 <1>        0.000
      2 C4         -0.0338    0.6168    0.1183 C.2        1 <1>        0.000
      3 C7          1.3829    0.2439    0.1250 C.2        1 <1>        0.000
      4 O2          1.8956   -0.5196   -0.6788 O.2        1 <1>        0.000
      5 H          -0.6751   -1.2882   -0.5118 H.spc      1 <1>        0.000
      6 H          -2.0194    0.0078   -0.2333 H.spc      1 <1>        0.000
      7 H          -0.3293    1.6277    0.3991 H.spc      1 <1>        0.000
      8 H           2.0203    0.6754    0.8967 H.spc      1 <1>        0.000
@<TRIPOS>BOND
     1    1    2 2  
     2    2    3 1  
     3    3    4 2  
     4    1    5 1  
     5    1    6 1  
     6    2    7 1  
     7    3    8 1  
# Name:          frag3-106-137/31924 -- energy: -0.245337
# Creation time: Sat Jun  5 12:52:00 2010


@<TRIPOS>MOLECULE
frag3-106-137/31924 -- energy: -0.245337
    8     7     1     1     1
SMALL
USER_CHARGES


@<TRIPOS>ATOM
      1 C3         -1.1978   -0.0254    0.1199 C.2        1 <1>        0.000
      2 C4         -0.0169    0.4599   -0.2663 C.2        1 <1>        0.000
      3 C7          1.2211   -0.2538    0.0454 C.2        1 <1>        0.000
      4 O2          2.2712   -0.1159   -0.5649 O.2        1 <1>        0.000
      5 H          -1.2470   -0.9629    0.6737 H.spc      1 <1>        0.000
      6 H          -2.1136    0.5156   -0.1183 H.spc      1 <1>        0.000
      7 H           0.0259    1.3979   -0.8198 H.spc      1 <1>        0.000
      8 H           1.2063   -0.9564    0.8786 H.spc      1 <1>        0.000
@<TRIPOS>BOND
     1    1    2 2  
     2    2    3 1  
     3    3    4 2  
     4    1    5 1  
     5    1    6 1  
     6    2    7 1  
     7    3    8 1  
# Name:          frag3-106-137/31924 -- energy: -0.233251
# Creation time: Sat Jun  5 12:52:00 2010


@<TRIPOS>MOLECULE
frag3-106-137/31924 -- energy: -0.233251
    8     7     1     1     1
SMALL
USER_CHARGES


@<TRIPOS>ATOM
      1 C3         -0.9671   -0.2764   -0.2305 C.2        1 <1>        0.000
      2 C4         -0.0338    0.6168    0.1183 C.2        1 <1>        0.000
      3 C7          1.3829    0.2439    0.1250 C.2        1 <1>        0.000
      4 O2          1.8956   -0.5196   -0.6788 O.2        1 <1>        0.000
      5 H          -0.6751   -1.2882   -0.5118 H.spc      1 <1>        0.000
      6 H          -2.0194    0.0078   -0.2333 H.spc      1 <1>        0.000
      7 H          -0.3293    1.6277    0.3991 H.spc      1 <1>        0.000
      8 H           2.0203    0.6754    0.8967 H.spc      1 <1>        0.000
@<TRIPOS>BOND
     1    1    2 2  
     2    2    3 1  
     3    3    4 2  
     4    1    5 1  
     5    1    6 1  
     6    2    7 1  
     7    3    8 1  
