#      Rotatable Fragment
#      Build by yxyuan
#
# Name:          frag3-267-2/31924
# Creation time: Sat Jun  5 12:52:41 2010


@<TRIPOS>MOLECULE
frag3-267-2/31924
   11    10     1     1     1
SMALL
USER_CHARGES


@<TRIPOS>ATOM
      1 N1         -3.7498   -1.7357    0.0740 N.pl3      1 <1>        0.000
      2 N2         -4.6281   -2.4527    0.8491 N.3        1 <1>        0.000
      3 C1         -2.4719   -1.5336    0.4353 C.cat      1 <1>        0.000
      4 N3         -1.6068   -1.0674   -0.3739 N.pl3      1 <1>        0.000
      5 N4         -2.1338   -1.8528    1.6783 N.pl3      1 <1>        0.000
      6 H          -4.0797   -1.3426   -0.8075 H.spc      1 <1>        0.000
      7 H          -5.5385   -2.4828    0.3900 H.spc      1 <1>        0.000
      8 H          -4.2757   -3.4022    0.9705 H.spc      1 <1>        0.000
      9 H          -0.6423   -0.9357   -0.0692 H.spc      1 <1>        0.000
     10 H          -1.1723   -1.7254    1.9940 H.spc      1 <1>        0.000
     11 H          -2.8354   -2.2256    2.3179 H.spc      1 <1>        0.000
@<TRIPOS>BOND
     1    1    2 1  
     2    1    3 ar 
     3    3    4 ar 
     4    3    5 ar 
     5    1    6 1  
     6    2    7 1  
     7    2    8 1  
     8    4    9 1  
     9    5   10 1  
    10    5   11 1  
# Name:          frag3-267-2/31924
# Creation time: Sat Jun  5 12:52:41 2010


@<TRIPOS>MOLECULE
frag3-267-2/31924
   11    10     1     1     1
SMALL
USER_CHARGES


@<TRIPOS>ATOM
      1 N1         -3.6319   -2.3449    0.7219 N.pl3      1 <1>        0.000
      2 N2         -4.7010   -1.8851    0.0084 N.3        1 <1>        0.000
      3 C1         -2.4551   -1.6830    0.6443 C.cat      1 <1>        0.000
      4 N3         -2.1488   -1.0333   -0.4049 N.pl3      1 <1>        0.000
      5 N4         -1.6535   -1.6958    1.6930 N.pl3      1 <1>        0.000
      6 H          -3.7195   -3.1766    1.3058 H.spc      1 <1>        0.000
      7 H          -5.5049   -2.4905    0.1746 H.spc      1 <1>        0.000
      8 H          -4.9226   -0.9346    0.3048 H.spc      1 <1>        0.000
      9 H          -1.2729   -0.5121   -0.4445 H.spc      1 <1>        0.000
     10 H          -0.7741   -1.1796    1.6691 H.spc      1 <1>        0.000
     11 H          -1.9135   -2.2219    2.5273 H.spc      1 <1>        0.000
@<TRIPOS>BOND
     1    1    2 1  
     2    1    3 ar 
     3    3    4 ar 
     4    3    5 ar 
     5    1    6 1  
     6    2    7 1  
     7    2    8 1  
     8    4    9 1  
     9    5   10 1  
    10    5   11 1  
# Name:          frag3-267-2/31924 -- energy: -0.329593
# Creation time: Sat Jun  5 12:52:41 2010


@<TRIPOS>MOLECULE
frag3-267-2/31924 -- energy: -0.329593
   11    10     1     1     1
SMALL
USER_CHARGES


@<TRIPOS>ATOM
      1 N1         -3.7498   -1.7357    0.0740 N.pl3      1 <1>        0.000
      2 N2         -4.6281   -2.4527    0.8491 N.3        1 <1>        0.000
      3 C1         -2.4719   -1.5336    0.4353 C.cat      1 <1>        0.000
      4 N3         -1.6068   -1.0674   -0.3739 N.pl3      1 <1>        0.000
      5 N4         -2.1338   -1.8528    1.6783 N.pl3      1 <1>        0.000
      6 H          -4.0797   -1.3426   -0.8075 H.spc      1 <1>        0.000
      7 H          -5.5385   -2.4828    0.3900 H.spc      1 <1>        0.000
      8 H          -4.2757   -3.4022    0.9705 H.spc      1 <1>        0.000
      9 H          -0.6423   -0.9357   -0.0692 H.spc      1 <1>        0.000
     10 H          -1.1723   -1.7254    1.9940 H.spc      1 <1>        0.000
     11 H          -2.8354   -2.2256    2.3179 H.spc      1 <1>        0.000
@<TRIPOS>BOND
     1    1    2 1  
     2    1    3 ar 
     3    3    4 ar 
     4    3    5 ar 
     5    1    6 1  
     6    2    7 1  
     7    2    8 1  
     8    4    9 1  
     9    5   10 1  
    10    5   11 1  
# Name:          frag3-267-2/31924 -- energy: -0.481577
# Creation time: Sat Jun  5 12:52:41 2010


@<TRIPOS>MOLECULE
frag3-267-2/31924 -- energy: -0.481577
   11    10     1     1     1
SMALL
USER_CHARGES


@<TRIPOS>ATOM
      1 N1         -3.6319   -2.3449    0.7219 N.pl3      1 <1>        0.000
      2 N2         -4.7010   -1.8851    0.0084 N.3        1 <1>        0.000
      3 C1         -2.4551   -1.6830    0.6443 C.cat      1 <1>        0.000
      4 N3         -2.1488   -1.0333   -0.4049 N.pl3      1 <1>        0.000
      5 N4         -1.6535   -1.6958    1.6930 N.pl3      1 <1>        0.000
      6 H          -3.7195   -3.1766    1.3058 H.spc      1 <1>        0.000
      7 H          -5.5049   -2.4905    0.1746 H.spc      1 <1>        0.000
      8 H          -4.9226   -0.9346    0.3048 H.spc      1 <1>        0.000
      9 H          -1.2729   -0.5121   -0.4445 H.spc      1 <1>        0.000
     10 H          -0.7741   -1.1796    1.6691 H.spc      1 <1>        0.000
     11 H          -1.9135   -2.2219    2.5273 H.spc      1 <1>        0.000
@<TRIPOS>BOND
     1    1    2 1  
     2    1    3 ar 
     3    3    4 ar 
     4    3    5 ar 
     5    1    6 1  
     6    2    7 1  
     7    2    8 1  
     8    4    9 1  
     9    5   10 1  
    10    5   11 1  
