#      Rotatable Fragment
#      Build by yxyuan
#
# Name:          frag2-075-4/319335
# Creation time: Sat Jun  5 12:51:58 2010


@<TRIPOS>MOLECULE
frag2-075-4/319335
   22    24     1     1     1
SMALL
USER_CHARGES


@<TRIPOS>ATOM
      1 C1          1.6427   -0.6697    0.0055 C.ar       1 <1>        0.000
      2 C2          1.6220    0.7171    0.0295 C.ar       1 <1>        0.000
      3 C3          2.8842   -1.3211    0.0055 C.ar       1 <1>        0.000
      4 C4          0.4361   -1.3936   -0.0172 C.ar       1 <1>        0.000
      5 C5          2.8419    1.4041    0.0518 C.ar       1 <1>        0.000
      6 C6          0.3947    1.4055    0.0317 C.ar       1 <1>        0.000
      7 N1          4.0303   -0.5688    0.0262 N.ar       1 <1>        0.000
      8 C7         -0.7900   -0.7099   -0.0191 C.ar       1 <1>        0.000
      9 N3          4.0109    0.6876    0.0491 N.ar       1 <1>        0.000
     10 C8         -0.8110    0.6866    0.0055 C.ar       1 <1>        0.000
     11 C10        -1.9995   -1.4224   -0.0454 C.ar       1 <1>        0.000
     12 C12        -2.0406    1.3634    0.0034 C.ar       1 <1>        0.000
     13 C14        -3.2159   -0.7413   -0.0476 C.ar       1 <1>        0.000
     14 C16        -3.2359    0.6475   -0.0233 C.ar       1 <1>        0.000
     15 H           2.9375   -2.4097   -0.0107 H.spc      1 <1>        0.000
     16 H           0.4535   -2.4833   -0.0333 H.spc      1 <1>        0.000
     17 H           2.8619    2.4937    0.0710 H.spc      1 <1>        0.000
     18 H           0.3801    2.4952    0.0537 H.spc      1 <1>        0.000
     19 H          -1.9874   -2.5122   -0.0642 H.spc      1 <1>        0.000
     20 H          -2.0606    2.4530    0.0227 H.spc      1 <1>        0.000
     21 H          -4.1522   -1.2990   -0.0684 H.spc      1 <1>        0.000
     22 H          -4.1880    1.1781   -0.0251 H.spc      1 <1>        0.000
@<TRIPOS>BOND
     1    1    4 ar 
     2   12   14 ar 
     3   10   12 ar 
     4   11   13 ar 
     5    5    9 ar 
     6   13   14 ar 
     7    6   10 ar 
     8    8   10 ar 
     9    2    5 ar 
    10    3    7 ar 
    11    4    8 ar 
    12    8   11 ar 
    13    2    6 ar 
    14    1    2 ar 
    15    1    3 ar 
    16    7    9 ar 
    17    3   15 1  
    18    4   16 1  
    19    5   17 1  
    20    6   18 1  
    21   11   19 1  
    22   12   20 1  
    23   13   21 1  
    24   14   22 1  
# Name:          frag2-075-4/319335 -- energy: -0.525100
# Creation time: Sat Jun  5 12:51:58 2010


@<TRIPOS>MOLECULE
frag2-075-4/319335 -- energy: -0.525100
   22    24     1     1     1
SMALL
USER_CHARGES


@<TRIPOS>ATOM
      1 C1          1.6427   -0.6697    0.0055 C.ar       1 <1>        0.000
      2 C2          1.6220    0.7171    0.0295 C.ar       1 <1>        0.000
      3 C3          2.8842   -1.3211    0.0055 C.ar       1 <1>        0.000
      4 C4          0.4361   -1.3936   -0.0172 C.ar       1 <1>        0.000
      5 C5          2.8419    1.4041    0.0518 C.ar       1 <1>        0.000
      6 C6          0.3947    1.4055    0.0317 C.ar       1 <1>        0.000
      7 N1          4.0303   -0.5688    0.0262 N.ar       1 <1>        0.000
      8 C7         -0.7900   -0.7099   -0.0191 C.ar       1 <1>        0.000
      9 N3          4.0109    0.6876    0.0491 N.ar       1 <1>        0.000
     10 C8         -0.8110    0.6866    0.0055 C.ar       1 <1>        0.000
     11 C10        -1.9995   -1.4224   -0.0454 C.ar       1 <1>        0.000
     12 C12        -2.0406    1.3634    0.0034 C.ar       1 <1>        0.000
     13 C14        -3.2159   -0.7413   -0.0476 C.ar       1 <1>        0.000
     14 C16        -3.2359    0.6475   -0.0233 C.ar       1 <1>        0.000
     15 H           2.9375   -2.4097   -0.0107 H.spc      1 <1>        0.000
     16 H           0.4535   -2.4833   -0.0333 H.spc      1 <1>        0.000
     17 H           2.8619    2.4937    0.0710 H.spc      1 <1>        0.000
     18 H           0.3801    2.4952    0.0537 H.spc      1 <1>        0.000
     19 H          -1.9874   -2.5122   -0.0642 H.spc      1 <1>        0.000
     20 H          -2.0606    2.4530    0.0227 H.spc      1 <1>        0.000
     21 H          -4.1522   -1.2990   -0.0684 H.spc      1 <1>        0.000
     22 H          -4.1880    1.1781   -0.0251 H.spc      1 <1>        0.000
@<TRIPOS>BOND
     1    1    4 ar 
     2   12   14 ar 
     3   10   12 ar 
     4   11   13 ar 
     5    5    9 ar 
     6   13   14 ar 
     7    6   10 ar 
     8    8   10 ar 
     9    2    5 ar 
    10    3    7 ar 
    11    4    8 ar 
    12    8   11 ar 
    13    2    6 ar 
    14    1    2 ar 
    15    1    3 ar 
    16    7    9 ar 
    17    3   15 1  
    18    4   16 1  
    19    5   17 1  
    20    6   18 1  
    21   11   19 1  
    22   12   20 1  
    23   13   21 1  
    24   14   22 1  
