#      Rotatable Fragment
#      Build by yxyuan
#
# Name:          frag3-142-31/96164
# Creation time: Sat Jun  5 12:53:05 2010


@<TRIPOS>MOLECULE
frag3-142-31/96164
   11    10     1     1     1
SMALL
USER_CHARGES


@<TRIPOS>ATOM
      1 N1          1.3762   -0.4013   -0.2268 N.am       1 <1>        0.000
      2 C1          1.9678    0.7315    0.1504 C.2        1 <1>        0.000
      3 O1          1.5070   -1.6559    0.3421 O.3        1 <1>        0.000
      4 O2          2.0520    1.8946   -0.2535 O.2        1 <1>        0.000
      5 C5          2.6946   -2.3118    0.1650 C.2        1 <1>        0.000
      6 N2          2.9158   -3.0241    1.2786 N.am       1 <1>        0.000
      7 O3          3.4401   -2.1886   -0.7974 O.2        1 <1>        0.000
      8 H           0.7523   -0.3358   -1.0311 H.spc      1 <1>        0.000
      9 H           2.5345    0.5923    1.0710 H.spc      1 <1>        0.000
     10 H           3.7880   -3.5413    1.3883 H.spc      1 <1>        0.000
     11 H           2.2119   -3.0489    2.0164 H.spc      1 <1>        0.000
@<TRIPOS>BOND
     1    1    2 am 
     2    1    3 1  
     3    2    4 2  
     4    3    5 1  
     5    5    7 2  
     6    5    6 am 
     7    1    8 1  
     8    2    9 1  
     9    6   10 1  
    10    6   11 1  
# Name:          frag3-142-31/96164
# Creation time: Sat Jun  5 12:53:05 2010


@<TRIPOS>MOLECULE
frag3-142-31/96164
   11    10     1     1     1
SMALL
USER_CHARGES


@<TRIPOS>ATOM
      1 N1          2.1048   -0.2269   -0.2561 N.am       1 <1>        0.000
      2 C1          1.6654    0.9514    0.1560 C.2        1 <1>        0.000
      3 O1          2.1973   -1.3301    0.5345 O.3        1 <1>        0.000
      4 O2          1.4512    2.0722   -0.2648 O.2        1 <1>        0.000
      5 C5          2.7441   -2.4653    0.1724 C.2        1 <1>        0.000
      6 N2          2.4809   -3.2839    1.1958 N.am       1 <1>        0.000
      7 O3          3.3097   -2.6729   -0.8794 O.2        1 <1>        0.000
      8 H           2.3931   -0.3136   -1.2307 H.spc      1 <1>        0.000
      9 H           1.4141    0.9012    1.2155 H.spc      1 <1>        0.000
     10 H           2.7744   -4.2600    1.1567 H.spc      1 <1>        0.000
     11 H           1.9866   -2.9325    2.0159 H.spc      1 <1>        0.000
@<TRIPOS>BOND
     1    1    2 am 
     2    1    3 1  
     3    2    4 2  
     4    3    5 1  
     5    5    7 2  
     6    5    6 am 
     7    1    8 1  
     8    2    9 1  
     9    6   10 1  
    10    6   11 1  
# Name:          frag3-142-31/96164
# Creation time: Sat Jun  5 12:53:05 2010


@<TRIPOS>MOLECULE
frag3-142-31/96164
   11    10     1     1     1
SMALL
USER_CHARGES


@<TRIPOS>ATOM
      1 N1          1.4723   -0.2496    0.4259 N.am       1 <1>        0.000
      2 C1          2.1402    0.7321   -0.1724 C.2        1 <1>        0.000
      3 O1          1.6808   -1.5485    0.7963 O.3        1 <1>        0.000
      4 O2          1.7624    1.7306   -0.7830 O.2        1 <1>        0.000
      5 C5          2.7226   -2.2531    0.2750 C.2        1 <1>        0.000
      6 N2          2.4741   -3.5751    0.3899 N.am       1 <1>        0.000
      7 O3          3.7008   -1.7920   -0.2734 O.2        1 <1>        0.000
      8 H           0.5331    0.0545    0.6826 H.spc      1 <1>        0.000
      9 H           3.2240    0.6337   -0.1102 H.spc      1 <1>        0.000
     10 H           3.1302   -4.2530    0.0021 H.spc      1 <1>        0.000
     11 H           1.6302   -3.8960    0.8645 H.spc      1 <1>        0.000
@<TRIPOS>BOND
     1    1    2 am 
     2    1    3 1  
     3    2    4 2  
     4    3    5 1  
     5    5    7 2  
     6    5    6 am 
     7    1    8 1  
     8    2    9 1  
     9    6   10 1  
    10    6   11 1  
# Name:          frag3-142-31/96164
# Creation time: Sat Jun  5 12:53:05 2010


@<TRIPOS>MOLECULE
frag3-142-31/96164
   11    10     1     1     1
SMALL
USER_CHARGES


@<TRIPOS>ATOM
      1 N1          2.2044   -0.1217   -0.4535 N.am       1 <1>        0.000
      2 C1          1.6018    0.7597    0.3274 C.2        1 <1>        0.000
      3 O1          2.0567   -1.4620   -0.6117 O.3        1 <1>        0.000
      4 O2          1.5863    1.9681    0.4086 O.2        1 <1>        0.000
      5 C5          2.6402   -2.4628    0.0797 C.2        1 <1>        0.000
      6 N2          3.3033   -2.0104    1.1727 N.am       1 <1>        0.000
      7 O3          2.5606   -3.6264   -0.2648 O.2        1 <1>        0.000
      8 H           2.9206    0.2856   -1.0548 H.spc      1 <1>        0.000
      9 H           0.9679    0.2853    1.0766 H.spc      1 <1>        0.000
     10 H           3.7889   -2.6678    1.7830 H.spc      1 <1>        0.000
     11 H           3.3165   -1.0127    1.3845 H.spc      1 <1>        0.000
@<TRIPOS>BOND
     1    1    2 am 
     2    1    3 1  
     3    2    4 2  
     4    3    5 1  
     5    5    7 2  
     6    5    6 am 
     7    1    8 1  
     8    2    9 1  
     9    6   10 1  
    10    6   11 1  
# Name:          frag3-142-31/96164
# Creation time: Sat Jun  5 12:53:05 2010


@<TRIPOS>MOLECULE
frag3-142-31/96164
   11    10     1     1     1
SMALL
USER_CHARGES


@<TRIPOS>ATOM
      1 N1          1.2132   -0.4296   -0.0530 N.am       1 <1>        0.000
      2 C1          2.0798    0.5757   -0.1253 C.2        1 <1>        0.000
      3 O1          1.4138   -1.7870   -0.1489 O.3        1 <1>        0.000
      4 O2          2.1363    1.6920    0.3796 O.2        1 <1>        0.000
      5 C5          2.6751   -2.2644    0.0562 C.2        1 <1>        0.000
      6 N2          3.0271   -1.9803    1.3425 N.am       1 <1>        0.000
      7 O3          3.4080   -2.7619   -0.7927 O.2        1 <1>        0.000
      8 H           0.2441   -0.1495    0.0978 H.spc      1 <1>        0.000
      9 H           2.9268    0.3606   -0.7768 H.spc      1 <1>        0.000
     10 H           3.9719   -2.1828    1.6693 H.spc      1 <1>        0.000
     11 H           2.3457   -1.5652    1.9779 H.spc      1 <1>        0.000
@<TRIPOS>BOND
     1    1    2 am 
     2    1    3 1  
     3    2    4 2  
     4    3    5 1  
     5    5    7 2  
     6    5    6 am 
     7    1    8 1  
     8    2    9 1  
     9    6   10 1  
    10    6   11 1  
# Name:          frag3-142-31/96164 -- energy: -0.676210
# Creation time: Sat Jun  5 12:53:05 2010


@<TRIPOS>MOLECULE
frag3-142-31/96164 -- energy: -0.676210
   11    10     1     1     1
SMALL
USER_CHARGES


@<TRIPOS>ATOM
      1 N1          1.3762   -0.4013   -0.2268 N.am       1 <1>        0.000
      2 C1          1.9678    0.7315    0.1504 C.2        1 <1>        0.000
      3 O1          1.5070   -1.6559    0.3421 O.3        1 <1>        0.000
      4 O2          2.0520    1.8946   -0.2535 O.2        1 <1>        0.000
      5 C5          2.6946   -2.3118    0.1650 C.2        1 <1>        0.000
      6 N2          2.9158   -3.0241    1.2786 N.am       1 <1>        0.000
      7 O3          3.4401   -2.1886   -0.7974 O.2        1 <1>        0.000
      8 H           0.7523   -0.3358   -1.0311 H.spc      1 <1>        0.000
      9 H           2.5345    0.5923    1.0710 H.spc      1 <1>        0.000
     10 H           3.7880   -3.5413    1.3883 H.spc      1 <1>        0.000
     11 H           2.2119   -3.0489    2.0164 H.spc      1 <1>        0.000
@<TRIPOS>BOND
     1    1    2 am 
     2    1    3 1  
     3    2    4 2  
     4    3    5 1  
     5    5    7 2  
     6    5    6 am 
     7    1    8 1  
     8    2    9 1  
     9    6   10 1  
    10    6   11 1  
# Name:          frag3-142-31/96164 -- energy: -0.359378
# Creation time: Sat Jun  5 12:53:05 2010


@<TRIPOS>MOLECULE
frag3-142-31/96164 -- energy: -0.359378
   11    10     1     1     1
SMALL
USER_CHARGES


@<TRIPOS>ATOM
      1 N1          2.1048   -0.2269   -0.2561 N.am       1 <1>        0.000
      2 C1          1.6654    0.9514    0.1560 C.2        1 <1>        0.000
      3 O1          2.1973   -1.3301    0.5345 O.3        1 <1>        0.000
      4 O2          1.4512    2.0722   -0.2648 O.2        1 <1>        0.000
      5 C5          2.7441   -2.4653    0.1724 C.2        1 <1>        0.000
      6 N2          2.4809   -3.2839    1.1958 N.am       1 <1>        0.000
      7 O3          3.3097   -2.6729   -0.8794 O.2        1 <1>        0.000
      8 H           2.3931   -0.3136   -1.2307 H.spc      1 <1>        0.000
      9 H           1.4141    0.9012    1.2155 H.spc      1 <1>        0.000
     10 H           2.7744   -4.2600    1.1567 H.spc      1 <1>        0.000
     11 H           1.9866   -2.9325    2.0159 H.spc      1 <1>        0.000
@<TRIPOS>BOND
     1    1    2 am 
     2    1    3 1  
     3    2    4 2  
     4    3    5 1  
     5    5    7 2  
     6    5    6 am 
     7    1    8 1  
     8    2    9 1  
     9    6   10 1  
    10    6   11 1  
# Name:          frag3-142-31/96164 -- energy: -0.607570
# Creation time: Sat Jun  5 12:53:05 2010


@<TRIPOS>MOLECULE
frag3-142-31/96164 -- energy: -0.607570
   11    10     1     1     1
SMALL
USER_CHARGES


@<TRIPOS>ATOM
      1 N1          1.4723   -0.2496    0.4259 N.am       1 <1>        0.000
      2 C1          2.1402    0.7321   -0.1724 C.2        1 <1>        0.000
      3 O1          1.6808   -1.5485    0.7963 O.3        1 <1>        0.000
      4 O2          1.7624    1.7306   -0.7830 O.2        1 <1>        0.000
      5 C5          2.7226   -2.2531    0.2750 C.2        1 <1>        0.000
      6 N2          2.4741   -3.5751    0.3899 N.am       1 <1>        0.000
      7 O3          3.7008   -1.7920   -0.2734 O.2        1 <1>        0.000
      8 H           0.5331    0.0545    0.6826 H.spc      1 <1>        0.000
      9 H           3.2240    0.6337   -0.1102 H.spc      1 <1>        0.000
     10 H           3.1302   -4.2530    0.0021 H.spc      1 <1>        0.000
     11 H           1.6302   -3.8960    0.8645 H.spc      1 <1>        0.000
@<TRIPOS>BOND
     1    1    2 am 
     2    1    3 1  
     3    2    4 2  
     4    3    5 1  
     5    5    7 2  
     6    5    6 am 
     7    1    8 1  
     8    2    9 1  
     9    6   10 1  
    10    6   11 1  
# Name:          frag3-142-31/96164 -- energy: -0.636199
# Creation time: Sat Jun  5 12:53:05 2010


@<TRIPOS>MOLECULE
frag3-142-31/96164 -- energy: -0.636199
   11    10     1     1     1
SMALL
USER_CHARGES


@<TRIPOS>ATOM
      1 N1          2.2044   -0.1217   -0.4535 N.am       1 <1>        0.000
      2 C1          1.6018    0.7597    0.3274 C.2        1 <1>        0.000
      3 O1          2.0567   -1.4620   -0.6117 O.3        1 <1>        0.000
      4 O2          1.5863    1.9681    0.4086 O.2        1 <1>        0.000
      5 C5          2.6402   -2.4628    0.0797 C.2        1 <1>        0.000
      6 N2          3.3033   -2.0104    1.1727 N.am       1 <1>        0.000
      7 O3          2.5606   -3.6264   -0.2648 O.2        1 <1>        0.000
      8 H           2.9206    0.2856   -1.0548 H.spc      1 <1>        0.000
      9 H           0.9679    0.2853    1.0766 H.spc      1 <1>        0.000
     10 H           3.7889   -2.6678    1.7830 H.spc      1 <1>        0.000
     11 H           3.3165   -1.0127    1.3845 H.spc      1 <1>        0.000
@<TRIPOS>BOND
     1    1    2 am 
     2    1    3 1  
     3    2    4 2  
     4    3    5 1  
     5    5    7 2  
     6    5    6 am 
     7    1    8 1  
     8    2    9 1  
     9    6   10 1  
    10    6   11 1  
# Name:          frag3-142-31/96164 -- energy: -0.825482
# Creation time: Sat Jun  5 12:53:05 2010


@<TRIPOS>MOLECULE
frag3-142-31/96164 -- energy: -0.825482
   11    10     1     1     1
SMALL
USER_CHARGES


@<TRIPOS>ATOM
      1 N1          1.2132   -0.4296   -0.0530 N.am       1 <1>        0.000
      2 C1          2.0798    0.5757   -0.1253 C.2        1 <1>        0.000
      3 O1          1.4138   -1.7870   -0.1489 O.3        1 <1>        0.000
      4 O2          2.1363    1.6920    0.3796 O.2        1 <1>        0.000
      5 C5          2.6751   -2.2644    0.0562 C.2        1 <1>        0.000
      6 N2          3.0271   -1.9803    1.3425 N.am       1 <1>        0.000
      7 O3          3.4080   -2.7619   -0.7927 O.2        1 <1>        0.000
      8 H           0.2441   -0.1495    0.0978 H.spc      1 <1>        0.000
      9 H           2.9268    0.3606   -0.7768 H.spc      1 <1>        0.000
     10 H           3.9719   -2.1828    1.6693 H.spc      1 <1>        0.000
     11 H           2.3457   -1.5652    1.9779 H.spc      1 <1>        0.000
@<TRIPOS>BOND
     1    1    2 am 
     2    1    3 1  
     3    2    4 2  
     4    3    5 1  
     5    5    7 2  
     6    5    6 am 
     7    1    8 1  
     8    2    9 1  
     9    6   10 1  
    10    6   11 1  
