#      Rotatable Fragment
#      Build by yxyuan
#
# Name:          frag4-459-38/48856
# Creation time: Sat Jun  5 12:52:48 2010


@<TRIPOS>MOLECULE
frag4-459-38/48856
   28    29     1     1     1
SMALL
USER_CHARGES


@<TRIPOS>ATOM
      1 C12        -2.8375   -0.2320    0.9584 C.3        1 <1>        0.000
      2 C13        -3.7072    1.0137    0.9672 C.3        1 <1>        0.000
      3 C14        -5.2046    0.6507    1.0179 C.3        1 <1>        0.000
      4 C15        -5.5910   -0.3357   -0.0611 C.3        1 <1>        0.000
      5 C16        -4.7157   -1.5644   -0.0619 C.3        1 <1>        0.000
      6 C17        -3.2408   -1.2239   -0.1207 C.3        1 <1>        0.000
      7 C19        -6.0843    1.9089    1.0090 C.3        1 <1>        0.000
      8 C20        -5.6872    2.9700    2.0395 C.3        1 <1>        0.000
      9 C21        -4.1949    3.2877    1.9741 C.3        1 <1>        0.000
     10 C22        -3.3257    2.0404    2.0273 C.3        1 <1>        0.000
     11 H          -1.8116    0.0783    0.7602 H.spc      1 <1>        0.000
     12 H          -2.9503   -0.7249    1.9240 H.spc      1 <1>        0.000
     13 H          -3.5122    1.5148    0.0190 H.spc      1 <1>        0.000
     14 H          -5.3845    0.1433    1.9657 H.spc      1 <1>        0.000
     15 H          -6.6166   -0.6538    0.1261 H.spc      1 <1>        0.000
     16 H          -5.4764    0.1592   -1.0255 H.spc      1 <1>        0.000
     17 H          -4.9612   -2.1524   -0.9463 H.spc      1 <1>        0.000
     18 H          -4.8990   -2.1092    0.8642 H.spc      1 <1>        0.000
     19 H          -3.0354   -0.7718   -1.0910 H.spc      1 <1>        0.000
     20 H          -2.6742   -2.1422    0.0336 H.spc      1 <1>        0.000
     21 H          -5.9780    2.3651    0.0248 H.spc      1 <1>        0.000
     22 H          -7.0978    1.5908    1.2535 H.spc      1 <1>        0.000
     23 H          -6.2430    3.8828    1.8251 H.spc      1 <1>        0.000
     24 H          -5.9139    2.5856    3.0340 H.spc      1 <1>        0.000
     25 H          -3.9464    3.9056    2.8369 H.spc      1 <1>        0.000
     26 H          -4.0011    3.7902    1.0265 H.spc      1 <1>        0.000
     27 H          -3.4615    1.5787    3.0053 H.spc      1 <1>        0.000
     28 H          -2.2943    2.3426    1.8455 H.spc      1 <1>        0.000
@<TRIPOS>BOND
     1    2    3 1  
     2    8    9 1  
     3    4    5 1  
     4    9   10 1  
     5    5    6 1  
     6    1    6 1  
     7    7    8 1  
     8    3    7 1  
     9    1    2 1  
    10    3    4 1  
    11    2   10 1  
    12    1   11 1  
    13    1   12 1  
    14    2   13 1  
    15    3   14 1  
    16    4   15 1  
    17    4   16 1  
    18    5   17 1  
    19    5   18 1  
    20    6   19 1  
    21    6   20 1  
    22    7   21 1  
    23    7   22 1  
    24    8   23 1  
    25    8   24 1  
    26    9   25 1  
    27    9   26 1  
    28   10   27 1  
    29   10   28 1  
# Name:          frag4-459-38/48856 -- energy: -4.046343
# Creation time: Sat Jun  5 12:52:48 2010


@<TRIPOS>MOLECULE
frag4-459-38/48856 -- energy: -4.046343
   28    29     1     1     1
SMALL
USER_CHARGES


@<TRIPOS>ATOM
      1 C12        -2.8375   -0.2320    0.9584 C.3        1 <1>        0.000
      2 C13        -3.7072    1.0137    0.9672 C.3        1 <1>        0.000
      3 C14        -5.2046    0.6507    1.0179 C.3        1 <1>        0.000
      4 C15        -5.5910   -0.3357   -0.0611 C.3        1 <1>        0.000
      5 C16        -4.7157   -1.5644   -0.0619 C.3        1 <1>        0.000
      6 C17        -3.2408   -1.2239   -0.1207 C.3        1 <1>        0.000
      7 C19        -6.0843    1.9089    1.0090 C.3        1 <1>        0.000
      8 C20        -5.6872    2.9700    2.0395 C.3        1 <1>        0.000
      9 C21        -4.1949    3.2877    1.9741 C.3        1 <1>        0.000
     10 C22        -3.3257    2.0404    2.0273 C.3        1 <1>        0.000
     11 H          -1.8116    0.0783    0.7602 H.spc      1 <1>        0.000
     12 H          -2.9503   -0.7249    1.9240 H.spc      1 <1>        0.000
     13 H          -3.5122    1.5148    0.0190 H.spc      1 <1>        0.000
     14 H          -5.3845    0.1433    1.9657 H.spc      1 <1>        0.000
     15 H          -6.6166   -0.6538    0.1261 H.spc      1 <1>        0.000
     16 H          -5.4764    0.1592   -1.0255 H.spc      1 <1>        0.000
     17 H          -4.9612   -2.1524   -0.9463 H.spc      1 <1>        0.000
     18 H          -4.8990   -2.1092    0.8642 H.spc      1 <1>        0.000
     19 H          -3.0354   -0.7718   -1.0910 H.spc      1 <1>        0.000
     20 H          -2.6742   -2.1422    0.0336 H.spc      1 <1>        0.000
     21 H          -5.9780    2.3651    0.0248 H.spc      1 <1>        0.000
     22 H          -7.0978    1.5908    1.2535 H.spc      1 <1>        0.000
     23 H          -6.2430    3.8828    1.8251 H.spc      1 <1>        0.000
     24 H          -5.9139    2.5856    3.0340 H.spc      1 <1>        0.000
     25 H          -3.9464    3.9056    2.8369 H.spc      1 <1>        0.000
     26 H          -4.0011    3.7902    1.0265 H.spc      1 <1>        0.000
     27 H          -3.4615    1.5787    3.0053 H.spc      1 <1>        0.000
     28 H          -2.2943    2.3426    1.8455 H.spc      1 <1>        0.000
@<TRIPOS>BOND
     1    2    3 1  
     2    8    9 1  
     3    4    5 1  
     4    9   10 1  
     5    5    6 1  
     6    1    6 1  
     7    7    8 1  
     8    3    7 1  
     9    1    2 1  
    10    3    4 1  
    11    2   10 1  
    12    1   11 1  
    13    1   12 1  
    14    2   13 1  
    15    3   14 1  
    16    4   15 1  
    17    4   16 1  
    18    5   17 1  
    19    5   18 1  
    20    6   19 1  
    21    6   20 1  
    22    7   21 1  
    23    7   22 1  
    24    8   23 1  
    25    8   24 1  
    26    9   25 1  
    27    9   26 1  
    28   10   27 1  
    29   10   28 1  
