#      Rotatable Fragment
#      Build by yxyuan
#
# Name:          frag5-655-72/138278
# Creation time: Sat Jun  5 12:53:51 2010


@<TRIPOS>MOLECULE
frag5-655-72/138278
   15    15     1     1     1
SMALL
USER_CHARGES


@<TRIPOS>ATOM
      1 C10         0.4044    0.5969   -0.4057 C.2        1 <1>        0.000
      2 N3          1.7236    0.5424   -0.1909 N.am       1 <1>        0.000
      3 O2         -0.2454    1.5831   -0.7920 O.2        1 <1>        0.000
      4 C11         2.7860   -0.3244   -0.1021 C.ar       1 <1>        0.000
      5 C12         2.7620   -1.6817   -0.3230 C.ar       1 <1>        0.000
      6 N4          4.0103    0.1313    0.2126 N.ar       1 <1>        0.000
      7 C13         3.9342   -2.4483   -0.1733 C.ar       1 <1>        0.000
      8 C14         5.1960   -0.4405   -0.0153 C.ar       1 <1>        0.000
      9 C15         5.1779   -1.8102   -0.0739 C.ar       1 <1>        0.000
     10 H          -0.1587   -0.3183   -0.2230 H.spc      1 <1>        0.000
     11 H           2.0659    1.4908   -0.0367 H.spc      1 <1>        0.000
     12 H           1.8308   -2.1668   -0.6155 H.spc      1 <1>        0.000
     13 H           3.8740   -3.5360   -0.1348 H.spc      1 <1>        0.000
     14 H           6.1101    0.1389   -0.1450 H.spc      1 <1>        0.000
     15 H           6.1032   -2.3856   -0.0441 H.spc      1 <1>        0.000
@<TRIPOS>BOND
     1    1    2 am 
     2    1    3 2  
     3    2    4 1  
     4    4    5 ar 
     5    4    6 ar 
     6    5    7 ar 
     7    6    8 ar 
     8    7    9 ar 
     9    8    9 ar 
    10    1   10 1  
    11    2   11 1  
    12    5   12 1  
    13    7   13 1  
    14    8   14 1  
    15    9   15 1  
# Name:          frag5-655-72/138278
# Creation time: Sat Jun  5 12:53:51 2010


@<TRIPOS>MOLECULE
frag5-655-72/138278
   15    15     1     1     1
SMALL
USER_CHARGES


@<TRIPOS>ATOM
      1 C10         0.6791    0.8541   -0.6794 C.2        1 <1>        0.000
      2 N3          2.0196    1.0048   -0.7503 N.am       1 <1>        0.000
      3 O2         -0.0010    0.1983    0.1090 O.2        1 <1>        0.000
      4 C11         2.9227    0.0112   -0.4381 C.ar       1 <1>        0.000
      5 C12         2.6209   -1.3230   -0.5713 C.ar       1 <1>        0.000
      6 N4          4.0899    0.2495    0.1524 N.ar       1 <1>        0.000
      7 C13         3.5024   -2.3081   -0.1409 C.ar       1 <1>        0.000
      8 C14         5.1221   -0.6070    0.2425 C.ar       1 <1>        0.000
      9 C15         4.7933   -1.9311    0.2128 C.ar       1 <1>        0.000
     10 H           0.1131    1.3966   -1.4367 H.spc      1 <1>        0.000
     11 H           2.3854    1.9076   -1.0529 H.spc      1 <1>        0.000
     12 H           1.6726   -1.6142   -1.0229 H.spc      1 <1>        0.000
     13 H           3.1893   -3.3505   -0.0821 H.spc      1 <1>        0.000
     14 H           6.1535   -0.2664    0.3333 H.spc      1 <1>        0.000
     15 H           5.5368   -2.6874    0.4644 H.spc      1 <1>        0.000
@<TRIPOS>BOND
     1    1    2 am 
     2    1    3 2  
     3    2    4 1  
     4    4    5 ar 
     5    4    6 ar 
     6    5    7 ar 
     7    6    8 ar 
     8    7    9 ar 
     9    8    9 ar 
    10    1   10 1  
    11    2   11 1  
    12    5   12 1  
    13    7   13 1  
    14    8   14 1  
    15    9   15 1  
# Name:          frag5-655-72/138278
# Creation time: Sat Jun  5 12:53:51 2010


@<TRIPOS>MOLECULE
frag5-655-72/138278
   15    15     1     1     1
SMALL
USER_CHARGES


@<TRIPOS>ATOM
      1 C10         0.7459    0.9204   -0.3681 C.2        1 <1>        0.000
      2 N3          1.6168    0.6216    0.6337 N.am       1 <1>        0.000
      3 O2          0.7344    0.4213   -1.4899 O.2        1 <1>        0.000
      4 C11         2.6838   -0.2047    0.3416 C.ar       1 <1>        0.000
      5 C12         2.5199   -1.4906   -0.1244 C.ar       1 <1>        0.000
      6 N4          3.9678    0.1495    0.4687 N.ar       1 <1>        0.000
      7 C13         3.6328   -2.2773   -0.4552 C.ar       1 <1>        0.000
      8 C14         4.9635   -0.3202   -0.2795 C.ar       1 <1>        0.000
      9 C15         4.8841   -1.6713   -0.5904 C.ar       1 <1>        0.000
     10 H          -0.0127    1.6735   -0.1548 H.spc      1 <1>        0.000
     11 H           1.4853    0.9970    1.5729 H.spc      1 <1>        0.000
     12 H           1.5162   -1.9004   -0.2371 H.spc      1 <1>        0.000
     13 H           3.5224   -3.3513   -0.6054 H.spc      1 <1>        0.000
     14 H           5.7829    0.3108   -0.6237 H.spc      1 <1>        0.000
     15 H           5.7569   -2.2324   -0.9242 H.spc      1 <1>        0.000
@<TRIPOS>BOND
     1    1    2 am 
     2    1    3 2  
     3    2    4 1  
     4    4    5 ar 
     5    4    6 ar 
     6    5    7 ar 
     7    6    8 ar 
     8    7    9 ar 
     9    8    9 ar 
    10    1   10 1  
    11    2   11 1  
    12    5   12 1  
    13    7   13 1  
    14    8   14 1  
    15    9   15 1  
# Name:          frag5-655-72/138278 -- energy: -0.208556
# Creation time: Sat Jun  5 12:53:51 2010


@<TRIPOS>MOLECULE
frag5-655-72/138278 -- energy: -0.208556
   15    15     1     1     1
SMALL
USER_CHARGES


@<TRIPOS>ATOM
      1 C10         0.4044    0.5969   -0.4057 C.2        1 <1>        0.000
      2 N3          1.7236    0.5424   -0.1909 N.am       1 <1>        0.000
      3 O2         -0.2454    1.5831   -0.7920 O.2        1 <1>        0.000
      4 C11         2.7860   -0.3244   -0.1021 C.ar       1 <1>        0.000
      5 C12         2.7620   -1.6817   -0.3230 C.ar       1 <1>        0.000
      6 N4          4.0103    0.1313    0.2126 N.ar       1 <1>        0.000
      7 C13         3.9342   -2.4483   -0.1733 C.ar       1 <1>        0.000
      8 C14         5.1960   -0.4405   -0.0153 C.ar       1 <1>        0.000
      9 C15         5.1779   -1.8102   -0.0739 C.ar       1 <1>        0.000
     10 H          -0.1587   -0.3183   -0.2230 H.spc      1 <1>        0.000
     11 H           2.0659    1.4908   -0.0367 H.spc      1 <1>        0.000
     12 H           1.8308   -2.1668   -0.6155 H.spc      1 <1>        0.000
     13 H           3.8740   -3.5360   -0.1348 H.spc      1 <1>        0.000
     14 H           6.1101    0.1389   -0.1450 H.spc      1 <1>        0.000
     15 H           6.1032   -2.3856   -0.0441 H.spc      1 <1>        0.000
@<TRIPOS>BOND
     1    1    2 am 
     2    1    3 2  
     3    2    4 1  
     4    4    5 ar 
     5    4    6 ar 
     6    5    7 ar 
     7    6    8 ar 
     8    7    9 ar 
     9    8    9 ar 
    10    1   10 1  
    11    2   11 1  
    12    5   12 1  
    13    7   13 1  
    14    8   14 1  
    15    9   15 1  
# Name:          frag5-655-72/138278 -- energy: -0.265614
# Creation time: Sat Jun  5 12:53:51 2010


@<TRIPOS>MOLECULE
frag5-655-72/138278 -- energy: -0.265614
   15    15     1     1     1
SMALL
USER_CHARGES


@<TRIPOS>ATOM
      1 C10         0.6791    0.8541   -0.6794 C.2        1 <1>        0.000
      2 N3          2.0196    1.0048   -0.7503 N.am       1 <1>        0.000
      3 O2         -0.0010    0.1983    0.1090 O.2        1 <1>        0.000
      4 C11         2.9227    0.0112   -0.4381 C.ar       1 <1>        0.000
      5 C12         2.6209   -1.3230   -0.5713 C.ar       1 <1>        0.000
      6 N4          4.0899    0.2495    0.1524 N.ar       1 <1>        0.000
      7 C13         3.5024   -2.3081   -0.1409 C.ar       1 <1>        0.000
      8 C14         5.1221   -0.6070    0.2425 C.ar       1 <1>        0.000
      9 C15         4.7933   -1.9311    0.2128 C.ar       1 <1>        0.000
     10 H           0.1131    1.3966   -1.4367 H.spc      1 <1>        0.000
     11 H           2.3854    1.9076   -1.0529 H.spc      1 <1>        0.000
     12 H           1.6726   -1.6142   -1.0229 H.spc      1 <1>        0.000
     13 H           3.1893   -3.3505   -0.0821 H.spc      1 <1>        0.000
     14 H           6.1535   -0.2664    0.3333 H.spc      1 <1>        0.000
     15 H           5.5368   -2.6874    0.4644 H.spc      1 <1>        0.000
@<TRIPOS>BOND
     1    1    2 am 
     2    1    3 2  
     3    2    4 1  
     4    4    5 ar 
     5    4    6 ar 
     6    5    7 ar 
     7    6    8 ar 
     8    7    9 ar 
     9    8    9 ar 
    10    1   10 1  
    11    2   11 1  
    12    5   12 1  
    13    7   13 1  
    14    8   14 1  
    15    9   15 1  
# Name:          frag5-655-72/138278 -- energy: -0.216628
# Creation time: Sat Jun  5 12:53:51 2010


@<TRIPOS>MOLECULE
frag5-655-72/138278 -- energy: -0.216628
   15    15     1     1     1
SMALL
USER_CHARGES


@<TRIPOS>ATOM
      1 C10         0.7459    0.9204   -0.3681 C.2        1 <1>        0.000
      2 N3          1.6168    0.6216    0.6337 N.am       1 <1>        0.000
      3 O2          0.7344    0.4213   -1.4899 O.2        1 <1>        0.000
      4 C11         2.6838   -0.2047    0.3416 C.ar       1 <1>        0.000
      5 C12         2.5199   -1.4906   -0.1244 C.ar       1 <1>        0.000
      6 N4          3.9678    0.1495    0.4687 N.ar       1 <1>        0.000
      7 C13         3.6328   -2.2773   -0.4552 C.ar       1 <1>        0.000
      8 C14         4.9635   -0.3202   -0.2795 C.ar       1 <1>        0.000
      9 C15         4.8841   -1.6713   -0.5904 C.ar       1 <1>        0.000
     10 H          -0.0127    1.6735   -0.1548 H.spc      1 <1>        0.000
     11 H           1.4853    0.9970    1.5729 H.spc      1 <1>        0.000
     12 H           1.5162   -1.9004   -0.2371 H.spc      1 <1>        0.000
     13 H           3.5224   -3.3513   -0.6054 H.spc      1 <1>        0.000
     14 H           5.7829    0.3108   -0.6237 H.spc      1 <1>        0.000
     15 H           5.7569   -2.2324   -0.9242 H.spc      1 <1>        0.000
@<TRIPOS>BOND
     1    1    2 am 
     2    1    3 2  
     3    2    4 1  
     4    4    5 ar 
     5    4    6 ar 
     6    5    7 ar 
     7    6    8 ar 
     8    7    9 ar 
     9    8    9 ar 
    10    1   10 1  
    11    2   11 1  
    12    5   12 1  
    13    7   13 1  
    14    8   14 1  
    15    9   15 1  
