#      Rotatable Fragment
#      Build by yxyuan
#
# Name:          frag4-453-112/150395
# Creation time: Sat Jun  5 12:53:37 2010


@<TRIPOS>MOLECULE
frag4-453-112/150395
   15    16     1     1     1
SMALL
USER_CHARGES


@<TRIPOS>ATOM
      1 C1          0.5730    0.8310   -0.0674 C.2        1 <1>        0.000
      2 C2          0.4260   -0.6581    0.0962 C.2        1 <1>        0.000
      3 C3         -0.5790    1.6584   -0.2359 C.2        1 <1>        0.000
      4 O1          1.8288    1.0765   -0.0237 O.3        1 <1>        0.000
      5 C4         -0.9082   -1.2634    0.1180 C.2        1 <1>        0.000
      6 N1          1.6034   -1.1769    0.2046 N.2        1 <1>        0.000
      7 C5         -1.7594    1.0327   -0.2178 C.2        1 <1>        0.000
      8 C6          2.4701   -0.0624    0.1286 C.3        1 <1>        0.000
      9 C7         -1.9246   -0.3830   -0.0251 C.2        1 <1>        0.000
     10 H          -0.4998    2.7371   -0.3713 H.spc      1 <1>        0.000
     11 H          -1.0682   -2.3347    0.2395 H.spc      1 <1>        0.000
     12 H          -2.6568    1.6352   -0.3584 H.spc      1 <1>        0.000
     13 H           3.0257   -0.0087    1.0648 H.spc      1 <1>        0.000
     14 H           3.1139   -0.2003   -0.7401 H.spc      1 <1>        0.000
     15 H          -2.9415   -0.7741    0.0079 H.spc      1 <1>        0.000
@<TRIPOS>BOND
     1    7    9 1  
     2    1    2 1  
     3    1    3 1  
     4    1    4 2  
     5    2    5 1  
     6    2    6 2  
     7    3    7 2  
     8    4    8 1  
     9    5    9 2  
    10    6    8 1  
    11    3   10 1  
    12    5   11 1  
    13    7   12 1  
    14    8   13 1  
    15    8   14 1  
    16    9   15 1  
# Name:          frag4-453-112/150395 -- energy: -0.564375
# Creation time: Sat Jun  5 12:53:37 2010


@<TRIPOS>MOLECULE
frag4-453-112/150395 -- energy: -0.564375
   15    16     1     1     1
SMALL
USER_CHARGES


@<TRIPOS>ATOM
      1 C1          0.5730    0.8310   -0.0674 C.2        1 <1>        0.000
      2 C2          0.4260   -0.6581    0.0962 C.2        1 <1>        0.000
      3 C3         -0.5790    1.6584   -0.2359 C.2        1 <1>        0.000
      4 O1          1.8288    1.0765   -0.0237 O.3        1 <1>        0.000
      5 C4         -0.9082   -1.2634    0.1180 C.2        1 <1>        0.000
      6 N1          1.6034   -1.1769    0.2046 N.2        1 <1>        0.000
      7 C5         -1.7594    1.0327   -0.2178 C.2        1 <1>        0.000
      8 C6          2.4701   -0.0624    0.1286 C.3        1 <1>        0.000
      9 C7         -1.9246   -0.3830   -0.0251 C.2        1 <1>        0.000
     10 H          -0.4998    2.7371   -0.3713 H.spc      1 <1>        0.000
     11 H          -1.0682   -2.3347    0.2395 H.spc      1 <1>        0.000
     12 H          -2.6568    1.6352   -0.3584 H.spc      1 <1>        0.000
     13 H           3.0257   -0.0087    1.0648 H.spc      1 <1>        0.000
     14 H           3.1139   -0.2003   -0.7401 H.spc      1 <1>        0.000
     15 H          -2.9415   -0.7741    0.0079 H.spc      1 <1>        0.000
@<TRIPOS>BOND
     1    7    9 1  
     2    1    2 1  
     3    1    3 1  
     4    1    4 2  
     5    2    5 1  
     6    2    6 2  
     7    3    7 2  
     8    4    8 1  
     9    5    9 2  
    10    6    8 1  
    11    3   10 1  
    12    5   11 1  
    13    7   12 1  
    14    8   13 1  
    15    8   14 1  
    16    9   15 1  
