#      Rotatable Fragment
#      Build by yxyuan
#
# Name:          frag2-064-3/92655
# Creation time: Sat Jun  5 12:51:58 2010


@<TRIPOS>MOLECULE
frag2-064-3/92655
   15    16     1     1     1
SMALL
USER_CHARGES


@<TRIPOS>ATOM
      1 C2         -2.0226    1.0616   -0.0378 C.ar       1 <1>        0.000
      2 N2         -0.7603    1.5514    0.0312 N.ar       1 <1>        0.000
      3 C3          0.3221    0.7413    0.0415 C.ar       1 <1>        0.000
      4 C4          0.1430   -0.6496   -0.0189 C.ar       1 <1>        0.000
      5 N3          1.2337   -1.4480   -0.0074 N.ar       1 <1>        0.000
      6 C5          2.4759   -0.9315    0.0593 C.ar       1 <1>        0.000
      7 N4          2.6662    0.4054    0.1184 N.ar       1 <1>        0.000
      8 C6          1.6135    1.2400    0.1110 C.ar       1 <1>        0.000
      9 C7         -1.1459   -1.1656   -0.0883 C.ar       1 <1>        0.000
     10 C8         -2.2333   -0.3115   -0.0997 C.ar       1 <1>        0.000
     11 H          -2.8724    1.7442   -0.0448 H.spc      1 <1>        0.000
     12 H           3.3374   -1.5992    0.0657 H.spc      1 <1>        0.000
     13 H           1.7760    2.3167    0.1600 H.spc      1 <1>        0.000
     14 H          -1.2994   -2.2438   -0.1337 H.spc      1 <1>        0.000
     15 H          -3.2460   -0.7107   -0.1567 H.spc      1 <1>        0.000
@<TRIPOS>BOND
     1    9   10 ar 
     2    1    2 ar 
     3    1   10 ar 
     4    2    3 ar 
     5    3    4 ar 
     6    3    8 ar 
     7    4    5 ar 
     8    4    9 ar 
     9    5    6 ar 
    10    6    7 ar 
    11    7    8 ar 
    12    1   11 1  
    13    6   12 1  
    14    8   13 1  
    15    9   14 1  
    16   10   15 1  
# Name:          frag2-064-3/92655 -- energy: 0.207324
# Creation time: Sat Jun  5 12:51:58 2010


@<TRIPOS>MOLECULE
frag2-064-3/92655 -- energy: 0.207324
   15    16     1     1     1
SMALL
USER_CHARGES


@<TRIPOS>ATOM
      1 C2         -2.0226    1.0616   -0.0378 C.ar       1 <1>        0.000
      2 N2         -0.7603    1.5514    0.0312 N.ar       1 <1>        0.000
      3 C3          0.3221    0.7413    0.0415 C.ar       1 <1>        0.000
      4 C4          0.1430   -0.6496   -0.0189 C.ar       1 <1>        0.000
      5 N3          1.2337   -1.4480   -0.0074 N.ar       1 <1>        0.000
      6 C5          2.4759   -0.9315    0.0593 C.ar       1 <1>        0.000
      7 N4          2.6662    0.4054    0.1184 N.ar       1 <1>        0.000
      8 C6          1.6135    1.2400    0.1110 C.ar       1 <1>        0.000
      9 C7         -1.1459   -1.1656   -0.0883 C.ar       1 <1>        0.000
     10 C8         -2.2333   -0.3115   -0.0997 C.ar       1 <1>        0.000
     11 H          -2.8724    1.7442   -0.0448 H.spc      1 <1>        0.000
     12 H           3.3374   -1.5992    0.0657 H.spc      1 <1>        0.000
     13 H           1.7760    2.3167    0.1600 H.spc      1 <1>        0.000
     14 H          -1.2994   -2.2438   -0.1337 H.spc      1 <1>        0.000
     15 H          -3.2460   -0.7107   -0.1567 H.spc      1 <1>        0.000
@<TRIPOS>BOND
     1    9   10 ar 
     2    1    2 ar 
     3    1   10 ar 
     4    2    3 ar 
     5    3    4 ar 
     6    3    8 ar 
     7    4    5 ar 
     8    4    9 ar 
     9    5    6 ar 
    10    6    7 ar 
    11    7    8 ar 
    12    1   11 1  
    13    6   12 1  
    14    8   13 1  
    15    9   14 1  
    16   10   15 1  
