#      Rotatable Fragment
#      Build by yxyuan
#
# Name:          frag4-426-48/48856
# Creation time: Sat Jun  5 12:52:21 2010


@<TRIPOS>MOLECULE
frag4-426-48/48856
   15    16     1     1     1
SMALL
USER_CHARGES


@<TRIPOS>ATOM
      1 N1          1.6670   -1.1959    0.0080 N.2        1 <1>        0.000
      2 C1          0.3313   -0.8350    0.0131 C.2        1 <1>        0.000
      3 C2          0.3549    0.6633   -0.0387 C.2        1 <1>        0.000
      4 C3         -0.8366    1.5376   -0.0037 C.2        1 <1>        0.000
      5 C4         -2.0286    0.8930    0.0395 C.2        1 <1>        0.000
      6 C5         -2.1380   -0.5803    0.0208 C.3        1 <1>        0.000
      7 C6         -0.8913   -1.3829    0.0684 C.2        1 <1>        0.000
      8 N2          1.6256    0.9330   -0.0920 N.2        1 <1>        0.000
      9 C7          2.4171   -0.1828   -0.0614 C.2        1 <1>        0.000
     10 H          -0.7620    2.6250   -0.0120 H.spc      1 <1>        0.000
     11 H          -2.9423    1.4851    0.0900 H.spc      1 <1>        0.000
     12 H          -2.6778   -0.8377    0.9321 H.spc      1 <1>        0.000
     13 H          -2.5950   -0.8201   -0.9393 H.spc      1 <1>        0.000
     14 H          -0.9728   -2.4666    0.1521 H.spc      1 <1>        0.000
     15 H           3.5066   -0.1948   -0.0917 H.spc      1 <1>        0.000
@<TRIPOS>BOND
     1    8    9 1  
     2    6    7 1  
     3    1    2 1  
     4    1    9 2  
     5    2    3 1  
     6    3    4 1  
     7    2    7 2  
     8    3    8 2  
     9    4    5 2  
    10    5    6 1  
    11    4   10 1  
    12    5   11 1  
    13    6   12 1  
    14    6   13 1  
    15    7   14 1  
    16    9   15 1  
# Name:          frag4-426-48/48856 -- energy: -0.723918
# Creation time: Sat Jun  5 12:52:21 2010


@<TRIPOS>MOLECULE
frag4-426-48/48856 -- energy: -0.723918
   15    16     1     1     1
SMALL
USER_CHARGES


@<TRIPOS>ATOM
      1 N1          1.6670   -1.1959    0.0080 N.2        1 <1>        0.000
      2 C1          0.3313   -0.8350    0.0131 C.2        1 <1>        0.000
      3 C2          0.3549    0.6633   -0.0387 C.2        1 <1>        0.000
      4 C3         -0.8366    1.5376   -0.0037 C.2        1 <1>        0.000
      5 C4         -2.0286    0.8930    0.0395 C.2        1 <1>        0.000
      6 C5         -2.1380   -0.5803    0.0208 C.3        1 <1>        0.000
      7 C6         -0.8913   -1.3829    0.0684 C.2        1 <1>        0.000
      8 N2          1.6256    0.9330   -0.0920 N.2        1 <1>        0.000
      9 C7          2.4171   -0.1828   -0.0614 C.2        1 <1>        0.000
     10 H          -0.7620    2.6250   -0.0120 H.spc      1 <1>        0.000
     11 H          -2.9423    1.4851    0.0900 H.spc      1 <1>        0.000
     12 H          -2.6778   -0.8377    0.9321 H.spc      1 <1>        0.000
     13 H          -2.5950   -0.8201   -0.9393 H.spc      1 <1>        0.000
     14 H          -0.9728   -2.4666    0.1521 H.spc      1 <1>        0.000
     15 H           3.5066   -0.1948   -0.0917 H.spc      1 <1>        0.000
@<TRIPOS>BOND
     1    8    9 1  
     2    6    7 1  
     3    1    2 1  
     4    1    9 2  
     5    2    3 1  
     6    3    4 1  
     7    2    7 2  
     8    3    8 2  
     9    4    5 2  
    10    5    6 1  
    11    4   10 1  
    12    5   11 1  
    13    6   12 1  
    14    6   13 1  
    15    7   14 1  
    16    9   15 1  
