#      Rotatable Fragment
#      Build by yxyuan
#
# Name:          frag4-419-148/150395
# Creation time: Sat Jun  5 12:53:35 2010


@<TRIPOS>MOLECULE
frag4-419-148/150395
    7     7     1     1     1
SMALL
USER_CHARGES


@<TRIPOS>ATOM
      1 N1          1.0826    0.3167   -0.0579 N.ar       1 <1>        0.000
      2 C15        -0.2774    0.6350    0.0912 C.ar       1 <1>        0.000
      3 N2          1.1777   -0.9987   -0.3295 N.ar       1 <1>        0.000
      4 C16        -0.9976   -0.4943    0.0107 C.ar       1 <1>        0.000
      5 N4         -0.0953   -1.4969   -0.2394 N.ar       1 <1>        0.000
      6 H          -0.6814    1.6353    0.2468 H.spc      1 <1>        0.000
      7 H          -2.0773   -0.5944    0.1213 H.spc      1 <1>        0.000
@<TRIPOS>BOND
     1    1    2 ar 
     2    1    3 ar 
     3    2    4 ar 
     4    4    5 ar 
     5    3    5 ar 
     6    2    6 1  
     7    4    7 1  
# Name:          frag4-419-148/150395 -- energy: -0.090199
# Creation time: Sat Jun  5 12:53:35 2010


@<TRIPOS>MOLECULE
frag4-419-148/150395 -- energy: -0.090199
    7     7     1     1     1
SMALL
USER_CHARGES


@<TRIPOS>ATOM
      1 N1          1.0826    0.3167   -0.0579 N.ar       1 <1>        0.000
      2 C15        -0.2774    0.6350    0.0912 C.ar       1 <1>        0.000
      3 N2          1.1777   -0.9987   -0.3295 N.ar       1 <1>        0.000
      4 C16        -0.9976   -0.4943    0.0107 C.ar       1 <1>        0.000
      5 N4         -0.0953   -1.4969   -0.2394 N.ar       1 <1>        0.000
      6 H          -0.6814    1.6353    0.2468 H.spc      1 <1>        0.000
      7 H          -2.0773   -0.5944    0.1213 H.spc      1 <1>        0.000
@<TRIPOS>BOND
     1    1    2 ar 
     2    1    3 ar 
     3    2    4 ar 
     4    4    5 ar 
     5    3    5 ar 
     6    2    6 1  
     7    4    7 1  
