#      Rotatable Fragment
#      Build by yxyuan
#
# Name:          frag2-018-24736/92655
# Creation time: Sat Jun  5 12:51:56 2010


@<TRIPOS>MOLECULE
frag2-018-24736/92655
   12    12     1     1     1
SMALL
USER_CHARGES


@<TRIPOS>ATOM
      1 C9          0.9366    1.0346   -0.0203 C.ar       1 <1>        0.000
      2 C10         1.3644   -0.2935   -0.0017 C.ar       1 <1>        0.000
      3 C11         0.4278   -1.3281    0.0183 C.ar       1 <1>        0.000
      4 C12        -0.9363   -1.0343    0.0292 C.ar       1 <1>        0.000
      5 C13        -1.3641    0.2934   -0.0020 C.ar       1 <1>        0.000
      6 C14        -0.4278    1.3281   -0.0216 C.ar       1 <1>        0.000
      7 H           1.6680    1.8427   -0.0338 H.spc      1 <1>        0.000
      8 H           2.4300   -0.5229   -0.0028 H.spc      1 <1>        0.000
      9 H           0.7619   -2.3656    0.0254 H.spc      1 <1>        0.000
     10 H          -1.6676   -1.8419    0.0621 H.spc      1 <1>        0.000
     11 H          -2.4297    0.5225   -0.0111 H.spc      1 <1>        0.000
     12 H          -0.7621    2.3654   -0.0379 H.spc      1 <1>        0.000
@<TRIPOS>BOND
     1    1    2 ar 
     2    1    6 ar 
     3    2    3 ar 
     4    3    4 ar 
     5    4    5 ar 
     6    5    6 ar 
     7    1    7 1  
     8    2    8 1  
     9    3    9 1  
    10    4   10 1  
    11    5   11 1  
    12    6   12 1  
# Name:          frag2-018-24736/92655 -- energy: 0.149482
# Creation time: Sat Jun  5 12:51:56 2010


@<TRIPOS>MOLECULE
frag2-018-24736/92655 -- energy: 0.149482
   12    12     1     1     1
SMALL
USER_CHARGES


@<TRIPOS>ATOM
      1 C9          0.9366    1.0346   -0.0203 C.ar       1 <1>        0.000
      2 C10         1.3644   -0.2935   -0.0017 C.ar       1 <1>        0.000
      3 C11         0.4278   -1.3281    0.0183 C.ar       1 <1>        0.000
      4 C12        -0.9363   -1.0343    0.0292 C.ar       1 <1>        0.000
      5 C13        -1.3641    0.2934   -0.0020 C.ar       1 <1>        0.000
      6 C14        -0.4278    1.3281   -0.0216 C.ar       1 <1>        0.000
      7 H           1.6680    1.8427   -0.0338 H.spc      1 <1>        0.000
      8 H           2.4300   -0.5229   -0.0028 H.spc      1 <1>        0.000
      9 H           0.7619   -2.3656    0.0254 H.spc      1 <1>        0.000
     10 H          -1.6676   -1.8419    0.0621 H.spc      1 <1>        0.000
     11 H          -2.4297    0.5225   -0.0111 H.spc      1 <1>        0.000
     12 H          -0.7621    2.3654   -0.0379 H.spc      1 <1>        0.000
@<TRIPOS>BOND
     1    1    2 ar 
     2    1    6 ar 
     3    2    3 ar 
     4    3    4 ar 
     5    4    5 ar 
     6    5    6 ar 
     7    1    7 1  
     8    2    8 1  
     9    3    9 1  
    10    4   10 1  
    11    5   11 1  
    12    6   12 1  
