#      Rotatable Fragment
#      Build by yxyuan
#
# Name:          frag3-103-166/31924
# Creation time: Sat Jun  5 12:51:59 2010


@<TRIPOS>MOLECULE
frag3-103-166/31924
    7     6     1     1     1
SMALL
USER_CHARGES


@<TRIPOS>ATOM
      1 N1          4.3856   -0.4411    0.3215 N.am       1 <1>        0.000
      2 O1          4.0670   -1.1480   -0.8028 O.3        1 <1>        0.000
      3 C13         5.2760   -0.9383    1.2094 C.2        1 <1>        0.000
      4 O3          5.6726   -0.3017    2.1741 O.2        1 <1>        0.000
      5 H           3.9502    0.4654    0.4921 H.spc      1 <1>        0.000
      6 H           3.4255   -0.6542   -1.3188 H.spc      1 <1>        0.000
      7 H           5.6557   -1.9488    1.0584 H.spc      1 <1>        0.000
@<TRIPOS>BOND
     1    1    2 1  
     2    1    3 am 
     3    3    4 2  
     4    1    5 1  
     5    2    6 1  
     6    3    7 1  
# Name:          frag3-103-166/31924
# Creation time: Sat Jun  5 12:51:59 2010


@<TRIPOS>MOLECULE
frag3-103-166/31924
    7     6     1     1     1
SMALL
USER_CHARGES


@<TRIPOS>ATOM
      1 N1          4.0922   -0.4672    0.3897 N.am       1 <1>        0.000
      2 O1          4.5415   -1.2336   -0.6451 O.3        1 <1>        0.000
      3 C13         4.8460   -0.2881    1.4938 C.2        1 <1>        0.000
      4 O3          5.9217   -0.8402    1.6638 O.2        1 <1>        0.000
      5 H           3.1755   -0.0243    0.3280 H.spc      1 <1>        0.000
      6 H           3.8800   -1.2498   -1.3406 H.spc      1 <1>        0.000
      7 H           4.4774    0.3812    2.2711 H.spc      1 <1>        0.000
@<TRIPOS>BOND
     1    1    2 1  
     2    1    3 am 
     3    3    4 2  
     4    1    5 1  
     5    2    6 1  
     6    3    7 1  
# Name:          frag3-103-166/31924 -- energy: -0.160074
# Creation time: Sat Jun  5 12:51:59 2010


@<TRIPOS>MOLECULE
frag3-103-166/31924 -- energy: -0.160074
    7     6     1     1     1
SMALL
USER_CHARGES


@<TRIPOS>ATOM
      1 N1          4.3856   -0.4411    0.3215 N.am       1 <1>        0.000
      2 O1          4.0670   -1.1480   -0.8028 O.3        1 <1>        0.000
      3 C13         5.2760   -0.9383    1.2094 C.2        1 <1>        0.000
      4 O3          5.6726   -0.3017    2.1741 O.2        1 <1>        0.000
      5 H           3.9502    0.4654    0.4921 H.spc      1 <1>        0.000
      6 H           3.4255   -0.6542   -1.3188 H.spc      1 <1>        0.000
      7 H           5.6557   -1.9488    1.0584 H.spc      1 <1>        0.000
@<TRIPOS>BOND
     1    1    2 1  
     2    1    3 am 
     3    3    4 2  
     4    1    5 1  
     5    2    6 1  
     6    3    7 1  
# Name:          frag3-103-166/31924 -- energy: -0.129403
# Creation time: Sat Jun  5 12:51:59 2010


@<TRIPOS>MOLECULE
frag3-103-166/31924 -- energy: -0.129403
    7     6     1     1     1
SMALL
USER_CHARGES


@<TRIPOS>ATOM
      1 N1          4.0922   -0.4672    0.3897 N.am       1 <1>        0.000
      2 O1          4.5415   -1.2336   -0.6451 O.3        1 <1>        0.000
      3 C13         4.8460   -0.2881    1.4938 C.2        1 <1>        0.000
      4 O3          5.9217   -0.8402    1.6638 O.2        1 <1>        0.000
      5 H           3.1755   -0.0243    0.3280 H.spc      1 <1>        0.000
      6 H           3.8800   -1.2498   -1.3406 H.spc      1 <1>        0.000
      7 H           4.4774    0.3812    2.2711 H.spc      1 <1>        0.000
@<TRIPOS>BOND
     1    1    2 1  
     2    1    3 am 
     3    3    4 2  
     4    1    5 1  
     5    2    6 1  
     6    3    7 1  
