#      Rotatable Fragment
#      Build by yxyuan
#
# Name:          frag3-177-8/31924
# Creation time: Sat Jun  5 12:52:09 2010


@<TRIPOS>MOLECULE
frag3-177-8/31924
    8     7     1     1     1
SMALL
USER_CHARGES


@<TRIPOS>ATOM
      1 S1          1.3131    1.2652    0.7007 S.3        1 <1>        0.000
      2 P1          2.4454    0.2663   -0.6586 P.3        1 <1>        0.000
      3 O1          3.4672   -0.5173   -0.0185 O.2        1 <1>        0.000
      4 O2          3.1380    1.3211   -1.6219 O.3        1 <1>        0.000
      5 O3          1.6425   -0.6866   -1.6472 O.3        1 <1>        0.000
      6 H           0.3841    1.9743    0.0660 H.spc      1 <1>        0.000
      7 H           2.4630    1.8494   -2.0542 H.spc      1 <1>        0.000
      8 H           0.9535   -0.1827   -2.0864 H.spc      1 <1>        0.000
@<TRIPOS>BOND
     1    1    2 1  
     2    2    3 2  
     3    2    4 1  
     4    2    5 1  
     5    1    6 1  
     6    4    7 1  
     7    5    8 1  
# Name:          frag3-177-8/31924 -- energy: -0.334410
# Creation time: Sat Jun  5 12:52:09 2010


@<TRIPOS>MOLECULE
frag3-177-8/31924 -- energy: -0.334410
    8     7     1     1     1
SMALL
USER_CHARGES


@<TRIPOS>ATOM
      1 S1          1.3131    1.2652    0.7007 S.3        1 <1>        0.000
      2 P1          2.4454    0.2663   -0.6586 P.3        1 <1>        0.000
      3 O1          3.4672   -0.5173   -0.0185 O.2        1 <1>        0.000
      4 O2          3.1380    1.3211   -1.6219 O.3        1 <1>        0.000
      5 O3          1.6425   -0.6866   -1.6472 O.3        1 <1>        0.000
      6 H           0.3841    1.9743    0.0660 H.spc      1 <1>        0.000
      7 H           2.4630    1.8494   -2.0542 H.spc      1 <1>        0.000
      8 H           0.9535   -0.1827   -2.0864 H.spc      1 <1>        0.000
@<TRIPOS>BOND
     1    1    2 1  
     2    2    3 2  
     3    2    4 1  
     4    2    5 1  
     5    1    6 1  
     6    4    7 1  
     7    5    8 1  
