#      Rotatable Fragment
#      Build by yxyuan
#
# Name:          frag4-481-90/150395
# Creation time: Sat Jun  5 12:53:38 2010


@<TRIPOS>MOLECULE
frag4-481-90/150395
   25    27     1     1     1
SMALL
USER_CHARGES


@<TRIPOS>ATOM
      1 C1          0.9215    0.3112   -0.1901 C.ar       1 <1>        0.000
      2 C2          2.3524    0.7426   -0.3725 C.3        1 <1>        0.000
      3 C3          0.9843   -1.1106   -0.0710 C.ar       1 <1>        0.000
      4 C4         -0.2900    0.9727   -0.1136 C.ar       1 <1>        0.000
      5 C5          3.1095   -0.3877    0.3386 C.3        1 <1>        0.000
      6 C6          3.1089    1.9435    0.1679 C.3        1 <1>        0.000
      7 N1          2.2802   -1.5132    0.0316 N.pl3      1 <1>        0.000
      8 C8         -0.1884   -1.8453   -0.0763 C.ar       1 <1>        0.000
      9 C9         -1.4571    0.2179   -0.0462 C.ar       1 <1>        0.000
     10 N2          4.5086   -0.0939   -0.0241 N.4        1 <1>        0.000
     11 C10         4.5519    1.3928    0.1781 C.3        1 <1>        0.000
     12 C12        -1.4063   -1.1868   -0.0585 C.ar       1 <1>        0.000
     13 H           2.3064    1.0036   -1.4298 H.spc      1 <1>        0.000
     14 H          -0.3302    2.0619   -0.1062 H.spc      1 <1>        0.000
     15 H           3.2527   -0.5600    1.4053 H.spc      1 <1>        0.000
     16 H           2.9840    2.8499   -0.4245 H.spc      1 <1>        0.000
     17 H           2.7584    2.2876    1.1409 H.spc      1 <1>        0.000
     18 H           2.6101   -2.4705   -0.0914 H.spc      1 <1>        0.000
     19 H          -0.1536   -2.9346   -0.0944 H.spc      1 <1>        0.000
     20 H          -2.4217    0.7216    0.0168 H.spc      1 <1>        0.000
     21 H           5.1946   -0.6056    0.5308 H.spc      1 <1>        0.000
     22 H           4.7608   -0.3893   -0.9673 H.spc      1 <1>        0.000
     23 H           5.0256    1.6204    1.1331 H.spc      1 <1>        0.000
     24 H           5.1280    1.8562   -0.6228 H.spc      1 <1>        0.000
     25 H          -2.3323   -1.7618   -0.0540 H.spc      1 <1>        0.000
@<TRIPOS>BOND
     1    1    2 1  
     2    1    3 ar 
     3    4    9 ar 
     4    6   11 1  
     5    1    4 ar 
     6    3    8 ar 
     7    5    7 1  
     8    8   12 ar 
     9    3    7 1  
    10    9   12 ar 
    11    2    6 1  
    12   10   11 1  
    13    2    5 1  
    14    5   10 1  
    15    2   13 1  
    16    4   14 1  
    17    5   15 1  
    18    6   16 1  
    19    6   17 1  
    20    7   18 1  
    21    8   19 1  
    22    9   20 1  
    23   10   21 1  
    24   10   22 1  
    25   11   23 1  
    26   11   24 1  
    27   12   25 1  
# Name:          frag4-481-90/150395 -- energy: -2.338375
# Creation time: Sat Jun  5 12:53:38 2010


@<TRIPOS>MOLECULE
frag4-481-90/150395 -- energy: -2.338375
   25    27     1     1     1
SMALL
USER_CHARGES


@<TRIPOS>ATOM
      1 C1          0.9215    0.3112   -0.1901 C.ar       1 <1>        0.000
      2 C2          2.3524    0.7426   -0.3725 C.3        1 <1>        0.000
      3 C3          0.9843   -1.1106   -0.0710 C.ar       1 <1>        0.000
      4 C4         -0.2900    0.9727   -0.1136 C.ar       1 <1>        0.000
      5 C5          3.1095   -0.3877    0.3386 C.3        1 <1>        0.000
      6 C6          3.1089    1.9435    0.1679 C.3        1 <1>        0.000
      7 N1          2.2802   -1.5132    0.0316 N.pl3      1 <1>        0.000
      8 C8         -0.1884   -1.8453   -0.0763 C.ar       1 <1>        0.000
      9 C9         -1.4571    0.2179   -0.0462 C.ar       1 <1>        0.000
     10 N2          4.5086   -0.0939   -0.0241 N.4        1 <1>        0.000
     11 C10         4.5519    1.3928    0.1781 C.3        1 <1>        0.000
     12 C12        -1.4063   -1.1868   -0.0585 C.ar       1 <1>        0.000
     13 H           2.3064    1.0036   -1.4298 H.spc      1 <1>        0.000
     14 H          -0.3302    2.0619   -0.1062 H.spc      1 <1>        0.000
     15 H           3.2527   -0.5600    1.4053 H.spc      1 <1>        0.000
     16 H           2.9840    2.8499   -0.4245 H.spc      1 <1>        0.000
     17 H           2.7584    2.2876    1.1409 H.spc      1 <1>        0.000
     18 H           2.6101   -2.4705   -0.0914 H.spc      1 <1>        0.000
     19 H          -0.1536   -2.9346   -0.0944 H.spc      1 <1>        0.000
     20 H          -2.4217    0.7216    0.0168 H.spc      1 <1>        0.000
     21 H           5.1946   -0.6056    0.5308 H.spc      1 <1>        0.000
     22 H           4.7608   -0.3893   -0.9673 H.spc      1 <1>        0.000
     23 H           5.0256    1.6204    1.1331 H.spc      1 <1>        0.000
     24 H           5.1280    1.8562   -0.6228 H.spc      1 <1>        0.000
     25 H          -2.3323   -1.7618   -0.0540 H.spc      1 <1>        0.000
@<TRIPOS>BOND
     1    1    2 1  
     2    1    3 ar 
     3    4    9 ar 
     4    6   11 1  
     5    1    4 ar 
     6    3    8 ar 
     7    5    7 1  
     8    8   12 ar 
     9    3    7 1  
    10    9   12 ar 
    11    2    6 1  
    12   10   11 1  
    13    2    5 1  
    14    5   10 1  
    15    2   13 1  
    16    4   14 1  
    17    5   15 1  
    18    6   16 1  
    19    6   17 1  
    20    7   18 1  
    21    8   19 1  
    22    9   20 1  
    23   10   21 1  
    24   10   22 1  
    25   11   23 1  
    26   11   24 1  
    27   12   25 1  
