#      Rotatable Fragment
#      Build by yxyuan
#
# Name:          frag4-317-898/150395
# Creation time: Sat Jun  5 12:53:30 2010


@<TRIPOS>MOLECULE
frag4-317-898/150395
   10    10     1     1     1
SMALL
USER_CHARGES


@<TRIPOS>ATOM
      1 C1         -1.2690   -0.5241   -0.0004 C.ar       1 <1>        0.000
      2 N1         -0.2407   -1.3276    0.0316 N.ar       1 <1>        0.000
      3 C3         -1.0156    0.9124   -0.0073 C.ar       1 <1>        0.000
      4 C6          1.0234   -0.7898    0.0006 C.ar       1 <1>        0.000
      5 C8          0.2441    1.2822   -0.0126 C.ar       1 <1>        0.000
      6 N2          1.3195    0.4444   -0.0009 N.ar       1 <1>        0.000
      7 H          -2.2863   -0.9148   -0.0213 H.spc      1 <1>        0.000
      8 H          -1.8279    1.6392   -0.0080 H.spc      1 <1>        0.000
      9 H           1.8553   -1.4937   -0.0253 H.spc      1 <1>        0.000
     10 H           0.4480    2.3529   -0.0277 H.spc      1 <1>        0.000
@<TRIPOS>BOND
     1    1    2 ar 
     2    1    3 ar 
     3    2    4 ar 
     4    3    5 ar 
     5    4    6 ar 
     6    5    6 ar 
     7    1    7 1  
     8    3    8 1  
     9    4    9 1  
    10    5   10 1  
# Name:          frag4-317-898/150395 -- energy: 0.569628
# Creation time: Sat Jun  5 12:53:30 2010


@<TRIPOS>MOLECULE
frag4-317-898/150395 -- energy: 0.569628
   10    10     1     1     1
SMALL
USER_CHARGES


@<TRIPOS>ATOM
      1 C1         -1.2690   -0.5241   -0.0004 C.ar       1 <1>        0.000
      2 N1         -0.2407   -1.3276    0.0316 N.ar       1 <1>        0.000
      3 C3         -1.0156    0.9124   -0.0073 C.ar       1 <1>        0.000
      4 C6          1.0234   -0.7898    0.0006 C.ar       1 <1>        0.000
      5 C8          0.2441    1.2822   -0.0126 C.ar       1 <1>        0.000
      6 N2          1.3195    0.4444   -0.0009 N.ar       1 <1>        0.000
      7 H          -2.2863   -0.9148   -0.0213 H.spc      1 <1>        0.000
      8 H          -1.8279    1.6392   -0.0080 H.spc      1 <1>        0.000
      9 H           1.8553   -1.4937   -0.0253 H.spc      1 <1>        0.000
     10 H           0.4480    2.3529   -0.0277 H.spc      1 <1>        0.000
@<TRIPOS>BOND
     1    1    2 ar 
     2    1    3 ar 
     3    2    4 ar 
     4    3    5 ar 
     5    4    6 ar 
     6    5    6 ar 
     7    1    7 1  
     8    3    8 1  
     9    4    9 1  
    10    5   10 1  
