#      Rotatable Fragment
#      Build by yxyuan
#
# Name:          frag3-173-9/31924
# Creation time: Sat Jun  5 12:52:06 2010


@<TRIPOS>MOLECULE
frag3-173-9/31924
   12    11     1     1     1
SMALL
USER_CHARGES


@<TRIPOS>ATOM
      1 C18         2.5526    0.0188   -0.1986 C.2        1 <1>        0.000
      2 N3          1.3635   -0.4703   -0.2135 N.2        1 <1>        0.000
      3 N4          0.3005   -0.0217    0.5043 N.pl3      1 <1>        0.000
      4 C19        -0.0966    1.2212    0.9243 C.cat      1 <1>        0.000
      5 N5         -0.9975    1.3380    1.8166 N.pl3      1 <1>        0.000
      6 N6          0.4751    2.3161    0.3363 N.pl3      1 <1>        0.000
      7 H           2.7813    0.8762    0.4343 H.spc      1 <1>        0.000
      8 H           3.3319   -0.4240   -0.8189 H.spc      1 <1>        0.000
      9 H          -0.3354   -0.7660    0.7907 H.spc      1 <1>        0.000
     10 H          -1.3090    2.2643    2.1086 H.spc      1 <1>        0.000
     11 H           0.1816    3.2537    0.6103 H.spc      1 <1>        0.000
     12 H           1.1949    2.1949   -0.3761 H.spc      1 <1>        0.000
@<TRIPOS>BOND
     1    1    2 2  
     2    2    3 1  
     3    3    4 ar 
     4    4    5 ar 
     5    4    6 ar 
     6    1    7 1  
     7    1    8 1  
     8    3    9 1  
     9    5   10 1  
    10    6   11 1  
    11    6   12 1  
# Name:          frag3-173-9/31924
# Creation time: Sat Jun  5 12:52:06 2010


@<TRIPOS>MOLECULE
frag3-173-9/31924
   12    11     1     1     1
SMALL
USER_CHARGES


@<TRIPOS>ATOM
      1 C18         2.1635   -0.8858   -0.7392 C.2        1 <1>        0.000
      2 N3          1.8191    0.1011    0.0150 N.2        1 <1>        0.000
      3 N4          0.7921    0.2466    0.9076 N.pl3      1 <1>        0.000
      4 C19        -0.1277    1.2892    0.9898 C.cat      1 <1>        0.000
      5 N5         -1.3353    1.1362    1.4431 N.pl3      1 <1>        0.000
      6 N6          0.2859    2.5146    0.5531 N.pl3      1 <1>        0.000
      7 H           1.5859   -1.8100   -0.7250 H.spc      1 <1>        0.000
      8 H           3.0324   -0.7961   -1.3912 H.spc      1 <1>        0.000
      9 H           0.6876   -0.4987    1.5961 H.spc      1 <1>        0.000
     10 H          -1.9736    1.9313    1.4725 H.spc      1 <1>        0.000
     11 H          -0.3531    3.3090    0.5829 H.spc      1 <1>        0.000
     12 H           1.2340    2.6358    0.1970 H.spc      1 <1>        0.000
@<TRIPOS>BOND
     1    1    2 2  
     2    2    3 1  
     3    3    4 ar 
     4    4    5 ar 
     5    4    6 ar 
     6    1    7 1  
     7    1    8 1  
     8    3    9 1  
     9    5   10 1  
    10    6   11 1  
    11    6   12 1  
# Name:          frag3-173-9/31924
# Creation time: Sat Jun  5 12:52:06 2010


@<TRIPOS>MOLECULE
frag3-173-9/31924
   12    11     1     1     1
SMALL
USER_CHARGES


@<TRIPOS>ATOM
      1 C18         1.7146   -1.1749    0.5658 C.2        1 <1>        0.000
      2 N3          1.7547   -0.1200   -0.1905 N.2        1 <1>        0.000
      3 N4          0.9635    0.9885   -0.2030 N.pl3      1 <1>        0.000
      4 C19         0.0167    1.3930    0.7178 C.cat      1 <1>        0.000
      5 N5         -0.0935    0.8490    1.8850 N.pl3      1 <1>        0.000
      6 N6         -0.7585    2.4664    0.3944 N.pl3      1 <1>        0.000
      7 H           0.9525   -1.2616    1.3402 H.spc      1 <1>        0.000
      8 H           2.4431   -1.9736    0.4262 H.spc      1 <1>        0.000
      9 H           1.0875    1.6067   -1.0048 H.spc      1 <1>        0.000
     10 H          -0.7592    1.2231    2.5612 H.spc      1 <1>        0.000
     11 H          -1.4233    2.8382    1.0727 H.spc      1 <1>        0.000
     12 H          -0.6738    2.8979   -0.5260 H.spc      1 <1>        0.000
@<TRIPOS>BOND
     1    1    2 2  
     2    2    3 1  
     3    3    4 ar 
     4    4    5 ar 
     5    4    6 ar 
     6    1    7 1  
     7    1    8 1  
     8    3    9 1  
     9    5   10 1  
    10    6   11 1  
    11    6   12 1  
# Name:          frag3-173-9/31924 -- energy: -0.826294
# Creation time: Sat Jun  5 12:52:06 2010


@<TRIPOS>MOLECULE
frag3-173-9/31924 -- energy: -0.826294
   12    11     1     1     1
SMALL
USER_CHARGES


@<TRIPOS>ATOM
      1 C18         2.5526    0.0188   -0.1986 C.2        1 <1>        0.000
      2 N3          1.3635   -0.4703   -0.2135 N.2        1 <1>        0.000
      3 N4          0.3005   -0.0217    0.5043 N.pl3      1 <1>        0.000
      4 C19        -0.0966    1.2212    0.9243 C.cat      1 <1>        0.000
      5 N5         -0.9975    1.3380    1.8166 N.pl3      1 <1>        0.000
      6 N6          0.4751    2.3161    0.3363 N.pl3      1 <1>        0.000
      7 H           2.7813    0.8762    0.4343 H.spc      1 <1>        0.000
      8 H           3.3319   -0.4240   -0.8189 H.spc      1 <1>        0.000
      9 H          -0.3354   -0.7660    0.7907 H.spc      1 <1>        0.000
     10 H          -1.3090    2.2643    2.1086 H.spc      1 <1>        0.000
     11 H           0.1816    3.2537    0.6103 H.spc      1 <1>        0.000
     12 H           1.1949    2.1949   -0.3761 H.spc      1 <1>        0.000
@<TRIPOS>BOND
     1    1    2 2  
     2    2    3 1  
     3    3    4 ar 
     4    4    5 ar 
     5    4    6 ar 
     6    1    7 1  
     7    1    8 1  
     8    3    9 1  
     9    5   10 1  
    10    6   11 1  
    11    6   12 1  
# Name:          frag3-173-9/31924 -- energy: -0.675215
# Creation time: Sat Jun  5 12:52:06 2010


@<TRIPOS>MOLECULE
frag3-173-9/31924 -- energy: -0.675215
   12    11     1     1     1
SMALL
USER_CHARGES


@<TRIPOS>ATOM
      1 C18         2.1635   -0.8858   -0.7392 C.2        1 <1>        0.000
      2 N3          1.8191    0.1011    0.0150 N.2        1 <1>        0.000
      3 N4          0.7921    0.2466    0.9076 N.pl3      1 <1>        0.000
      4 C19        -0.1277    1.2892    0.9898 C.cat      1 <1>        0.000
      5 N5         -1.3353    1.1362    1.4431 N.pl3      1 <1>        0.000
      6 N6          0.2859    2.5146    0.5531 N.pl3      1 <1>        0.000
      7 H           1.5859   -1.8100   -0.7250 H.spc      1 <1>        0.000
      8 H           3.0324   -0.7961   -1.3912 H.spc      1 <1>        0.000
      9 H           0.6876   -0.4987    1.5961 H.spc      1 <1>        0.000
     10 H          -1.9736    1.9313    1.4725 H.spc      1 <1>        0.000
     11 H          -0.3531    3.3090    0.5829 H.spc      1 <1>        0.000
     12 H           1.2340    2.6358    0.1970 H.spc      1 <1>        0.000
@<TRIPOS>BOND
     1    1    2 2  
     2    2    3 1  
     3    3    4 ar 
     4    4    5 ar 
     5    4    6 ar 
     6    1    7 1  
     7    1    8 1  
     8    3    9 1  
     9    5   10 1  
    10    6   11 1  
    11    6   12 1  
# Name:          frag3-173-9/31924 -- energy: -0.652047
# Creation time: Sat Jun  5 12:52:06 2010


@<TRIPOS>MOLECULE
frag3-173-9/31924 -- energy: -0.652047
   12    11     1     1     1
SMALL
USER_CHARGES


@<TRIPOS>ATOM
      1 C18         1.7146   -1.1749    0.5658 C.2        1 <1>        0.000
      2 N3          1.7547   -0.1200   -0.1905 N.2        1 <1>        0.000
      3 N4          0.9635    0.9885   -0.2030 N.pl3      1 <1>        0.000
      4 C19         0.0167    1.3930    0.7178 C.cat      1 <1>        0.000
      5 N5         -0.0935    0.8490    1.8850 N.pl3      1 <1>        0.000
      6 N6         -0.7585    2.4664    0.3944 N.pl3      1 <1>        0.000
      7 H           0.9525   -1.2616    1.3402 H.spc      1 <1>        0.000
      8 H           2.4431   -1.9736    0.4262 H.spc      1 <1>        0.000
      9 H           1.0875    1.6067   -1.0048 H.spc      1 <1>        0.000
     10 H          -0.7592    1.2231    2.5612 H.spc      1 <1>        0.000
     11 H          -1.4233    2.8382    1.0727 H.spc      1 <1>        0.000
     12 H          -0.6738    2.8979   -0.5260 H.spc      1 <1>        0.000
@<TRIPOS>BOND
     1    1    2 2  
     2    2    3 1  
     3    3    4 ar 
     4    4    5 ar 
     5    4    6 ar 
     6    1    7 1  
     7    1    8 1  
     8    3    9 1  
     9    5   10 1  
    10    6   11 1  
    11    6   12 1  
