#      Rotatable Fragment
#      Build by yxyuan
#
# Name:          frag2-091-1/92655
# Creation time: Sat Jun  5 12:51:58 2010


@<TRIPOS>MOLECULE
frag2-091-1/92655
   15    16     1     1     1
SMALL
USER_CHARGES


@<TRIPOS>ATOM
      1 C1          2.8076    0.1542    0.0728 C.ar       1 <1>        0.000
      2 N2          2.5841   -1.1396   -0.2603 N.ar       1 <1>        0.000
      3 N3          1.3844   -1.5850   -0.3834 N.ar       1 <1>        0.000
      4 C2          0.2962   -0.7792   -0.1928 C.ar       1 <1>        0.000
      5 C3          0.4880    0.5199    0.1402 C.ar       1 <1>        0.000
      6 N4          1.7522    0.9927    0.2766 N.ar       1 <1>        0.000
      7 C4         -0.5978    1.3808    0.3459 C.ar       1 <1>        0.000
      8 C5         -1.9037    0.8856    0.1996 C.ar       1 <1>        0.000
      9 C6         -2.1151   -0.4459   -0.1403 C.ar       1 <1>        0.000
     10 C7         -1.0165   -1.3027   -0.3439 C.ar       1 <1>        0.000
     11 H           3.8277    0.5236    0.1775 H.spc      1 <1>        0.000
     12 H          -0.4309    2.4234    0.6165 H.spc      1 <1>        0.000
     13 H          -2.7555    1.5481    0.3532 H.spc      1 <1>        0.000
     14 H          -3.1308   -0.8263   -0.2491 H.spc      1 <1>        0.000
     15 H          -1.1699   -2.3479   -0.6124 H.spc      1 <1>        0.000
@<TRIPOS>BOND
     1    9   10 ar 
     2    1    2 ar 
     3    1    6 ar 
     4    2    3 ar 
     5    3    4 ar 
     6    4    5 ar 
     7    4   10 ar 
     8    5    6 ar 
     9    5    7 ar 
    10    7    8 ar 
    11    8    9 ar 
    12    1   11 1  
    13    7   12 1  
    14    8   13 1  
    15    9   14 1  
    16   10   15 1  
# Name:          frag2-091-1/92655 -- energy: 0.255602
# Creation time: Sat Jun  5 12:51:58 2010


@<TRIPOS>MOLECULE
frag2-091-1/92655 -- energy: 0.255602
   15    16     1     1     1
SMALL
USER_CHARGES


@<TRIPOS>ATOM
      1 C1          2.8076    0.1542    0.0728 C.ar       1 <1>        0.000
      2 N2          2.5841   -1.1396   -0.2603 N.ar       1 <1>        0.000
      3 N3          1.3844   -1.5850   -0.3834 N.ar       1 <1>        0.000
      4 C2          0.2962   -0.7792   -0.1928 C.ar       1 <1>        0.000
      5 C3          0.4880    0.5199    0.1402 C.ar       1 <1>        0.000
      6 N4          1.7522    0.9927    0.2766 N.ar       1 <1>        0.000
      7 C4         -0.5978    1.3808    0.3459 C.ar       1 <1>        0.000
      8 C5         -1.9037    0.8856    0.1996 C.ar       1 <1>        0.000
      9 C6         -2.1151   -0.4459   -0.1403 C.ar       1 <1>        0.000
     10 C7         -1.0165   -1.3027   -0.3439 C.ar       1 <1>        0.000
     11 H           3.8277    0.5236    0.1775 H.spc      1 <1>        0.000
     12 H          -0.4309    2.4234    0.6165 H.spc      1 <1>        0.000
     13 H          -2.7555    1.5481    0.3532 H.spc      1 <1>        0.000
     14 H          -3.1308   -0.8263   -0.2491 H.spc      1 <1>        0.000
     15 H          -1.1699   -2.3479   -0.6124 H.spc      1 <1>        0.000
@<TRIPOS>BOND
     1    9   10 ar 
     2    1    2 ar 
     3    1    6 ar 
     4    2    3 ar 
     5    3    4 ar 
     6    4    5 ar 
     7    4   10 ar 
     8    5    6 ar 
     9    5    7 ar 
    10    7    8 ar 
    11    8    9 ar 
    12    1   11 1  
    13    7   12 1  
    14    8   13 1  
    15    9   14 1  
    16   10   15 1  
