#      Rotatable Fragment
#      Build by yxyuan
#
# Name:          frag5-490-2690/138278
# Creation time: Sat Jun  5 12:53:39 2010


@<TRIPOS>MOLECULE
frag5-490-2690/138278
   16    16     1     1     1
SMALL
USER_CHARGES


@<TRIPOS>ATOM
      1 N1         -1.1150   -0.3153    0.1326 N.am       1 <1>        0.000
      2 C1          0.0615   -1.1410    0.1153 C.3        1 <1>        0.000
      3 C2         -1.1551    0.9347   -0.3351 C.2        1 <1>        0.000
      4 C3         -2.2447   -1.0979    0.6184 C.3        1 <1>        0.000
      5 C5         -0.4652   -2.4504   -0.4180 C.3        1 <1>        0.000
      6 O1         -2.1634    1.6049   -0.4754 O.2        1 <1>        0.000
      7 C7         -1.9202   -2.4735    0.0754 C.3        1 <1>        0.000
      8 H           0.5301   -1.2367    1.0948 H.spc      1 <1>        0.000
      9 H           0.8656   -0.7254   -0.4920 H.spc      1 <1>        0.000
     10 H          -0.2070    1.3941   -0.6148 H.spc      1 <1>        0.000
     11 H          -3.2113   -0.7171    0.2886 H.spc      1 <1>        0.000
     12 H          -2.3565   -1.0736    1.7024 H.spc      1 <1>        0.000
     13 H          -0.3888   -2.5227   -1.5029 H.spc      1 <1>        0.000
     14 H           0.1101   -3.3077   -0.0684 H.spc      1 <1>        0.000
     15 H          -2.0449   -3.2271    0.8530 H.spc      1 <1>        0.000
     16 H          -2.5941   -2.7266   -0.7431 H.spc      1 <1>        0.000
@<TRIPOS>BOND
     1    5    7 1  
     2    1    2 1  
     3    1    3 am 
     4    1    4 1  
     5    2    5 1  
     6    3    6 2  
     7    4    7 1  
     8    2    8 1  
     9    2    9 1  
    10    3   10 1  
    11    4   11 1  
    12    4   12 1  
    13    5   13 1  
    14    5   14 1  
    15    7   15 1  
    16    7   16 1  
# Name:          frag5-490-2690/138278
# Creation time: Sat Jun  5 12:53:39 2010


@<TRIPOS>MOLECULE
frag5-490-2690/138278
   16    16     1     1     1
SMALL
USER_CHARGES


@<TRIPOS>ATOM
      1 N1         -1.4095   -0.3212    0.2297 N.am       1 <1>        0.000
      2 C1         -0.2008   -0.9199   -0.2609 C.3        1 <1>        0.000
      3 C2         -1.7736    0.9555   -0.0257 C.2        1 <1>        0.000
      4 C3         -2.1703   -1.3858    0.8096 C.3        1 <1>        0.000
      5 C5         -0.3630   -2.4049   -0.3139 C.3        1 <1>        0.000
      6 O1         -1.2909    1.7669   -0.7932 O.2        1 <1>        0.000
      7 C7         -1.7938   -2.6292    0.0677 C.3        1 <1>        0.000
      8 H           0.6243   -0.6691    0.4057 H.spc      1 <1>        0.000
      9 H           0.0103   -0.5425   -1.2615 H.spc      1 <1>        0.000
     10 H          -2.6317    1.3130    0.5436 H.spc      1 <1>        0.000
     11 H          -3.2396   -1.1910    0.7280 H.spc      1 <1>        0.000
     12 H          -1.9547   -1.4854    1.8734 H.spc      1 <1>        0.000
     13 H          -0.1305   -2.8102   -1.2987 H.spc      1 <1>        0.000
     14 H           0.3275   -2.9192    0.3545 H.spc      1 <1>        0.000
     15 H          -1.9240   -3.5265    0.6727 H.spc      1 <1>        0.000
     16 H          -2.4306   -2.8011   -0.8001 H.spc      1 <1>        0.000
@<TRIPOS>BOND
     1    5    7 1  
     2    1    2 1  
     3    1    3 am 
     4    1    4 1  
     5    2    5 1  
     6    3    6 2  
     7    4    7 1  
     8    2    8 1  
     9    2    9 1  
    10    3   10 1  
    11    4   11 1  
    12    4   12 1  
    13    5   13 1  
    14    5   14 1  
    15    7   15 1  
    16    7   16 1  
# Name:          frag5-490-2690/138278 -- energy: -1.385396
# Creation time: Sat Jun  5 12:53:39 2010


@<TRIPOS>MOLECULE
frag5-490-2690/138278 -- energy: -1.385396
   16    16     1     1     1
SMALL
USER_CHARGES


@<TRIPOS>ATOM
      1 N1         -1.1150   -0.3153    0.1326 N.am       1 <1>        0.000
      2 C1          0.0615   -1.1410    0.1153 C.3        1 <1>        0.000
      3 C2         -1.1551    0.9347   -0.3351 C.2        1 <1>        0.000
      4 C3         -2.2447   -1.0979    0.6184 C.3        1 <1>        0.000
      5 C5         -0.4652   -2.4504   -0.4180 C.3        1 <1>        0.000
      6 O1         -2.1634    1.6049   -0.4754 O.2        1 <1>        0.000
      7 C7         -1.9202   -2.4735    0.0754 C.3        1 <1>        0.000
      8 H           0.5301   -1.2367    1.0948 H.spc      1 <1>        0.000
      9 H           0.8656   -0.7254   -0.4920 H.spc      1 <1>        0.000
     10 H          -0.2070    1.3941   -0.6148 H.spc      1 <1>        0.000
     11 H          -3.2113   -0.7171    0.2886 H.spc      1 <1>        0.000
     12 H          -2.3565   -1.0736    1.7024 H.spc      1 <1>        0.000
     13 H          -0.3888   -2.5227   -1.5029 H.spc      1 <1>        0.000
     14 H           0.1101   -3.3077   -0.0684 H.spc      1 <1>        0.000
     15 H          -2.0449   -3.2271    0.8530 H.spc      1 <1>        0.000
     16 H          -2.5941   -2.7266   -0.7431 H.spc      1 <1>        0.000
@<TRIPOS>BOND
     1    5    7 1  
     2    1    2 1  
     3    1    3 am 
     4    1    4 1  
     5    2    5 1  
     6    3    6 2  
     7    4    7 1  
     8    2    8 1  
     9    2    9 1  
    10    3   10 1  
    11    4   11 1  
    12    4   12 1  
    13    5   13 1  
    14    5   14 1  
    15    7   15 1  
    16    7   16 1  
# Name:          frag5-490-2690/138278 -- energy: -1.391943
# Creation time: Sat Jun  5 12:53:39 2010


@<TRIPOS>MOLECULE
frag5-490-2690/138278 -- energy: -1.391943
   16    16     1     1     1
SMALL
USER_CHARGES


@<TRIPOS>ATOM
      1 N1         -1.4095   -0.3212    0.2297 N.am       1 <1>        0.000
      2 C1         -0.2008   -0.9199   -0.2609 C.3        1 <1>        0.000
      3 C2         -1.7736    0.9555   -0.0257 C.2        1 <1>        0.000
      4 C3         -2.1703   -1.3858    0.8096 C.3        1 <1>        0.000
      5 C5         -0.3630   -2.4049   -0.3139 C.3        1 <1>        0.000
      6 O1         -1.2909    1.7669   -0.7932 O.2        1 <1>        0.000
      7 C7         -1.7938   -2.6292    0.0677 C.3        1 <1>        0.000
      8 H           0.6243   -0.6691    0.4057 H.spc      1 <1>        0.000
      9 H           0.0103   -0.5425   -1.2615 H.spc      1 <1>        0.000
     10 H          -2.6317    1.3130    0.5436 H.spc      1 <1>        0.000
     11 H          -3.2396   -1.1910    0.7280 H.spc      1 <1>        0.000
     12 H          -1.9547   -1.4854    1.8734 H.spc      1 <1>        0.000
     13 H          -0.1305   -2.8102   -1.2987 H.spc      1 <1>        0.000
     14 H           0.3275   -2.9192    0.3545 H.spc      1 <1>        0.000
     15 H          -1.9240   -3.5265    0.6727 H.spc      1 <1>        0.000
     16 H          -2.4306   -2.8011   -0.8001 H.spc      1 <1>        0.000
@<TRIPOS>BOND
     1    5    7 1  
     2    1    2 1  
     3    1    3 am 
     4    1    4 1  
     5    2    5 1  
     6    3    6 2  
     7    4    7 1  
     8    2    8 1  
     9    2    9 1  
    10    3   10 1  
    11    4   11 1  
    12    4   12 1  
    13    5   13 1  
    14    5   14 1  
    15    7   15 1  
    16    7   16 1  
