#      Rotatable Fragment
#      Build by yxyuan
#
# Name:          frag2-021-104601/319335
# Creation time: Sat Jun  5 12:53:13 2010


@<TRIPOS>MOLECULE
frag2-021-104601/319335
   12    12     1     1     1
SMALL
USER_CHARGES


@<TRIPOS>ATOM
      1 C4          1.2317   -0.6362    0.1544 C.ar       1 <1>        0.000
      2 C7          1.1578    0.7565    0.1823 C.ar       1 <1>        0.000
      3 C8          0.0739   -1.3927   -0.0280 C.ar       1 <1>        0.000
      4 C9         -0.0738    1.3928    0.0278 C.ar       1 <1>        0.000
      5 C10        -1.1579   -0.7564   -0.1812 C.ar       1 <1>        0.000
      6 C11        -1.2315    0.6364   -0.1554 C.ar       1 <1>        0.000
      7 H           2.1942   -1.1334    0.2751 H.spc      1 <1>        0.000
      8 H           2.0625    1.3475    0.3248 H.spc      1 <1>        0.000
      9 H           0.1318   -2.4809   -0.0508 H.spc      1 <1>        0.000
     10 H          -0.1316    2.4810    0.0502 H.spc      1 <1>        0.000
     11 H          -2.0630   -1.3475   -0.3211 H.spc      1 <1>        0.000
     12 H          -2.1936    1.1337   -0.2784 H.spc      1 <1>        0.000
@<TRIPOS>BOND
     1    1    2 ar 
     2    1    3 ar 
     3    2    4 ar 
     4    3    5 ar 
     5    4    6 ar 
     6    5    6 ar 
     7    1    7 1  
     8    2    8 1  
     9    3    9 1  
    10    4   10 1  
    11    5   11 1  
    12    6   12 1  
# Name:          frag2-021-104601/319335 -- energy: 0.154570
# Creation time: Sat Jun  5 12:53:13 2010


@<TRIPOS>MOLECULE
frag2-021-104601/319335 -- energy: 0.154570
   12    12     1     1     1
SMALL
USER_CHARGES


@<TRIPOS>ATOM
      1 C4          1.2317   -0.6362    0.1544 C.ar       1 <1>        0.000
      2 C7          1.1578    0.7565    0.1823 C.ar       1 <1>        0.000
      3 C8          0.0739   -1.3927   -0.0280 C.ar       1 <1>        0.000
      4 C9         -0.0738    1.3928    0.0278 C.ar       1 <1>        0.000
      5 C10        -1.1579   -0.7564   -0.1812 C.ar       1 <1>        0.000
      6 C11        -1.2315    0.6364   -0.1554 C.ar       1 <1>        0.000
      7 H           2.1942   -1.1334    0.2751 H.spc      1 <1>        0.000
      8 H           2.0625    1.3475    0.3248 H.spc      1 <1>        0.000
      9 H           0.1318   -2.4809   -0.0508 H.spc      1 <1>        0.000
     10 H          -0.1316    2.4810    0.0502 H.spc      1 <1>        0.000
     11 H          -2.0630   -1.3475   -0.3211 H.spc      1 <1>        0.000
     12 H          -2.1936    1.1337   -0.2784 H.spc      1 <1>        0.000
@<TRIPOS>BOND
     1    1    2 ar 
     2    1    3 ar 
     3    2    4 ar 
     4    3    5 ar 
     5    4    6 ar 
     6    5    6 ar 
     7    1    7 1  
     8    2    8 1  
     9    3    9 1  
    10    4   10 1  
    11    5   11 1  
    12    6   12 1  
