#      Rotatable Fragment
#      Build by yxyuan
#
# Name:          frag5-497-788/138278
# Creation time: Sat Jun  5 12:53:39 2010


@<TRIPOS>MOLECULE
frag5-497-788/138278
   12    12     1     1     1
SMALL
USER_CHARGES


@<TRIPOS>ATOM
      1 C21         1.3959   -0.4900    0.0581 C.ar       1 <1>        0.000
      2 C22         0.3053   -1.3574    0.1014 C.ar       1 <1>        0.000
      3 C23         1.1878    0.8842   -0.0428 C.ar       1 <1>        0.000
      4 C25        -0.9995   -0.8570    0.0437 C.ar       1 <1>        0.000
      5 C26        -0.1131    1.3881   -0.0996 C.ar       1 <1>        0.000
      6 C27        -1.2098    0.5210   -0.0573 C.ar       1 <1>        0.000
      7 Cl1        -2.3660   -1.9505    0.0980 Cl         1 <1>        0.000
      8 Cl2        -2.8402    1.1550   -0.1305 Cl         1 <1>        0.000
      9 H           2.4103   -0.8863    0.1031 H.spc      1 <1>        0.000
     10 H           0.4705   -2.4319    0.1807 H.spc      1 <1>        0.000
     11 H           2.0389    1.5643   -0.0773 H.spc      1 <1>        0.000
     12 H          -0.2749    2.4632   -0.1773 H.spc      1 <1>        0.000
@<TRIPOS>BOND
     1    1    2 ar 
     2    1    3 ar 
     3    2    4 ar 
     4    3    5 ar 
     5    4    6 ar 
     6    5    6 ar 
     7    4    7 1  
     8    6    8 1  
     9    1    9 1  
    10    2   10 1  
    11    3   11 1  
    12    5   12 1  
# Name:          frag5-497-788/138278 -- energy: -0.218019
# Creation time: Sat Jun  5 12:53:39 2010


@<TRIPOS>MOLECULE
frag5-497-788/138278 -- energy: -0.218019
   12    12     1     1     1
SMALL
USER_CHARGES


@<TRIPOS>ATOM
      1 C21         1.3959   -0.4900    0.0581 C.ar       1 <1>        0.000
      2 C22         0.3053   -1.3574    0.1014 C.ar       1 <1>        0.000
      3 C23         1.1878    0.8842   -0.0428 C.ar       1 <1>        0.000
      4 C25        -0.9995   -0.8570    0.0437 C.ar       1 <1>        0.000
      5 C26        -0.1131    1.3881   -0.0996 C.ar       1 <1>        0.000
      6 C27        -1.2098    0.5210   -0.0573 C.ar       1 <1>        0.000
      7 Cl1        -2.3660   -1.9505    0.0980 Cl         1 <1>        0.000
      8 Cl2        -2.8402    1.1550   -0.1305 Cl         1 <1>        0.000
      9 H           2.4103   -0.8863    0.1031 H.spc      1 <1>        0.000
     10 H           0.4705   -2.4319    0.1807 H.spc      1 <1>        0.000
     11 H           2.0389    1.5643   -0.0773 H.spc      1 <1>        0.000
     12 H          -0.2749    2.4632   -0.1773 H.spc      1 <1>        0.000
@<TRIPOS>BOND
     1    1    2 ar 
     2    1    3 ar 
     3    2    4 ar 
     4    3    5 ar 
     5    4    6 ar 
     6    5    6 ar 
     7    4    7 1  
     8    6    8 1  
     9    1    9 1  
    10    2   10 1  
    11    3   11 1  
    12    5   12 1  
