#      Rotatable Fragment
#      Build by yxyuan
#
# Name:          frag4-408-56/48856
# Creation time: Sat Jun  5 12:51:56 2010


@<TRIPOS>MOLECULE
frag4-408-56/48856
   10    10     1     1     1
SMALL
USER_CHARGES


@<TRIPOS>ATOM
      1 C8         -1.3390   -0.4795   -0.0565 C.ar       1 <1>        0.000
      2 N1         -0.5672   -1.5065   -0.2589 N.ar       1 <1>        0.000
      3 N2          0.7941   -1.2381   -0.1307 N.ar       1 <1>        0.000
      4 C9          1.2505   -0.0805   -0.0015 C.ar       1 <1>        0.000
      5 C10         0.3754    1.0514    0.0586 C.ar       1 <1>        0.000
      6 C11        -0.9615    0.9473    0.0172 C.ar       1 <1>        0.000
      7 H          -2.3985   -0.6990    0.0755 H.spc      1 <1>        0.000
      8 H           2.3282    0.0685    0.0662 H.spc      1 <1>        0.000
      9 H           0.8164    2.0447    0.1419 H.spc      1 <1>        0.000
     10 H          -1.6598    1.7840    0.0351 H.spc      1 <1>        0.000
@<TRIPOS>BOND
     1    1    2 ar 
     2    1    6 ar 
     3    2    3 ar 
     4    3    4 ar 
     5    4    5 ar 
     6    5    6 ar 
     7    1    7 1  
     8    4    8 1  
     9    5    9 1  
    10    6   10 1  
# Name:          frag4-408-56/48856 -- energy: 0.556216
# Creation time: Sat Jun  5 12:51:56 2010


@<TRIPOS>MOLECULE
frag4-408-56/48856 -- energy: 0.556216
   10    10     1     1     1
SMALL
USER_CHARGES


@<TRIPOS>ATOM
      1 C8         -1.3390   -0.4795   -0.0565 C.ar       1 <1>        0.000
      2 N1         -0.5672   -1.5065   -0.2589 N.ar       1 <1>        0.000
      3 N2          0.7941   -1.2381   -0.1307 N.ar       1 <1>        0.000
      4 C9          1.2505   -0.0805   -0.0015 C.ar       1 <1>        0.000
      5 C10         0.3754    1.0514    0.0586 C.ar       1 <1>        0.000
      6 C11        -0.9615    0.9473    0.0172 C.ar       1 <1>        0.000
      7 H          -2.3985   -0.6990    0.0755 H.spc      1 <1>        0.000
      8 H           2.3282    0.0685    0.0662 H.spc      1 <1>        0.000
      9 H           0.8164    2.0447    0.1419 H.spc      1 <1>        0.000
     10 H          -1.6598    1.7840    0.0351 H.spc      1 <1>        0.000
@<TRIPOS>BOND
     1    1    2 ar 
     2    1    6 ar 
     3    2    3 ar 
     4    3    4 ar 
     5    4    5 ar 
     6    5    6 ar 
     7    1    7 1  
     8    4    8 1  
     9    5    9 1  
    10    6   10 1  
