#      Rotatable Fragment
#      Build by yxyuan
#
# Name:          frag4-454-110/150395
# Creation time: Sat Jun  5 12:53:37 2010


@<TRIPOS>MOLECULE
frag4-454-110/150395
   21    21     1     1     1
SMALL
USER_CHARGES


@<TRIPOS>ATOM
      1 N3         -0.8320   -0.6593    0.4140 N.4        1 <1>        0.000
      2 C11         0.0960    0.3721   -0.1012 C.3        1 <1>        0.000
      3 C12        -0.9032   -1.9437   -0.2737 C.3        1 <1>        0.000
      4 C13         1.5874    0.1925    0.0433 C.3        1 <1>        0.000
      5 C14         0.2681   -2.8927   -0.2899 C.3        1 <1>        0.000
      6 N4          2.1159   -1.0539   -0.5030 N.4        1 <1>        0.000
      7 C15         1.6658   -2.3649   -0.0231 C.3        1 <1>        0.000
      8 H          -1.7622   -0.2529    0.3137 H.spc      1 <1>        0.000
      9 H          -0.4916   -0.8783    1.3502 H.spc      1 <1>        0.000
     10 H          -0.0732    0.3748   -1.1780 H.spc      1 <1>        0.000
     11 H          -0.1285    1.2587    0.4918 H.spc      1 <1>        0.000
     12 H          -1.6733   -2.4892    0.2716 H.spc      1 <1>        0.000
     13 H          -1.0331   -1.6718   -1.3212 H.spc      1 <1>        0.000
     14 H           1.8005    0.1823    1.1122 H.spc      1 <1>        0.000
     15 H           2.0569    1.0035   -0.5134 H.spc      1 <1>        0.000
     16 H           0.0737   -3.5841    0.5300 H.spc      1 <1>        0.000
     17 H           0.3055   -3.2665   -1.3131 H.spc      1 <1>        0.000
     18 H           3.1024   -1.0297   -0.2450 H.spc      1 <1>        0.000
     19 H           1.8116   -1.0373   -1.4764 H.spc      1 <1>        0.000
     20 H           2.3070   -3.0644   -0.5595 H.spc      1 <1>        0.000
     21 H           1.6940   -2.2605    1.0615 H.spc      1 <1>        0.000
@<TRIPOS>BOND
     1    5    7 1  
     2    3    5 1  
     3    2    4 1  
     4    4    6 1  
     5    6    7 1  
     6    1    2 1  
     7    1    3 1  
     8    1    8 1  
     9    1    9 1  
    10    2   10 1  
    11    2   11 1  
    12    3   12 1  
    13    3   13 1  
    14    4   14 1  
    15    4   15 1  
    16    5   16 1  
    17    5   17 1  
    18    6   18 1  
    19    6   19 1  
    20    7   20 1  
    21    7   21 1  
# Name:          frag4-454-110/150395
# Creation time: Sat Jun  5 12:53:37 2010


@<TRIPOS>MOLECULE
frag4-454-110/150395
   21    21     1     1     1
SMALL
USER_CHARGES


@<TRIPOS>ATOM
      1 N3         -0.9449   -0.6826   -0.1084 N.4        1 <1>        0.000
      2 C11         0.0893    0.3352   -0.2585 C.3        1 <1>        0.000
      3 C12        -0.5914   -1.9262    0.5245 C.3        1 <1>        0.000
      4 C13         1.5711    0.1431    0.1007 C.3        1 <1>        0.000
      5 C14         0.2302   -2.8160   -0.3592 C.3        1 <1>        0.000
      6 N4          2.1122   -1.2191    0.1421 N.4        1 <1>        0.000
      7 C15         1.5317   -2.1841   -0.7748 C.3        1 <1>        0.000
      8 H          -1.2151   -0.9329   -1.0596 H.spc      1 <1>        0.000
      9 H          -1.6484   -0.2627    0.4993 H.spc      1 <1>        0.000
     10 H           0.1272    0.4713   -1.3393 H.spc      1 <1>        0.000
     11 H          -0.2269    1.0958    0.4554 H.spc      1 <1>        0.000
     12 H           0.0027   -1.6935    1.4083 H.spc      1 <1>        0.000
     13 H          -1.5151   -2.4536    0.7625 H.spc      1 <1>        0.000
     14 H           1.6675    0.5183    1.1196 H.spc      1 <1>        0.000
     15 H           2.1235    0.6443   -0.6942 H.spc      1 <1>        0.000
     16 H           0.4627   -3.7211    0.2019 H.spc      1 <1>        0.000
     17 H          -0.3474   -3.0154   -1.2618 H.spc      1 <1>        0.000
     18 H           1.9145   -1.5700    1.0792 H.spc      1 <1>        0.000
     19 H           3.0940   -1.1380   -0.1222 H.spc      1 <1>        0.000
     20 H           1.3188   -1.6353   -1.6922 H.spc      1 <1>        0.000
     21 H           2.2513   -2.9997   -0.8466 H.spc      1 <1>        0.000
@<TRIPOS>BOND
     1    5    7 1  
     2    3    5 1  
     3    2    4 1  
     4    4    6 1  
     5    6    7 1  
     6    1    2 1  
     7    1    3 1  
     8    1    8 1  
     9    1    9 1  
    10    2   10 1  
    11    2   11 1  
    12    3   12 1  
    13    3   13 1  
    14    4   14 1  
    15    4   15 1  
    16    5   16 1  
    17    5   17 1  
    18    6   18 1  
    19    6   19 1  
    20    7   20 1  
    21    7   21 1  
# Name:          frag4-454-110/150395 -- energy: -2.492988
# Creation time: Sat Jun  5 12:53:37 2010


@<TRIPOS>MOLECULE
frag4-454-110/150395 -- energy: -2.492988
   21    21     1     1     1
SMALL
USER_CHARGES


@<TRIPOS>ATOM
      1 N3         -0.8320   -0.6593    0.4140 N.4        1 <1>        0.000
      2 C11         0.0960    0.3721   -0.1012 C.3        1 <1>        0.000
      3 C12        -0.9032   -1.9437   -0.2737 C.3        1 <1>        0.000
      4 C13         1.5874    0.1925    0.0433 C.3        1 <1>        0.000
      5 C14         0.2681   -2.8927   -0.2899 C.3        1 <1>        0.000
      6 N4          2.1159   -1.0539   -0.5030 N.4        1 <1>        0.000
      7 C15         1.6658   -2.3649   -0.0231 C.3        1 <1>        0.000
      8 H          -1.7622   -0.2529    0.3137 H.spc      1 <1>        0.000
      9 H          -0.4916   -0.8783    1.3502 H.spc      1 <1>        0.000
     10 H          -0.0732    0.3748   -1.1780 H.spc      1 <1>        0.000
     11 H          -0.1285    1.2587    0.4918 H.spc      1 <1>        0.000
     12 H          -1.6733   -2.4892    0.2716 H.spc      1 <1>        0.000
     13 H          -1.0331   -1.6718   -1.3212 H.spc      1 <1>        0.000
     14 H           1.8005    0.1823    1.1122 H.spc      1 <1>        0.000
     15 H           2.0569    1.0035   -0.5134 H.spc      1 <1>        0.000
     16 H           0.0737   -3.5841    0.5300 H.spc      1 <1>        0.000
     17 H           0.3055   -3.2665   -1.3131 H.spc      1 <1>        0.000
     18 H           3.1024   -1.0297   -0.2450 H.spc      1 <1>        0.000
     19 H           1.8116   -1.0373   -1.4764 H.spc      1 <1>        0.000
     20 H           2.3070   -3.0644   -0.5595 H.spc      1 <1>        0.000
     21 H           1.6940   -2.2605    1.0615 H.spc      1 <1>        0.000
@<TRIPOS>BOND
     1    5    7 1  
     2    3    5 1  
     3    2    4 1  
     4    4    6 1  
     5    6    7 1  
     6    1    2 1  
     7    1    3 1  
     8    1    8 1  
     9    1    9 1  
    10    2   10 1  
    11    2   11 1  
    12    3   12 1  
    13    3   13 1  
    14    4   14 1  
    15    4   15 1  
    16    5   16 1  
    17    5   17 1  
    18    6   18 1  
    19    6   19 1  
    20    7   20 1  
    21    7   21 1  
# Name:          frag4-454-110/150395 -- energy: -1.707997
# Creation time: Sat Jun  5 12:53:37 2010


@<TRIPOS>MOLECULE
frag4-454-110/150395 -- energy: -1.707997
   21    21     1     1     1
SMALL
USER_CHARGES


@<TRIPOS>ATOM
      1 N3         -0.9449   -0.6826   -0.1084 N.4        1 <1>        0.000
      2 C11         0.0893    0.3352   -0.2585 C.3        1 <1>        0.000
      3 C12        -0.5914   -1.9262    0.5245 C.3        1 <1>        0.000
      4 C13         1.5711    0.1431    0.1007 C.3        1 <1>        0.000
      5 C14         0.2302   -2.8160   -0.3592 C.3        1 <1>        0.000
      6 N4          2.1122   -1.2191    0.1421 N.4        1 <1>        0.000
      7 C15         1.5317   -2.1841   -0.7748 C.3        1 <1>        0.000
      8 H          -1.2151   -0.9329   -1.0596 H.spc      1 <1>        0.000
      9 H          -1.6484   -0.2627    0.4993 H.spc      1 <1>        0.000
     10 H           0.1272    0.4713   -1.3393 H.spc      1 <1>        0.000
     11 H          -0.2269    1.0958    0.4554 H.spc      1 <1>        0.000
     12 H           0.0027   -1.6935    1.4083 H.spc      1 <1>        0.000
     13 H          -1.5151   -2.4536    0.7625 H.spc      1 <1>        0.000
     14 H           1.6675    0.5183    1.1196 H.spc      1 <1>        0.000
     15 H           2.1235    0.6443   -0.6942 H.spc      1 <1>        0.000
     16 H           0.4627   -3.7211    0.2019 H.spc      1 <1>        0.000
     17 H          -0.3474   -3.0154   -1.2618 H.spc      1 <1>        0.000
     18 H           1.9145   -1.5700    1.0792 H.spc      1 <1>        0.000
     19 H           3.0940   -1.1380   -0.1222 H.spc      1 <1>        0.000
     20 H           1.3188   -1.6353   -1.6922 H.spc      1 <1>        0.000
     21 H           2.2513   -2.9997   -0.8466 H.spc      1 <1>        0.000
@<TRIPOS>BOND
     1    5    7 1  
     2    3    5 1  
     3    2    4 1  
     4    4    6 1  
     5    6    7 1  
     6    1    2 1  
     7    1    3 1  
     8    1    8 1  
     9    1    9 1  
    10    2   10 1  
    11    2   11 1  
    12    3   12 1  
    13    3   13 1  
    14    4   14 1  
    15    4   15 1  
    16    5   16 1  
    17    5   17 1  
    18    6   18 1  
    19    6   19 1  
    20    7   20 1  
    21    7   21 1  
