#      Rotatable Fragment
#      Build by yxyuan
#
# Name:          frag3-182-8/31924
# Creation time: Sat Jun  5 12:52:09 2010


@<TRIPOS>MOLECULE
frag3-182-8/31924
    7     6     1     1     1
SMALL
USER_CHARGES


@<TRIPOS>ATOM
      1 S1         -1.4701    0.5726   -0.1247 S.3        1 <1>        0.000
      2 C1         -0.0688   -0.4212   -0.0282 C.2        1 <1>        0.000
      3 S2          0.6043   -1.3172    1.1734 S.2        1 <1>        0.000
      4 N1          0.6473   -0.2589   -1.2056 N.am       1 <1>        0.000
      5 H          -1.5666    1.0824   -1.3493 H.spc      1 <1>        0.000
      6 H           1.5659   -0.6905   -1.3075 H.spc      1 <1>        0.000
      7 H           0.2551    0.2920   -1.9692 H.spc      1 <1>        0.000
@<TRIPOS>BOND
     1    1    2 1  
     2    2    4 am 
     3    2    3 2  
     4    1    5 1  
     5    4    6 1  
     6    4    7 1  
# Name:          frag3-182-8/31924 -- energy: -0.000121
# Creation time: Sat Jun  5 12:52:09 2010


@<TRIPOS>MOLECULE
frag3-182-8/31924 -- energy: -0.000121
    7     6     1     1     1
SMALL
USER_CHARGES


@<TRIPOS>ATOM
      1 S1         -1.4701    0.5726   -0.1247 S.3        1 <1>        0.000
      2 C1         -0.0688   -0.4212   -0.0282 C.2        1 <1>        0.000
      3 S2          0.6043   -1.3172    1.1734 S.2        1 <1>        0.000
      4 N1          0.6473   -0.2589   -1.2056 N.am       1 <1>        0.000
      5 H          -1.5666    1.0824   -1.3493 H.spc      1 <1>        0.000
      6 H           1.5659   -0.6905   -1.3075 H.spc      1 <1>        0.000
      7 H           0.2551    0.2920   -1.9692 H.spc      1 <1>        0.000
@<TRIPOS>BOND
     1    1    2 1  
     2    2    4 am 
     3    2    3 2  
     4    1    5 1  
     5    4    6 1  
     6    4    7 1  
