#      Rotatable Fragment
#      Build by yxyuan
#
# Name:          frag3-287-3/96164
# Creation time: Sat Jun  5 12:53:29 2010


@<TRIPOS>MOLECULE
frag3-287-3/96164
   10     9     1     1     1
SMALL
USER_CHARGES


@<TRIPOS>ATOM
      1 O3         -2.9289   -0.4254   -0.4975 O.3        1 <1>        0.000
      2 P1         -1.6307   -0.2723    0.3558 P.3        1 <1>        0.000
      3 C10        -0.1463   -0.5276   -0.4750 C.2        1 <1>        0.000
      4 O5         -1.8272    1.1020    1.0433 O.3        1 <1>        0.000
      5 O6         -1.8246   -1.2408    1.3924 O.2        1 <1>        0.000
      6 O7         -0.2598   -1.2162   -1.6328 O.3        1 <1>        0.000
      7 O8          0.8893   -0.0765   -0.0392 O.2        1 <1>        0.000
      8 H          -2.9013    0.1904   -1.2334 H.spc      1 <1>        0.000
      9 H          -1.7095    1.8017    0.3967 H.spc      1 <1>        0.000
     10 H          -1.1764   -1.4693   -1.7647 H.spc      1 <1>        0.000
@<TRIPOS>BOND
     1    1    2 1  
     2    2    3 1  
     3    2    4 1  
     4    2    5 2  
     5    3    6 1  
     6    3    7 2  
     7    1    8 1  
     8    4    9 1  
     9    6   10 1  
# Name:          frag3-287-3/96164
# Creation time: Sat Jun  5 12:53:29 2010


@<TRIPOS>MOLECULE
frag3-287-3/96164
   10     9     1     1     1
SMALL
USER_CHARGES


@<TRIPOS>ATOM
      1 O3         -2.9533    0.1576   -0.5256 O.3        1 <1>        0.000
      2 P1         -1.6721   -0.2288    0.2569 P.3        1 <1>        0.000
      3 C10        -0.1811   -0.4956   -0.5196 C.2        1 <1>        0.000
      4 O5         -1.5948    0.7001    1.4973 O.3        1 <1>        0.000
      5 O6         -2.0412   -1.4865    0.8748 O.2        1 <1>        0.000
      6 O7          0.6365   -1.3441    0.1518 O.3        1 <1>        0.000
      7 O8          0.0778    0.0406   -1.5887 O.2        1 <1>        0.000
      8 H          -2.8107    0.9918   -0.9789 H.spc      1 <1>        0.000
      9 H          -1.3527    1.5860    1.2177 H.spc      1 <1>        0.000
     10 H           0.2060   -1.6278    0.9616 H.spc      1 <1>        0.000
@<TRIPOS>BOND
     1    1    2 1  
     2    2    3 1  
     3    2    4 1  
     4    2    5 2  
     5    3    6 1  
     6    3    7 2  
     7    1    8 1  
     8    4    9 1  
     9    6   10 1  
# Name:          frag3-287-3/96164
# Creation time: Sat Jun  5 12:53:29 2010


@<TRIPOS>MOLECULE
frag3-287-3/96164
   10     9     1     1     1
SMALL
USER_CHARGES


@<TRIPOS>ATOM
      1 O3         -2.9840   -0.6123   -0.3953 O.3        1 <1>        0.000
      2 P1         -1.6674   -0.3383    0.3719 P.3        1 <1>        0.000
      3 C10        -0.2093   -0.5930   -0.4672 C.2        1 <1>        0.000
      4 O5         -1.8494    1.2105    0.6581 O.3        1 <1>        0.000
      5 O6         -1.6921   -1.2051    1.5278 O.2        1 <1>        0.000
      6 O7          0.7215    0.3507   -0.2407 O.3        1 <1>        0.000
      7 O8         -0.0475   -1.4692   -1.3076 O.2        1 <1>        0.000
      8 H          -3.0182   -0.0577   -1.1782 H.spc      1 <1>        0.000
      9 H          -1.8179    1.6938   -0.1708 H.spc      1 <1>        0.000
     10 H           0.4137    0.9430    0.4493 H.spc      1 <1>        0.000
@<TRIPOS>BOND
     1    1    2 1  
     2    2    3 1  
     3    2    4 1  
     4    2    5 2  
     5    3    6 1  
     6    3    7 2  
     7    1    8 1  
     8    4    9 1  
     9    6   10 1  
# Name:          frag3-287-3/96164 -- energy: -0.498392
# Creation time: Sat Jun  5 12:53:29 2010


@<TRIPOS>MOLECULE
frag3-287-3/96164 -- energy: -0.498392
   10     9     1     1     1
SMALL
USER_CHARGES


@<TRIPOS>ATOM
      1 O3         -2.9289   -0.4254   -0.4975 O.3        1 <1>        0.000
      2 P1         -1.6307   -0.2723    0.3558 P.3        1 <1>        0.000
      3 C10        -0.1463   -0.5276   -0.4750 C.2        1 <1>        0.000
      4 O5         -1.8272    1.1020    1.0433 O.3        1 <1>        0.000
      5 O6         -1.8246   -1.2408    1.3924 O.2        1 <1>        0.000
      6 O7         -0.2598   -1.2162   -1.6328 O.3        1 <1>        0.000
      7 O8          0.8893   -0.0765   -0.0392 O.2        1 <1>        0.000
      8 H          -2.9013    0.1904   -1.2334 H.spc      1 <1>        0.000
      9 H          -1.7095    1.8017    0.3967 H.spc      1 <1>        0.000
     10 H          -1.1764   -1.4693   -1.7647 H.spc      1 <1>        0.000
@<TRIPOS>BOND
     1    1    2 1  
     2    2    3 1  
     3    2    4 1  
     4    2    5 2  
     5    3    6 1  
     6    3    7 2  
     7    1    8 1  
     8    4    9 1  
     9    6   10 1  
# Name:          frag3-287-3/96164 -- energy: -0.130843
# Creation time: Sat Jun  5 12:53:29 2010


@<TRIPOS>MOLECULE
frag3-287-3/96164 -- energy: -0.130843
   10     9     1     1     1
SMALL
USER_CHARGES


@<TRIPOS>ATOM
      1 O3         -2.9533    0.1576   -0.5256 O.3        1 <1>        0.000
      2 P1         -1.6721   -0.2288    0.2569 P.3        1 <1>        0.000
      3 C10        -0.1811   -0.4956   -0.5196 C.2        1 <1>        0.000
      4 O5         -1.5948    0.7001    1.4973 O.3        1 <1>        0.000
      5 O6         -2.0412   -1.4865    0.8748 O.2        1 <1>        0.000
      6 O7          0.6365   -1.3441    0.1518 O.3        1 <1>        0.000
      7 O8          0.0778    0.0406   -1.5887 O.2        1 <1>        0.000
      8 H          -2.8107    0.9918   -0.9789 H.spc      1 <1>        0.000
      9 H          -1.3527    1.5860    1.2177 H.spc      1 <1>        0.000
     10 H           0.2060   -1.6278    0.9616 H.spc      1 <1>        0.000
@<TRIPOS>BOND
     1    1    2 1  
     2    2    3 1  
     3    2    4 1  
     4    2    5 2  
     5    3    6 1  
     6    3    7 2  
     7    1    8 1  
     8    4    9 1  
     9    6   10 1  
# Name:          frag3-287-3/96164 -- energy: -0.276341
# Creation time: Sat Jun  5 12:53:29 2010


@<TRIPOS>MOLECULE
frag3-287-3/96164 -- energy: -0.276341
   10     9     1     1     1
SMALL
USER_CHARGES


@<TRIPOS>ATOM
      1 O3         -2.9840   -0.6123   -0.3953 O.3        1 <1>        0.000
      2 P1         -1.6674   -0.3383    0.3719 P.3        1 <1>        0.000
      3 C10        -0.2093   -0.5930   -0.4672 C.2        1 <1>        0.000
      4 O5         -1.8494    1.2105    0.6581 O.3        1 <1>        0.000
      5 O6         -1.6921   -1.2051    1.5278 O.2        1 <1>        0.000
      6 O7          0.7215    0.3507   -0.2407 O.3        1 <1>        0.000
      7 O8         -0.0475   -1.4692   -1.3076 O.2        1 <1>        0.000
      8 H          -3.0182   -0.0577   -1.1782 H.spc      1 <1>        0.000
      9 H          -1.8179    1.6938   -0.1708 H.spc      1 <1>        0.000
     10 H           0.4137    0.9430    0.4493 H.spc      1 <1>        0.000
@<TRIPOS>BOND
     1    1    2 1  
     2    2    3 1  
     3    2    4 1  
     4    2    5 2  
     5    3    6 1  
     6    3    7 2  
     7    1    8 1  
     8    4    9 1  
     9    6   10 1  
