#      Rotatable Fragment
#      Build by yxyuan
#
# Name:          frag3-133-39/96164
# Creation time: Sat Jun  5 12:53:01 2010


@<TRIPOS>MOLECULE
frag3-133-39/96164
    8     7     1     1     1
SMALL
USER_CHARGES


@<TRIPOS>ATOM
      1 S1          3.3092   -0.0290    0.2314 S.o2       1 <1>        0.000
      2 O1          2.2562    1.0812   -0.2093 O.3        1 <1>        0.000
      3 N1          4.6105    0.8517   -0.0815 N.am       1 <1>        0.000
      4 O2          3.2774   -1.0346   -0.7840 O.2        1 <1>        0.000
      5 O3          3.2619   -0.1798    1.6548 O.2        1 <1>        0.000
      6 H           2.2404    1.7834    0.4452 H.spc      1 <1>        0.000
      7 H           5.2024    0.6214   -0.8797 H.spc      1 <1>        0.000
      8 H           4.8471    1.6427    0.5175 H.spc      1 <1>        0.000
@<TRIPOS>BOND
     1    1    2 1  
     2    1    3 1  
     3    1    4 2  
     4    1    5 2  
     5    2    6 1  
     6    3    7 1  
     7    3    8 1  
# Name:          frag3-133-39/96164 -- energy: -0.271125
# Creation time: Sat Jun  5 12:53:01 2010


@<TRIPOS>MOLECULE
frag3-133-39/96164 -- energy: -0.271125
    8     7     1     1     1
SMALL
USER_CHARGES


@<TRIPOS>ATOM
      1 S1          3.3092   -0.0290    0.2314 S.o2       1 <1>        0.000
      2 O1          2.2562    1.0812   -0.2093 O.3        1 <1>        0.000
      3 N1          4.6105    0.8517   -0.0815 N.am       1 <1>        0.000
      4 O2          3.2774   -1.0346   -0.7840 O.2        1 <1>        0.000
      5 O3          3.2619   -0.1798    1.6548 O.2        1 <1>        0.000
      6 H           2.2404    1.7834    0.4452 H.spc      1 <1>        0.000
      7 H           5.2024    0.6214   -0.8797 H.spc      1 <1>        0.000
      8 H           4.8471    1.6427    0.5175 H.spc      1 <1>        0.000
@<TRIPOS>BOND
     1    1    2 1  
     2    1    3 1  
     3    1    4 2  
     4    1    5 2  
     5    2    6 1  
     6    3    7 1  
     7    3    8 1  
