#      Rotatable Fragment
#      Build by yxyuan
#
# Name:          frag5-632-30/41815
# Creation time: Sat Jun  5 12:53:00 2010


@<TRIPOS>MOLECULE
frag5-632-30/41815
   36    39     1     1     1
SMALL
USER_CHARGES


@<TRIPOS>ATOM
      1 C11         0.0664    0.8271    1.9434 C.ar       1 <1>        0.000
      2 C12         1.0872    1.3280    2.7666 C.ar       1 <1>        0.000
      3 C13         2.3829    0.7867    2.6307 C.ar       1 <1>        0.000
      4 C14         2.6335   -0.2297    1.7026 C.ar       1 <1>        0.000
      5 C15         1.5964   -0.7105    0.8954 C.ar       1 <1>        0.000
      6 C16         0.3115   -0.1803    1.0151 C.ar       1 <1>        0.000
      7 C17         4.0271   -0.7926    1.5839 C.2        1 <1>        0.000
      8 C26         9.4546   -0.3633    2.4904 C.3        1 <1>        0.000
      9 C18         5.1169   -0.2961    2.4368 C.2        1 <1>        0.000
     10 C19         4.8881    0.6813    3.3358 C.2        1 <1>        0.000
     11 C20         5.9880    1.1586    4.1851 C.2        1 <1>        0.000
     12 C21         7.1023    0.4360    4.3537 C.2        1 <1>        0.000
     13 C22         7.2500   -0.9005    3.6677 C.3        1 <1>        0.000
     14 C23         6.5095   -0.8663    2.3069 C.3        1 <1>        0.000
     15 C24         7.2914   -0.0147    1.3326 C.2        1 <1>        0.000
     16 C25         8.7402   -0.3647    1.1263 C.3        1 <1>        0.000
     17 C27         8.7329   -1.3036    3.4802 C.3        1 <1>        0.000
     18 O5          6.7784    0.9299    0.7436 O.2        1 <1>        0.000
     19 C35         3.5437    1.2735    3.4690 C.2        1 <1>        0.000
     20 O10         3.3667    2.1761    4.2807 O.2        1 <1>        0.000
     21 O11         4.2518   -1.6736    0.7603 O.2        1 <1>        0.000
     22 O12         0.7909    2.3268    3.6732 O.3        1 <1>        0.000
     23 H          -0.9400    1.2361    2.0332 H.spc      1 <1>        0.000
     24 H           1.7930   -1.5012    0.1713 H.spc      1 <1>        0.000
     25 H          -0.4960   -0.5531    0.3850 H.spc      1 <1>        0.000
     26 H          10.4785   -0.7112    2.3541 H.spc      1 <1>        0.000
     27 H           9.4458    0.6493    2.8936 H.spc      1 <1>        0.000
     28 H           5.8948    2.1210    4.6883 H.spc      1 <1>        0.000
     29 H           7.9046    0.8135    4.9877 H.spc      1 <1>        0.000
     30 H           6.8012   -1.6604    4.3075 H.spc      1 <1>        0.000
     31 H           6.4279   -1.8928    1.9496 H.spc      1 <1>        0.000
     32 H           8.8189   -1.3518    0.6708 H.spc      1 <1>        0.000
     33 H           9.2053    0.3679    0.4667 H.spc      1 <1>        0.000
     34 H           9.2333   -1.2375    4.4463 H.spc      1 <1>        0.000
     35 H           8.7672   -2.3172    3.0807 H.spc      1 <1>        0.000
     36 H           1.5847    2.5622    4.1591 H.spc      1 <1>        0.000
@<TRIPOS>BOND
     1   11   12 2  
     2    1    2 ar 
     3    7    9 1  
     4    3    4 ar 
     5    7   21 2  
     6   10   11 1  
     7    5    6 ar 
     8    3   19 1  
     9    4    5 ar 
    10    2   22 1  
    11    2    3 ar 
    12    1    6 ar 
    13    4    7 1  
    14   10   19 1  
    15    9   10 2  
    16    9   14 1  
    17   19   20 2  
    18    8   17 1  
    19   16    8 1  
    20   15   18 2  
    21   15   16 1  
    22   14   15 1  
    23   13   14 1  
    24   13   17 1  
    25   12   13 1  
    26    1   23 1  
    27    5   24 1  
    28    6   25 1  
    29    8   26 1  
    30    8   27 1  
    31   11   28 1  
    32   12   29 1  
    33   13   30 1  
    34   14   31 1  
    35   16   32 1  
    36   16   33 1  
    37   17   34 1  
    38   17   35 1  
    39   22   36 1  
# Name:          frag5-632-30/41815 -- energy: 2.132457
# Creation time: Sat Jun  5 12:53:00 2010


@<TRIPOS>MOLECULE
frag5-632-30/41815 -- energy: 2.132457
   36    39     1     1     1
SMALL
USER_CHARGES


@<TRIPOS>ATOM
      1 C11         0.0664    0.8271    1.9434 C.ar       1 <1>        0.000
      2 C12         1.0872    1.3280    2.7666 C.ar       1 <1>        0.000
      3 C13         2.3829    0.7867    2.6307 C.ar       1 <1>        0.000
      4 C14         2.6335   -0.2297    1.7026 C.ar       1 <1>        0.000
      5 C15         1.5964   -0.7105    0.8954 C.ar       1 <1>        0.000
      6 C16         0.3115   -0.1803    1.0151 C.ar       1 <1>        0.000
      7 C17         4.0271   -0.7926    1.5839 C.2        1 <1>        0.000
      8 C26         9.4546   -0.3633    2.4904 C.3        1 <1>        0.000
      9 C18         5.1169   -0.2961    2.4368 C.2        1 <1>        0.000
     10 C19         4.8881    0.6813    3.3358 C.2        1 <1>        0.000
     11 C20         5.9880    1.1586    4.1851 C.2        1 <1>        0.000
     12 C21         7.1023    0.4360    4.3537 C.2        1 <1>        0.000
     13 C22         7.2500   -0.9005    3.6677 C.3        1 <1>        0.000
     14 C23         6.5095   -0.8663    2.3069 C.3        1 <1>        0.000
     15 C24         7.2914   -0.0147    1.3326 C.2        1 <1>        0.000
     16 C25         8.7402   -0.3647    1.1263 C.3        1 <1>        0.000
     17 C27         8.7329   -1.3036    3.4802 C.3        1 <1>        0.000
     18 O5          6.7784    0.9299    0.7436 O.2        1 <1>        0.000
     19 C35         3.5437    1.2735    3.4690 C.2        1 <1>        0.000
     20 O10         3.3667    2.1761    4.2807 O.2        1 <1>        0.000
     21 O11         4.2518   -1.6736    0.7603 O.2        1 <1>        0.000
     22 O12         0.7909    2.3268    3.6732 O.3        1 <1>        0.000
     23 H          -0.9400    1.2361    2.0332 H.spc      1 <1>        0.000
     24 H           1.7930   -1.5012    0.1713 H.spc      1 <1>        0.000
     25 H          -0.4960   -0.5531    0.3850 H.spc      1 <1>        0.000
     26 H          10.4785   -0.7112    2.3541 H.spc      1 <1>        0.000
     27 H           9.4458    0.6493    2.8936 H.spc      1 <1>        0.000
     28 H           5.8948    2.1210    4.6883 H.spc      1 <1>        0.000
     29 H           7.9046    0.8135    4.9877 H.spc      1 <1>        0.000
     30 H           6.8012   -1.6604    4.3075 H.spc      1 <1>        0.000
     31 H           6.4279   -1.8928    1.9496 H.spc      1 <1>        0.000
     32 H           8.8189   -1.3518    0.6708 H.spc      1 <1>        0.000
     33 H           9.2053    0.3679    0.4667 H.spc      1 <1>        0.000
     34 H           9.2333   -1.2375    4.4463 H.spc      1 <1>        0.000
     35 H           8.7672   -2.3172    3.0807 H.spc      1 <1>        0.000
     36 H           1.5847    2.5622    4.1591 H.spc      1 <1>        0.000
@<TRIPOS>BOND
     1   11   12 2  
     2    1    2 ar 
     3    7    9 1  
     4    3    4 ar 
     5    7   21 2  
     6   10   11 1  
     7    5    6 ar 
     8    3   19 1  
     9    4    5 ar 
    10    2   22 1  
    11    2    3 ar 
    12    1    6 ar 
    13    4    7 1  
    14   10   19 1  
    15    9   10 2  
    16    9   14 1  
    17   19   20 2  
    18    8   17 1  
    19   16    8 1  
    20   15   18 2  
    21   15   16 1  
    22   14   15 1  
    23   13   14 1  
    24   13   17 1  
    25   12   13 1  
    26    1   23 1  
    27    5   24 1  
    28    6   25 1  
    29    8   26 1  
    30    8   27 1  
    31   11   28 1  
    32   12   29 1  
    33   13   30 1  
    34   14   31 1  
    35   16   32 1  
    36   16   33 1  
    37   17   34 1  
    38   17   35 1  
    39   22   36 1  
