#      Rotatable Fragment
#      Build by yxyuan
#
# Name:          frag4-316-901/150395
# Creation time: Sat Jun  5 12:53:30 2010


@<TRIPOS>MOLECULE
frag4-316-901/150395
   17    17     1     1     1
SMALL
USER_CHARGES


@<TRIPOS>ATOM
      1 N2         -2.2104    0.5460    0.0000 N.3        1 <1>        0.000
      2 C18        -0.9173    1.1539    0.0000 C.3        1 <1>        0.000
      3 C19        -3.4915    1.1788   -0.0000 C.3        1 <1>        0.000
      4 C21        -0.8628    2.6963    0.0000 C.3        1 <1>        0.000
      5 C22        -3.5169    2.7219    0.0000 C.3        1 <1>        0.000
      6 C23        -2.1824    3.4787   -0.0000 C.3        1 <1>        0.000
      7 H          -2.2147    0.1032   -0.9188 H.spc      1 <1>        0.000
      8 H          -0.4433    0.8411   -0.9304 H.spc      1 <1>        0.000
      9 H          -0.4433    0.8411    0.9304 H.spc      1 <1>        0.000
     10 H          -3.9712    0.8752    0.9305 H.spc      1 <1>        0.000
     11 H          -3.9712    0.8752   -0.9305 H.spc      1 <1>        0.000
     12 H          -0.3748    2.9630   -0.9374 H.spc      1 <1>        0.000
     13 H          -0.3748    2.9630    0.9374 H.spc      1 <1>        0.000
     14 H          -3.9999    2.9980   -0.9373 H.spc      1 <1>        0.000
     15 H          -3.9999    2.9980    0.9373 H.spc      1 <1>        0.000
     16 H          -2.1771    4.0255    0.9429 H.spc      1 <1>        0.000
     17 H          -2.1771    4.0255   -0.9429 H.spc      1 <1>        0.000
@<TRIPOS>BOND
     1    5    6 1  
     2    1    3 1  
     3    1    2 1  
     4    2    4 1  
     5    3    5 1  
     6    4    6 1  
     7    1    7 1  
     8    2    8 1  
     9    2    9 1  
    10    3   10 1  
    11    3   11 1  
    12    4   12 1  
    13    4   13 1  
    14    5   14 1  
    15    5   15 1  
    16    6   16 1  
    17    6   17 1  
# Name:          frag4-316-901/150395 -- energy: -0.771411
# Creation time: Sat Jun  5 12:53:30 2010


@<TRIPOS>MOLECULE
frag4-316-901/150395 -- energy: -0.771411
   17    17     1     1     1
SMALL
USER_CHARGES


@<TRIPOS>ATOM
      1 N2         -2.2104    0.5460    0.0000 N.3        1 <1>        0.000
      2 C18        -0.9173    1.1539    0.0000 C.3        1 <1>        0.000
      3 C19        -3.4915    1.1788   -0.0000 C.3        1 <1>        0.000
      4 C21        -0.8628    2.6963    0.0000 C.3        1 <1>        0.000
      5 C22        -3.5169    2.7219    0.0000 C.3        1 <1>        0.000
      6 C23        -2.1824    3.4787   -0.0000 C.3        1 <1>        0.000
      7 H          -2.2147    0.1032   -0.9188 H.spc      1 <1>        0.000
      8 H          -0.4433    0.8411   -0.9304 H.spc      1 <1>        0.000
      9 H          -0.4433    0.8411    0.9304 H.spc      1 <1>        0.000
     10 H          -3.9712    0.8752    0.9305 H.spc      1 <1>        0.000
     11 H          -3.9712    0.8752   -0.9305 H.spc      1 <1>        0.000
     12 H          -0.3748    2.9630   -0.9374 H.spc      1 <1>        0.000
     13 H          -0.3748    2.9630    0.9374 H.spc      1 <1>        0.000
     14 H          -3.9999    2.9980   -0.9373 H.spc      1 <1>        0.000
     15 H          -3.9999    2.9980    0.9373 H.spc      1 <1>        0.000
     16 H          -2.1771    4.0255    0.9429 H.spc      1 <1>        0.000
     17 H          -2.1771    4.0255   -0.9429 H.spc      1 <1>        0.000
@<TRIPOS>BOND
     1    5    6 1  
     2    1    3 1  
     3    1    2 1  
     4    2    4 1  
     5    3    5 1  
     6    4    6 1  
     7    1    7 1  
     8    2    8 1  
     9    2    9 1  
    10    3   10 1  
    11    3   11 1  
    12    4   12 1  
    13    4   13 1  
    14    5   14 1  
    15    5   15 1  
    16    6   16 1  
    17    6   17 1  
