#      Rotatable Fragment
#      Build by yxyuan
#
# Name:          frag3-115-120/96164
# Creation time: Sat Jun  5 12:52:49 2010


@<TRIPOS>MOLECULE
frag3-115-120/96164
    4     3     1     1     1
SMALL
USER_CHARGES


@<TRIPOS>ATOM
      1 S1          1.1160   -0.0810   -0.1432 S.3        1 <1>        0.000
      2 S2         -0.8872   -0.4433   -0.3368 S.3        1 <1>        0.000
      3 H           1.7855   -0.8181   -1.0249 H.spc      1 <1>        0.000
      4 H          -1.5567    0.2938    0.5449 H.spc      1 <1>        0.000
@<TRIPOS>BOND
     1    1    2 1  
     2    1    3 1  
     3    2    4 1  
# Name:          frag3-115-120/96164 -- energy: -0.002370
# Creation time: Sat Jun  5 12:52:49 2010


@<TRIPOS>MOLECULE
frag3-115-120/96164 -- energy: -0.002370
    4     3     1     1     1
SMALL
USER_CHARGES


@<TRIPOS>ATOM
      1 S1          1.1160   -0.0810   -0.1432 S.3        1 <1>        0.000
      2 S2         -0.8872   -0.4433   -0.3368 S.3        1 <1>        0.000
      3 H           1.7855   -0.8181   -1.0249 H.spc      1 <1>        0.000
      4 H          -1.5567    0.2938    0.5449 H.spc      1 <1>        0.000
@<TRIPOS>BOND
     1    1    2 1  
     2    1    3 1  
     3    2    4 1  
