#      Rotatable Fragment
#      Build by yxyuan
#
# Name:          frag3-152-15/31924
# Creation time: Sat Jun  5 12:52:05 2010


@<TRIPOS>MOLECULE
frag3-152-15/31924
   10     9     1     1     1
SMALL
USER_CHARGES


@<TRIPOS>ATOM
      1 N1          2.8921   -0.9801    0.6224 N.pl3      1 <1>        0.000
      2 P1          1.5268   -1.2484    1.3760 P.3        1 <1>        0.000
      3 O1          1.7177   -1.2050    2.8101 O.2        1 <1>        0.000
      4 N2          0.9217   -2.6613    0.9444 N.pl3      1 <1>        0.000
      5 O2          0.4779   -0.1512    0.9749 O.3        1 <1>        0.000
      6 H           3.7442   -0.8088    1.1562 H.spc      1 <1>        0.000
      7 H           2.9201   -0.9784   -0.3972 H.spc      1 <1>        0.000
      8 H           0.7297   -3.3712    1.6512 H.spc      1 <1>        0.000
      9 H           0.7271   -2.8541   -0.0381 H.spc      1 <1>        0.000
     10 H           0.3433   -0.1710    0.0246 H.spc      1 <1>        0.000
@<TRIPOS>BOND
     1    2    4 1  
     2    1    2 1  
     3    2    3 2  
     4    2    5 1  
     5    1    6 1  
     6    1    7 1  
     7    4    8 1  
     8    4    9 1  
     9    5   10 1  
# Name:          frag3-152-15/31924 -- energy: -0.475496
# Creation time: Sat Jun  5 12:52:05 2010


@<TRIPOS>MOLECULE
frag3-152-15/31924 -- energy: -0.475496
   10     9     1     1     1
SMALL
USER_CHARGES


@<TRIPOS>ATOM
      1 N1          2.8921   -0.9801    0.6224 N.pl3      1 <1>        0.000
      2 P1          1.5268   -1.2484    1.3760 P.3        1 <1>        0.000
      3 O1          1.7177   -1.2050    2.8101 O.2        1 <1>        0.000
      4 N2          0.9217   -2.6613    0.9444 N.pl3      1 <1>        0.000
      5 O2          0.4779   -0.1512    0.9749 O.3        1 <1>        0.000
      6 H           3.7442   -0.8088    1.1562 H.spc      1 <1>        0.000
      7 H           2.9201   -0.9784   -0.3972 H.spc      1 <1>        0.000
      8 H           0.7297   -3.3712    1.6512 H.spc      1 <1>        0.000
      9 H           0.7271   -2.8541   -0.0381 H.spc      1 <1>        0.000
     10 H           0.3433   -0.1710    0.0246 H.spc      1 <1>        0.000
@<TRIPOS>BOND
     1    2    4 1  
     2    1    2 1  
     3    2    3 2  
     4    2    5 1  
     5    1    6 1  
     6    1    7 1  
     7    4    8 1  
     8    4    9 1  
     9    5   10 1  
