#      Rotatable Fragment
#      Build by yxyuan
#
# Name:          frag4-338-512/150395
# Creation time: Sat Jun  5 12:53:31 2010


@<TRIPOS>MOLECULE
frag4-338-512/150395
   12    12     1     1     1
SMALL
USER_CHARGES


@<TRIPOS>ATOM
      1 C19         1.7846    0.8931    0.1977 C.3        1 <1>        0.000
      2 S1          2.9859    2.1696    0.4816 S.3        1 <1>        0.000
      3 C20         2.4746   -0.3651   -0.2542 C.3        1 <1>        0.000
      4 C21         4.2631    1.0885    0.0306 C.3        1 <1>        0.000
      5 N1          3.8866   -0.2074   -0.3350 N.3        1 <1>        0.000
      6 H           1.0880    1.2193   -0.5746 H.spc      1 <1>        0.000
      7 H           1.2439    0.6950    1.1232 H.spc      1 <1>        0.000
      8 H           2.1048   -0.6152   -1.2486 H.spc      1 <1>        0.000
      9 H           2.2628   -1.1474    0.4747 H.spc      1 <1>        0.000
     10 H           4.8925    0.9811    0.9140 H.spc      1 <1>        0.000
     11 H           4.7305    1.5262   -0.8514 H.spc      1 <1>        0.000
     12 H           4.1820   -0.3768   -1.2965 H.spc      1 <1>        0.000
@<TRIPOS>BOND
     1    2    4 1  
     2    1    2 1  
     3    1    3 1  
     4    3    5 1  
     5    4    5 1  
     6    1    6 1  
     7    1    7 1  
     8    3    8 1  
     9    3    9 1  
    10    4   10 1  
    11    4   11 1  
    12    5   12 1  
# Name:          frag4-338-512/150395 -- energy: -0.518369
# Creation time: Sat Jun  5 12:53:31 2010


@<TRIPOS>MOLECULE
frag4-338-512/150395 -- energy: -0.518369
   12    12     1     1     1
SMALL
USER_CHARGES


@<TRIPOS>ATOM
      1 C19         1.7846    0.8931    0.1977 C.3        1 <1>        0.000
      2 S1          2.9859    2.1696    0.4816 S.3        1 <1>        0.000
      3 C20         2.4746   -0.3651   -0.2542 C.3        1 <1>        0.000
      4 C21         4.2631    1.0885    0.0306 C.3        1 <1>        0.000
      5 N1          3.8866   -0.2074   -0.3350 N.3        1 <1>        0.000
      6 H           1.0880    1.2193   -0.5746 H.spc      1 <1>        0.000
      7 H           1.2439    0.6950    1.1232 H.spc      1 <1>        0.000
      8 H           2.1048   -0.6152   -1.2486 H.spc      1 <1>        0.000
      9 H           2.2628   -1.1474    0.4747 H.spc      1 <1>        0.000
     10 H           4.8925    0.9811    0.9140 H.spc      1 <1>        0.000
     11 H           4.7305    1.5262   -0.8514 H.spc      1 <1>        0.000
     12 H           4.1820   -0.3768   -1.2965 H.spc      1 <1>        0.000
@<TRIPOS>BOND
     1    2    4 1  
     2    1    2 1  
     3    1    3 1  
     4    3    5 1  
     5    4    5 1  
     6    1    6 1  
     7    1    7 1  
     8    3    8 1  
     9    3    9 1  
    10    4   10 1  
    11    4   11 1  
    12    5   12 1  
