#      Rotatable Fragment
#      Build by yxyuan
#
# Name:          frag5-596-111/138278
# Creation time: Sat Jun  5 12:53:46 2010


@<TRIPOS>MOLECULE
frag5-596-111/138278
   19    19     1     1     1
SMALL
USER_CHARGES


@<TRIPOS>ATOM
      1 N5         -0.8398   -0.5686   -0.0192 N.am       1 <1>        0.000
      2 C14        -1.9281    0.0331   -0.5756 C.2        1 <1>        0.000
      3 N6         -3.1820   -0.0441   -0.0247 N.am       1 <1>        0.000
      4 O4         -1.7554    0.6707   -1.5951 O.2        1 <1>        0.000
      5 C24        -4.3901    0.4547   -0.6940 C.3        1 <1>        0.000
      6 C25        -3.4912   -0.3974    1.3613 C.3        1 <1>        0.000
      7 C29        -5.6992   -0.1361   -0.1138 C.3        1 <1>        0.000
      8 C30        -4.5185   -1.5558    1.4879 C.3        1 <1>        0.000
      9 O6         -5.5808   -1.4207    0.5248 O.3        1 <1>        0.000
     10 H           0.0757   -0.4741   -0.4589 H.spc      1 <1>        0.000
     11 H          -0.9405   -1.1136    0.8371 H.spc      1 <1>        0.000
     12 H          -4.4241    1.5348   -0.5511 H.spc      1 <1>        0.000
     13 H          -4.3317    0.1606   -1.7420 H.spc      1 <1>        0.000
     14 H          -2.5645   -0.7271    1.8310 H.spc      1 <1>        0.000
     15 H          -3.9274    0.4820    1.8352 H.spc      1 <1>        0.000
     16 H          -6.3742   -0.2744   -0.9584 H.spc      1 <1>        0.000
     17 H          -6.0351    0.5592    0.6555 H.spc      1 <1>        0.000
     18 H          -4.0026   -2.4985    1.3056 H.spc      1 <1>        0.000
     19 H          -4.9512   -1.5281    2.4880 H.spc      1 <1>        0.000
@<TRIPOS>BOND
     1    5    7 1  
     2    8    9 1  
     3    7    9 1  
     4    6    8 1  
     5    1    2 am 
     6    2    3 am 
     7    2    4 2  
     8    3    5 1  
     9    3    6 1  
    10    1   10 1  
    11    1   11 1  
    12    5   12 1  
    13    5   13 1  
    14    6   14 1  
    15    6   15 1  
    16    7   16 1  
    17    7   17 1  
    18    8   18 1  
    19    8   19 1  
# Name:          frag5-596-111/138278 -- energy: -1.162159
# Creation time: Sat Jun  5 12:53:46 2010


@<TRIPOS>MOLECULE
frag5-596-111/138278 -- energy: -1.162159
   19    19     1     1     1
SMALL
USER_CHARGES


@<TRIPOS>ATOM
      1 N5         -0.8398   -0.5686   -0.0192 N.am       1 <1>        0.000
      2 C14        -1.9281    0.0331   -0.5756 C.2        1 <1>        0.000
      3 N6         -3.1820   -0.0441   -0.0247 N.am       1 <1>        0.000
      4 O4         -1.7554    0.6707   -1.5951 O.2        1 <1>        0.000
      5 C24        -4.3901    0.4547   -0.6940 C.3        1 <1>        0.000
      6 C25        -3.4912   -0.3974    1.3613 C.3        1 <1>        0.000
      7 C29        -5.6992   -0.1361   -0.1138 C.3        1 <1>        0.000
      8 C30        -4.5185   -1.5558    1.4879 C.3        1 <1>        0.000
      9 O6         -5.5808   -1.4207    0.5248 O.3        1 <1>        0.000
     10 H           0.0757   -0.4741   -0.4589 H.spc      1 <1>        0.000
     11 H          -0.9405   -1.1136    0.8371 H.spc      1 <1>        0.000
     12 H          -4.4241    1.5348   -0.5511 H.spc      1 <1>        0.000
     13 H          -4.3317    0.1606   -1.7420 H.spc      1 <1>        0.000
     14 H          -2.5645   -0.7271    1.8310 H.spc      1 <1>        0.000
     15 H          -3.9274    0.4820    1.8352 H.spc      1 <1>        0.000
     16 H          -6.3742   -0.2744   -0.9584 H.spc      1 <1>        0.000
     17 H          -6.0351    0.5592    0.6555 H.spc      1 <1>        0.000
     18 H          -4.0026   -2.4985    1.3056 H.spc      1 <1>        0.000
     19 H          -4.9512   -1.5281    2.4880 H.spc      1 <1>        0.000
@<TRIPOS>BOND
     1    5    7 1  
     2    8    9 1  
     3    7    9 1  
     4    6    8 1  
     5    1    2 am 
     6    2    3 am 
     7    2    4 2  
     8    3    5 1  
     9    3    6 1  
    10    1   10 1  
    11    1   11 1  
    12    5   12 1  
    13    5   13 1  
    14    6   14 1  
    15    6   15 1  
    16    7   16 1  
    17    7   17 1  
    18    8   18 1  
    19    8   19 1  
