#      Rotatable Fragment
#      Build by yxyuan
#
# Name:          frag3-218-7/96164
# Creation time: Sat Jun  5 12:53:13 2010


@<TRIPOS>MOLECULE
frag3-218-7/96164
    8     7     1     1     1
SMALL
USER_CHARGES


@<TRIPOS>ATOM
      1 O28         1.2856   -2.6989    0.4244 O.3        1 <1>        0.000
      2 P5          1.3099   -4.0988   -0.2775 P.3        1 <1>        0.000
      3 O31         2.5976   -4.8562    0.1865 O.3        1 <1>        0.000
      4 O32         1.5146   -3.8041   -1.7955 O.3        1 <1>        0.000
      5 S1         -0.2643   -5.0992    0.0511 S.2        1 <1>        0.000
      6 H           2.1007   -2.2305    0.2299 H.spc      1 <1>        0.000
      7 H           3.3693   -4.3157    0.0021 H.spc      1 <1>        0.000
      8 H           2.3208   -3.2971   -1.9160 H.spc      1 <1>        0.000
@<TRIPOS>BOND
     1    1    2 1  
     2    2    3 1  
     3    2    4 1  
     4    2    5 2  
     5    1    6 1  
     6    3    7 1  
     7    4    8 1  
# Name:          frag3-218-7/96164 -- energy: -0.408997
# Creation time: Sat Jun  5 12:53:13 2010


@<TRIPOS>MOLECULE
frag3-218-7/96164 -- energy: -0.408997
    8     7     1     1     1
SMALL
USER_CHARGES


@<TRIPOS>ATOM
      1 O28         1.2856   -2.6989    0.4244 O.3        1 <1>        0.000
      2 P5          1.3099   -4.0988   -0.2775 P.3        1 <1>        0.000
      3 O31         2.5976   -4.8562    0.1865 O.3        1 <1>        0.000
      4 O32         1.5146   -3.8041   -1.7955 O.3        1 <1>        0.000
      5 S1         -0.2643   -5.0992    0.0511 S.2        1 <1>        0.000
      6 H           2.1007   -2.2305    0.2299 H.spc      1 <1>        0.000
      7 H           3.3693   -4.3157    0.0021 H.spc      1 <1>        0.000
      8 H           2.3208   -3.2971   -1.9160 H.spc      1 <1>        0.000
@<TRIPOS>BOND
     1    1    2 1  
     2    2    3 1  
     3    2    4 1  
     4    2    5 2  
     5    1    6 1  
     6    3    7 1  
     7    4    8 1  
