#      Rotatable Fragment
#      Build by yxyuan
#
# Name:          frag5-515-396/138278
# Creation time: Sat Jun  5 12:53:40 2010


@<TRIPOS>MOLECULE
frag5-515-396/138278
   14    14     1     1     1
SMALL
USER_CHARGES


@<TRIPOS>ATOM
      1 C1          0.5986    1.2571   -0.0582 C.ar       1 <1>        0.000
      2 C3         -0.7962    1.1422   -0.0086 C.ar       1 <1>        0.000
      3 C4          1.4119    0.1164   -0.0055 C.ar       1 <1>        0.000
      4 C6         -1.4074   -0.1134    0.0950 C.ar       1 <1>        0.000
      5 C7          0.7968   -1.1405    0.0976 C.ar       1 <1>        0.000
      6 O1          2.7915    0.2334   -0.0541 O.3        1 <1>        0.000
      7 C8         -0.5969   -1.2517    0.1485 C.ar       1 <1>        0.000
      8 O2         -2.7877   -0.2296    0.1434 O.3        1 <1>        0.000
      9 H           1.0564    2.2430   -0.1386 H.spc      1 <1>        0.000
     10 H          -1.4128    2.0400   -0.0511 H.spc      1 <1>        0.000
     11 H           1.4113   -2.0398    0.1385 H.spc      1 <1>        0.000
     12 H           3.1874   -0.6399   -0.0071 H.spc      1 <1>        0.000
     13 H          -1.0562   -2.2368    0.2308 H.spc      1 <1>        0.000
     14 H          -3.0274   -1.1565    0.2137 H.spc      1 <1>        0.000
@<TRIPOS>BOND
     1    1    2 ar 
     2    1    3 ar 
     3    2    4 ar 
     4    3    6 1  
     5    3    5 ar 
     6    4    7 ar 
     7    4    8 1  
     8    5    7 ar 
     9    1    9 1  
    10    2   10 1  
    11    5   11 1  
    12    6   12 1  
    13    7   13 1  
    14    8   14 1  
# Name:          frag5-515-396/138278 -- energy: -0.143568
# Creation time: Sat Jun  5 12:53:40 2010


@<TRIPOS>MOLECULE
frag5-515-396/138278 -- energy: -0.143568
   14    14     1     1     1
SMALL
USER_CHARGES


@<TRIPOS>ATOM
      1 C1          0.5986    1.2571   -0.0582 C.ar       1 <1>        0.000
      2 C3         -0.7962    1.1422   -0.0086 C.ar       1 <1>        0.000
      3 C4          1.4119    0.1164   -0.0055 C.ar       1 <1>        0.000
      4 C6         -1.4074   -0.1134    0.0950 C.ar       1 <1>        0.000
      5 C7          0.7968   -1.1405    0.0976 C.ar       1 <1>        0.000
      6 O1          2.7915    0.2334   -0.0541 O.3        1 <1>        0.000
      7 C8         -0.5969   -1.2517    0.1485 C.ar       1 <1>        0.000
      8 O2         -2.7877   -0.2296    0.1434 O.3        1 <1>        0.000
      9 H           1.0564    2.2430   -0.1386 H.spc      1 <1>        0.000
     10 H          -1.4128    2.0400   -0.0511 H.spc      1 <1>        0.000
     11 H           1.4113   -2.0398    0.1385 H.spc      1 <1>        0.000
     12 H           3.1874   -0.6399   -0.0071 H.spc      1 <1>        0.000
     13 H          -1.0562   -2.2368    0.2308 H.spc      1 <1>        0.000
     14 H          -3.0274   -1.1565    0.2137 H.spc      1 <1>        0.000
@<TRIPOS>BOND
     1    1    2 ar 
     2    1    3 ar 
     3    2    4 ar 
     4    3    6 1  
     5    3    5 ar 
     6    4    7 ar 
     7    4    8 1  
     8    5    7 ar 
     9    1    9 1  
    10    2   10 1  
    11    5   11 1  
    12    6   12 1  
    13    7   13 1  
    14    8   14 1  
