#      Rotatable Fragment
#      Build by yxyuan
#
# Name:          frag5-634-29/41815
# Creation time: Sat Jun  5 12:53:00 2010


@<TRIPOS>MOLECULE
frag5-634-29/41815
   36    39     1     1     1
SMALL
USER_CHARGES


@<TRIPOS>ATOM
      1 C8         -1.2302   -2.2044    0.2348 C.3        1 <1>        0.000
      2 C9         -1.3948   -3.5199    1.0080 C.3        1 <1>        0.000
      3 C10        -0.4308   -3.5379    2.1978 C.3        1 <1>        0.000
      4 C11         1.0165   -3.5376    1.6851 C.3        1 <1>        0.000
      5 C12         1.2836   -2.4867    0.6115 C.ar       1 <1>        0.000
      6 C13         0.2236   -1.8517   -0.0621 C.ar       1 <1>        0.000
      7 C14         0.4796   -0.8542   -1.0266 C.ar       1 <1>        0.000
      8 C22         5.1640    2.1624   -4.0163 C.ar       1 <1>        0.000
      9 C15         1.8153   -0.5366   -1.3390 C.ar       1 <1>        0.000
     10 C16         2.8633   -1.1842   -0.6944 C.ar       1 <1>        0.000
     11 C17         2.6164   -2.1539    0.2909 C.ar       1 <1>        0.000
     12 O4          3.6516   -2.7743    0.9390 O.3        1 <1>        0.000
     13 C18         4.2923   -0.8380   -1.0562 C.2        1 <1>        0.000
     14 C19         4.6124    0.2014   -2.0892 C.ar       1 <1>        0.000
     15 C20         3.5564    0.8694   -2.7348 C.ar       1 <1>        0.000
     16 C21         3.8423    1.8492   -3.6941 C.ar       1 <1>        0.000
     17 C23         6.2117    1.4945   -3.3809 C.ar       1 <1>        0.000
     18 C24         5.9353    0.5182   -2.4222 C.ar       1 <1>        0.000
     19 C25         2.1421    0.5145   -2.3782 C.2        1 <1>        0.000
     20 O5          1.2232    1.1009   -2.9571 O.2        1 <1>        0.000
     21 O6          5.2271   -1.4204   -0.4981 O.2        1 <1>        0.000
     22 O7         -0.5936   -0.2386   -1.6235 O.3        1 <1>        0.000
     23 H          -1.6412   -1.4068    0.8537 H.spc      1 <1>        0.000
     24 H          -1.7413   -2.3198   -0.7210 H.spc      1 <1>        0.000
     25 H          -1.1730   -4.3588    0.3484 H.spc      1 <1>        0.000
     26 H          -2.4196   -3.6024    1.3699 H.spc      1 <1>        0.000
     27 H          -0.5979   -2.6543    2.8138 H.spc      1 <1>        0.000
     28 H          -0.6050   -4.4345    2.7926 H.spc      1 <1>        0.000
     29 H           1.6635   -3.3111    2.5325 H.spc      1 <1>        0.000
     30 H           1.2061   -4.5146    1.2406 H.spc      1 <1>        0.000
     31 H           5.3773    2.9274   -4.7629 H.spc      1 <1>        0.000
     32 H           4.4855   -2.4356    0.6052 H.spc      1 <1>        0.000
     33 H           3.0260    2.3714   -4.1932 H.spc      1 <1>        0.000
     34 H           7.2446    1.7349   -3.6329 H.spc      1 <1>        0.000
     35 H           6.7561   -0.0020   -1.9286 H.spc      1 <1>        0.000
     36 H          -0.2775    0.4132   -2.2535 H.spc      1 <1>        0.000
@<TRIPOS>BOND
     1    6    7 ar 
     2    4    5 1  
     3    1    2 1  
     4    5    6 ar 
     5    7   22 1  
     6    7    9 ar 
     7    3    4 1  
     8    9   10 ar 
     9    2    3 1  
    10    1    6 1  
    11    9   19 1  
    12    5   11 ar 
    13   19   20 2  
    14   17   18 ar 
    15    8   17 ar 
    16   16    8 ar 
    17   15   19 1  
    18   14   18 ar 
    19   15   16 ar 
    20   14   15 ar 
    21   13   21 2  
    22   13   14 1  
    23   11   12 1  
    24   10   13 1  
    25   10   11 ar 
    26    1   23 1  
    27    1   24 1  
    28    2   25 1  
    29    2   26 1  
    30    3   27 1  
    31    3   28 1  
    32    4   29 1  
    33    4   30 1  
    34    8   31 1  
    35   12   32 1  
    36   16   33 1  
    37   17   34 1  
    38   18   35 1  
    39   22   36 1  
