#      Rotatable Fragment
#      Build by yxyuan
#
# Name:          frag5-558-51/41815
# Creation time: Sat Jun  5 12:52:53 2010


@<TRIPOS>MOLECULE
frag5-558-51/41815
   30    32     1     1     1
SMALL
USER_CHARGES


@<TRIPOS>ATOM
      1 N1         -1.5161    0.5390    0.1484 N.4        1 <1>        0.000
      2 C1         -0.8530    0.7794   -1.1552 C.3        1 <1>        0.000
      3 C2         -0.3549   -0.5381   -1.7808 C.3        1 <1>        0.000
      4 C3          0.5359   -1.3075   -0.7784 C.3        1 <1>        0.000
      5 C4         -0.2593   -1.5850    0.5147 C.3        1 <1>        0.000
      6 C5         -0.6829   -0.2280    1.1155 C.3        1 <1>        0.000
      7 C6          0.5932    0.5249    1.5816 C.3        1 <1>        0.000
      8 C7          1.7794    0.4227    0.6313 C.ar       1 <1>        0.000
      9 C8          1.7683   -0.4605   -0.4746 C.ar       1 <1>        0.000
     10 C9          2.8963   -0.5330   -1.2913 C.ar       1 <1>        0.000
     11 C10         4.0403    0.2410   -1.0691 C.ar       1 <1>        0.000
     12 C11         4.0223    1.1259    0.0243 C.ar       1 <1>        0.000
     13 C12         2.9136    1.2107    0.8533 C.ar       1 <1>        0.000
     14 O1          5.1276    0.1226   -1.9024 O.3        1 <1>        0.000
     15 H          -2.3545   -0.0124   -0.0344 H.spc      1 <1>        0.000
     16 H          -1.7047    1.4503    0.5659 H.spc      1 <1>        0.000
     17 H          -1.5749    1.2346   -1.8332 H.spc      1 <1>        0.000
     18 H           0.0043    1.4328   -0.9934 H.spc      1 <1>        0.000
     19 H           0.2293   -0.3094   -2.6721 H.spc      1 <1>        0.000
     20 H          -1.2149   -1.1562   -2.0386 H.spc      1 <1>        0.000
     21 H           0.8463   -2.2620   -1.2034 H.spc      1 <1>        0.000
     22 H           0.3578   -2.1349    1.2252 H.spc      1 <1>        0.000
     23 H          -1.1389   -2.1895    0.2932 H.spc      1 <1>        0.000
     24 H          -1.3180   -0.3706    1.9898 H.spc      1 <1>        0.000
     25 H           0.9022    0.0705    2.5229 H.spc      1 <1>        0.000
     26 H           0.3309    1.5808    1.6473 H.spc      1 <1>        0.000
     27 H           2.8863   -1.2206   -2.1370 H.spc      1 <1>        0.000
     28 H           4.8913    1.7533    0.2227 H.spc      1 <1>        0.000
     29 H           2.9263    1.9046    1.6938 H.spc      1 <1>        0.000
     30 H           4.9397   -0.5298   -2.5811 H.spc      1 <1>        0.000
@<TRIPOS>BOND
     1   11   14 1  
     2   11   12 ar 
     3    2    3 1  
     4   12   13 ar 
     5    1    2 1  
     6    9   10 ar 
     7    4    5 1  
     8    5    6 1  
     9    4    9 1  
    10    3    4 1  
    11    8   13 ar 
    12   10   11 ar 
    13    6    7 1  
    14    7    8 1  
    15    8    9 ar 
    16    1    6 1  
    17    1   15 1  
    18    1   16 1  
    19    2   17 1  
    20    2   18 1  
    21    3   19 1  
    22    3   20 1  
    23    4   21 1  
    24    5   22 1  
    25    5   23 1  
    26    6   24 1  
    27    7   25 1  
    28    7   26 1  
    29   10   27 1  
    30   12   28 1  
    31   13   29 1  
    32   14   30 1  
# Name:          frag5-558-51/41815 -- energy: -4.029734
# Creation time: Sat Jun  5 12:52:53 2010


@<TRIPOS>MOLECULE
frag5-558-51/41815 -- energy: -4.029734
   30    32     1     1     1
SMALL
USER_CHARGES


@<TRIPOS>ATOM
      1 N1         -1.5161    0.5390    0.1484 N.4        1 <1>        0.000
      2 C1         -0.8530    0.7794   -1.1552 C.3        1 <1>        0.000
      3 C2         -0.3549   -0.5381   -1.7808 C.3        1 <1>        0.000
      4 C3          0.5359   -1.3075   -0.7784 C.3        1 <1>        0.000
      5 C4         -0.2593   -1.5850    0.5147 C.3        1 <1>        0.000
      6 C5         -0.6829   -0.2280    1.1155 C.3        1 <1>        0.000
      7 C6          0.5932    0.5249    1.5816 C.3        1 <1>        0.000
      8 C7          1.7794    0.4227    0.6313 C.ar       1 <1>        0.000
      9 C8          1.7683   -0.4605   -0.4746 C.ar       1 <1>        0.000
     10 C9          2.8963   -0.5330   -1.2913 C.ar       1 <1>        0.000
     11 C10         4.0403    0.2410   -1.0691 C.ar       1 <1>        0.000
     12 C11         4.0223    1.1259    0.0243 C.ar       1 <1>        0.000
     13 C12         2.9136    1.2107    0.8533 C.ar       1 <1>        0.000
     14 O1          5.1276    0.1226   -1.9024 O.3        1 <1>        0.000
     15 H          -2.3545   -0.0124   -0.0344 H.spc      1 <1>        0.000
     16 H          -1.7047    1.4503    0.5659 H.spc      1 <1>        0.000
     17 H          -1.5749    1.2346   -1.8332 H.spc      1 <1>        0.000
     18 H           0.0043    1.4328   -0.9934 H.spc      1 <1>        0.000
     19 H           0.2293   -0.3094   -2.6721 H.spc      1 <1>        0.000
     20 H          -1.2149   -1.1562   -2.0386 H.spc      1 <1>        0.000
     21 H           0.8463   -2.2620   -1.2034 H.spc      1 <1>        0.000
     22 H           0.3578   -2.1349    1.2252 H.spc      1 <1>        0.000
     23 H          -1.1389   -2.1895    0.2932 H.spc      1 <1>        0.000
     24 H          -1.3180   -0.3706    1.9898 H.spc      1 <1>        0.000
     25 H           0.9022    0.0705    2.5229 H.spc      1 <1>        0.000
     26 H           0.3309    1.5808    1.6473 H.spc      1 <1>        0.000
     27 H           2.8863   -1.2206   -2.1370 H.spc      1 <1>        0.000
     28 H           4.8913    1.7533    0.2227 H.spc      1 <1>        0.000
     29 H           2.9263    1.9046    1.6938 H.spc      1 <1>        0.000
     30 H           4.9397   -0.5298   -2.5811 H.spc      1 <1>        0.000
@<TRIPOS>BOND
     1   11   14 1  
     2   11   12 ar 
     3    2    3 1  
     4   12   13 ar 
     5    1    2 1  
     6    9   10 ar 
     7    4    5 1  
     8    5    6 1  
     9    4    9 1  
    10    3    4 1  
    11    8   13 ar 
    12   10   11 ar 
    13    6    7 1  
    14    7    8 1  
    15    8    9 ar 
    16    1    6 1  
    17    1   15 1  
    18    1   16 1  
    19    2   17 1  
    20    2   18 1  
    21    3   19 1  
    22    3   20 1  
    23    4   21 1  
    24    5   22 1  
    25    5   23 1  
    26    6   24 1  
    27    7   25 1  
    28    7   26 1  
    29   10   27 1  
    30   12   28 1  
    31   13   29 1  
    32   14   30 1  
