#      Rotatable Fragment
#      Build by yxyuan
#
# Name:          frag3-227-3/31924
# Creation time: Sat Jun  5 12:52:24 2010


@<TRIPOS>MOLECULE
frag3-227-3/31924
   11    10     1     1     1
SMALL
USER_CHARGES


@<TRIPOS>ATOM
      1 P1         -4.4327    0.1134   -0.5229 P.3        1 <1>        0.000
      2 O1         -4.6687    0.4051   -1.9358 O.2        1 <1>        0.000
      3 O2         -5.7863   -0.5356    0.0023 O.3        1 <1>        0.000
      4 O3         -4.2857    1.4909    0.2656 O.3        1 <1>        0.000
      5 C1         -3.0517   -0.8419   -0.3415 C.2        1 <1>        0.000
      6 C2         -1.8755   -0.6462   -0.9450 C.2        1 <1>        0.000
      7 H          -5.6959   -0.7522    0.9332 H.spc      1 <1>        0.000
      8 H          -4.1302    1.3109    1.1957 H.spc      1 <1>        0.000
      9 H          -3.1267   -1.6972    0.3300 H.spc      1 <1>        0.000
     10 H          -1.7459    0.1944   -1.6266 H.spc      1 <1>        0.000
     11 H          -1.0458   -1.3272   -0.7556 H.spc      1 <1>        0.000
@<TRIPOS>BOND
     1    1    2 2  
     2    1    3 1  
     3    1    4 1  
     4    1    5 1  
     5    5    6 2  
     6    3    7 1  
     7    4    8 1  
     8    5    9 1  
     9    6   10 1  
    10    6   11 1  
# Name:          frag3-227-3/31924
# Creation time: Sat Jun  5 12:52:24 2010


@<TRIPOS>MOLECULE
frag3-227-3/31924
   11    10     1     1     1
SMALL
USER_CHARGES


@<TRIPOS>ATOM
      1 P1         -4.4372    0.1565   -0.7206 P.3        1 <1>        0.000
      2 O1         -5.0603    0.5942   -1.9528 O.2        1 <1>        0.000
      3 O2         -5.4530   -0.6887    0.1868 O.3        1 <1>        0.000
      4 O3         -4.1654    1.4775    0.1500 O.3        1 <1>        0.000
      5 C1         -3.0215   -0.7401   -0.9836 C.2        1 <1>        0.000
      6 C2         -1.9631   -0.8136   -0.1570 C.2        1 <1>        0.000
      7 H          -5.0088   -0.9620    0.9928 H.spc      1 <1>        0.000
      8 H          -3.7507    1.2324    0.9804 H.spc      1 <1>        0.000
      9 H          -2.9641   -1.3108   -1.9105 H.spc      1 <1>        0.000
     10 H          -1.9670   -0.2629    0.7837 H.spc      1 <1>        0.000
     11 H          -1.1015   -1.4238   -0.4277 H.spc      1 <1>        0.000
@<TRIPOS>BOND
     1    1    2 2  
     2    1    3 1  
     3    1    4 1  
     4    1    5 1  
     5    5    6 2  
     6    3    7 1  
     7    4    8 1  
     8    5    9 1  
     9    6   10 1  
    10    6   11 1  
# Name:          frag3-227-3/31924
# Creation time: Sat Jun  5 12:52:24 2010


@<TRIPOS>MOLECULE
frag3-227-3/31924
   11    10     1     1     1
SMALL
USER_CHARGES


@<TRIPOS>ATOM
      1 P1         -4.4114    0.3081   -0.5926 P.3        1 <1>        0.000
      2 O1         -4.7387    0.6075   -1.9677 O.2        1 <1>        0.000
      3 O2         -5.3070   -0.8798   -0.0101 O.3        1 <1>        0.000
      4 O3         -4.5818    1.5851    0.3194 O.3        1 <1>        0.000
      5 C1         -2.7688   -0.2056   -0.4762 C.2        1 <1>        0.000
      6 C2         -2.2928   -1.4296   -0.7501 C.2        1 <1>        0.000
      7 H          -5.0598   -1.0476    0.9022 H.spc      1 <1>        0.000
      8 H          -4.3591    1.3615    1.2260 H.spc      1 <1>        0.000
      9 H          -2.0445    0.5394   -0.1469 H.spc      1 <1>        0.000
     10 H          -2.9702   -2.2157   -1.0837 H.spc      1 <1>        0.000
     11 H          -1.2287   -1.6380   -0.6391 H.spc      1 <1>        0.000
@<TRIPOS>BOND
     1    1    2 2  
     2    1    3 1  
     3    1    4 1  
     4    1    5 1  
     5    5    6 2  
     6    3    7 1  
     7    4    8 1  
     8    5    9 1  
     9    6   10 1  
    10    6   11 1  
# Name:          frag3-227-3/31924 -- energy: -0.721784
# Creation time: Sat Jun  5 12:52:24 2010


@<TRIPOS>MOLECULE
frag3-227-3/31924 -- energy: -0.721784
   11    10     1     1     1
SMALL
USER_CHARGES


@<TRIPOS>ATOM
      1 P1         -4.4327    0.1134   -0.5229 P.3        1 <1>        0.000
      2 O1         -4.6687    0.4051   -1.9358 O.2        1 <1>        0.000
      3 O2         -5.7863   -0.5356    0.0023 O.3        1 <1>        0.000
      4 O3         -4.2857    1.4909    0.2656 O.3        1 <1>        0.000
      5 C1         -3.0517   -0.8419   -0.3415 C.2        1 <1>        0.000
      6 C2         -1.8755   -0.6462   -0.9450 C.2        1 <1>        0.000
      7 H          -5.6959   -0.7522    0.9332 H.spc      1 <1>        0.000
      8 H          -4.1302    1.3109    1.1957 H.spc      1 <1>        0.000
      9 H          -3.1267   -1.6972    0.3300 H.spc      1 <1>        0.000
     10 H          -1.7459    0.1944   -1.6266 H.spc      1 <1>        0.000
     11 H          -1.0458   -1.3272   -0.7556 H.spc      1 <1>        0.000
@<TRIPOS>BOND
     1    1    2 2  
     2    1    3 1  
     3    1    4 1  
     4    1    5 1  
     5    5    6 2  
     6    3    7 1  
     7    4    8 1  
     8    5    9 1  
     9    6   10 1  
    10    6   11 1  
# Name:          frag3-227-3/31924 -- energy: -0.831231
# Creation time: Sat Jun  5 12:52:24 2010


@<TRIPOS>MOLECULE
frag3-227-3/31924 -- energy: -0.831231
   11    10     1     1     1
SMALL
USER_CHARGES


@<TRIPOS>ATOM
      1 P1         -4.4372    0.1565   -0.7206 P.3        1 <1>        0.000
      2 O1         -5.0603    0.5942   -1.9528 O.2        1 <1>        0.000
      3 O2         -5.4530   -0.6887    0.1868 O.3        1 <1>        0.000
      4 O3         -4.1654    1.4775    0.1500 O.3        1 <1>        0.000
      5 C1         -3.0215   -0.7401   -0.9836 C.2        1 <1>        0.000
      6 C2         -1.9631   -0.8136   -0.1570 C.2        1 <1>        0.000
      7 H          -5.0088   -0.9620    0.9928 H.spc      1 <1>        0.000
      8 H          -3.7507    1.2324    0.9804 H.spc      1 <1>        0.000
      9 H          -2.9641   -1.3108   -1.9105 H.spc      1 <1>        0.000
     10 H          -1.9670   -0.2629    0.7837 H.spc      1 <1>        0.000
     11 H          -1.1015   -1.4238   -0.4277 H.spc      1 <1>        0.000
@<TRIPOS>BOND
     1    1    2 2  
     2    1    3 1  
     3    1    4 1  
     4    1    5 1  
     5    5    6 2  
     6    3    7 1  
     7    4    8 1  
     8    5    9 1  
     9    6   10 1  
    10    6   11 1  
# Name:          frag3-227-3/31924 -- energy: -0.770495
# Creation time: Sat Jun  5 12:52:24 2010


@<TRIPOS>MOLECULE
frag3-227-3/31924 -- energy: -0.770495
   11    10     1     1     1
SMALL
USER_CHARGES


@<TRIPOS>ATOM
      1 P1         -4.4114    0.3081   -0.5926 P.3        1 <1>        0.000
      2 O1         -4.7387    0.6075   -1.9677 O.2        1 <1>        0.000
      3 O2         -5.3070   -0.8798   -0.0101 O.3        1 <1>        0.000
      4 O3         -4.5818    1.5851    0.3194 O.3        1 <1>        0.000
      5 C1         -2.7688   -0.2056   -0.4762 C.2        1 <1>        0.000
      6 C2         -2.2928   -1.4296   -0.7501 C.2        1 <1>        0.000
      7 H          -5.0598   -1.0476    0.9022 H.spc      1 <1>        0.000
      8 H          -4.3591    1.3615    1.2260 H.spc      1 <1>        0.000
      9 H          -2.0445    0.5394   -0.1469 H.spc      1 <1>        0.000
     10 H          -2.9702   -2.2157   -1.0837 H.spc      1 <1>        0.000
     11 H          -1.2287   -1.6380   -0.6391 H.spc      1 <1>        0.000
@<TRIPOS>BOND
     1    1    2 2  
     2    1    3 1  
     3    1    4 1  
     4    1    5 1  
     5    5    6 2  
     6    3    7 1  
     7    4    8 1  
     8    5    9 1  
     9    6   10 1  
    10    6   11 1  
