#      Rotatable Fragment
#      Build by yxyuan
#
# Name:          frag4-361-102/48856
# Creation time: Sat Jun  5 12:53:17 2010


@<TRIPOS>MOLECULE
frag4-361-102/48856
   22    23     1     1     1
SMALL
USER_CHARGES


@<TRIPOS>ATOM
      1 N1          1.9830   -0.0332    0.6970 N.4        1 <1>        0.000
      2 C1          0.8787   -0.8933    0.1880 C.3        1 <1>        0.000
      3 C2          1.1463   -1.3375   -1.2692 C.3        1 <1>        0.000
      4 C3          2.5091   -0.7617   -1.7245 C.3        1 <1>        0.000
      5 C4          2.4472    0.7817   -1.6242 C.3        1 <1>        0.000
      6 C5          2.1124    1.1739   -0.1660 C.3        1 <1>        0.000
      7 C6          3.6035   -1.2712   -0.7558 C.3        1 <1>        0.000
      8 C7          3.2605   -0.7990    0.6767 C.3        1 <1>        0.000
      9 H           1.7753    0.2545    1.6533 H.spc      1 <1>        0.000
     10 H           0.8098   -1.7812    0.8165 H.spc      1 <1>        0.000
     11 H          -0.0491   -0.3218    0.2139 H.spc      1 <1>        0.000
     12 H           0.3535   -0.9677   -1.9194 H.spc      1 <1>        0.000
     13 H           1.1681   -2.4258   -1.3253 H.spc      1 <1>        0.000
     14 H           2.7305   -1.0689   -2.7466 H.spc      1 <1>        0.000
     15 H           3.4083    1.2091   -1.9101 H.spc      1 <1>        0.000
     16 H           1.6785    1.1647   -2.2953 H.spc      1 <1>        0.000
     17 H           1.1644    1.7119   -0.1581 H.spc      1 <1>        0.000
     18 H           2.9191    1.7957    0.2222 H.spc      1 <1>        0.000
     19 H           3.6454   -2.3600   -0.7857 H.spc      1 <1>        0.000
     20 H           4.5740   -0.8740   -1.0532 H.spc      1 <1>        0.000
     21 H           3.1525   -1.6749    1.3164 H.spc      1 <1>        0.000
     22 H           4.0616   -0.1507    1.0316 H.spc      1 <1>        0.000
@<TRIPOS>BOND
     1    1    8 1  
     2    2    3 1  
     3    5    6 1  
     4    3    4 1  
     5    7    8 1  
     6    4    5 1  
     7    4    7 1  
     8    1    2 1  
     9    1    6 1  
    10    1    9 1  
    11    2   10 1  
    12    2   11 1  
    13    3   12 1  
    14    3   13 1  
    15    4   14 1  
    16    5   15 1  
    17    5   16 1  
    18    6   17 1  
    19    6   18 1  
    20    7   19 1  
    21    7   20 1  
    22    8   21 1  
    23    8   22 1  
# Name:          frag4-361-102/48856 -- energy: -1.871746
# Creation time: Sat Jun  5 12:53:17 2010


@<TRIPOS>MOLECULE
frag4-361-102/48856 -- energy: -1.871746
   22    23     1     1     1
SMALL
USER_CHARGES


@<TRIPOS>ATOM
      1 N1          1.9830   -0.0332    0.6970 N.4        1 <1>        0.000
      2 C1          0.8787   -0.8933    0.1880 C.3        1 <1>        0.000
      3 C2          1.1463   -1.3375   -1.2692 C.3        1 <1>        0.000
      4 C3          2.5091   -0.7617   -1.7245 C.3        1 <1>        0.000
      5 C4          2.4472    0.7817   -1.6242 C.3        1 <1>        0.000
      6 C5          2.1124    1.1739   -0.1660 C.3        1 <1>        0.000
      7 C6          3.6035   -1.2712   -0.7558 C.3        1 <1>        0.000
      8 C7          3.2605   -0.7990    0.6767 C.3        1 <1>        0.000
      9 H           1.7753    0.2545    1.6533 H.spc      1 <1>        0.000
     10 H           0.8098   -1.7812    0.8165 H.spc      1 <1>        0.000
     11 H          -0.0491   -0.3218    0.2139 H.spc      1 <1>        0.000
     12 H           0.3535   -0.9677   -1.9194 H.spc      1 <1>        0.000
     13 H           1.1681   -2.4258   -1.3253 H.spc      1 <1>        0.000
     14 H           2.7305   -1.0689   -2.7466 H.spc      1 <1>        0.000
     15 H           3.4083    1.2091   -1.9101 H.spc      1 <1>        0.000
     16 H           1.6785    1.1647   -2.2953 H.spc      1 <1>        0.000
     17 H           1.1644    1.7119   -0.1581 H.spc      1 <1>        0.000
     18 H           2.9191    1.7957    0.2222 H.spc      1 <1>        0.000
     19 H           3.6454   -2.3600   -0.7857 H.spc      1 <1>        0.000
     20 H           4.5740   -0.8740   -1.0532 H.spc      1 <1>        0.000
     21 H           3.1525   -1.6749    1.3164 H.spc      1 <1>        0.000
     22 H           4.0616   -0.1507    1.0316 H.spc      1 <1>        0.000
@<TRIPOS>BOND
     1    1    8 1  
     2    2    3 1  
     3    5    6 1  
     4    3    4 1  
     5    7    8 1  
     6    4    5 1  
     7    4    7 1  
     8    1    2 1  
     9    1    6 1  
    10    1    9 1  
    11    2   10 1  
    12    2   11 1  
    13    3   12 1  
    14    3   13 1  
    15    4   14 1  
    16    5   15 1  
    17    5   16 1  
    18    6   17 1  
    19    6   18 1  
    20    7   19 1  
    21    7   20 1  
    22    8   21 1  
    23    8   22 1  
