#      Rotatable Fragment
#      Build by yxyuan
#
# Name:          frag4-348-126/48856
# Creation time: Sat Jun  5 12:53:03 2010


@<TRIPOS>MOLECULE
frag4-348-126/48856
    7     7     1     1     1
SMALL
USER_CHARGES


@<TRIPOS>ATOM
      1 N1          0.5413    0.7896    0.1081 N.ar       1 <1>        0.000
      2 N2         -0.8359    0.9141   -0.1570 N.ar       1 <1>        0.000
      3 C14        -1.2882   -0.2793   -0.2526 C.ar       1 <1>        0.000
      4 N3         -0.1495   -1.1205   -0.2848 N.ar       1 <1>        0.000
      5 C15         0.9634   -0.4741    0.0314 C.ar       1 <1>        0.000
      6 H          -2.3334   -0.5849   -0.2995 H.spc      1 <1>        0.000
      7 H           1.9658   -0.8723    0.1885 H.spc      1 <1>        0.000
@<TRIPOS>BOND
     1    1    2 ar 
     2    1    5 ar 
     3    2    3 ar 
     4    3    4 ar 
     5    4    5 ar 
     6    3    6 1  
     7    5    7 1  
# Name:          frag4-348-126/48856 -- energy: -0.084915
# Creation time: Sat Jun  5 12:53:03 2010


@<TRIPOS>MOLECULE
frag4-348-126/48856 -- energy: -0.084915
    7     7     1     1     1
SMALL
USER_CHARGES


@<TRIPOS>ATOM
      1 N1          0.5413    0.7896    0.1081 N.ar       1 <1>        0.000
      2 N2         -0.8359    0.9141   -0.1570 N.ar       1 <1>        0.000
      3 C14        -1.2882   -0.2793   -0.2526 C.ar       1 <1>        0.000
      4 N3         -0.1495   -1.1205   -0.2848 N.ar       1 <1>        0.000
      5 C15         0.9634   -0.4741    0.0314 C.ar       1 <1>        0.000
      6 H          -2.3334   -0.5849   -0.2995 H.spc      1 <1>        0.000
      7 H           1.9658   -0.8723    0.1885 H.spc      1 <1>        0.000
@<TRIPOS>BOND
     1    1    2 ar 
     2    1    5 ar 
     3    2    3 ar 
     4    3    4 ar 
     5    4    5 ar 
     6    3    6 1  
     7    5    7 1  
