#      Rotatable Fragment
#      Build by yxyuan
#
# Name:          frag2-062-4/92655
# Creation time: Sat Jun  5 12:51:57 2010


@<TRIPOS>MOLECULE
frag2-062-4/92655
    5     4     1     1     1
SMALL
USER_CHARGES


@<TRIPOS>ATOM
      1 N5          0.8786    0.0408    0.0996 N.2        1 <1>        0.000
      2 C10        -0.3776   -0.1254    0.1479 C.2        1 <1>        0.000
      3 H           1.3358    0.6685    0.7609 H.spc      1 <1>        0.000
      4 H          -0.9688    0.4026    0.8961 H.spc      1 <1>        0.000
      5 H          -0.8662   -0.7962   -0.5588 H.spc      1 <1>        0.000
@<TRIPOS>BOND
     1    1    2 2  
     2    1    3 1  
     3    2    4 1  
     4    2    5 1  
# Name:          frag2-062-4/92655 -- energy: -0.030357
# Creation time: Sat Jun  5 12:51:57 2010


@<TRIPOS>MOLECULE
frag2-062-4/92655 -- energy: -0.030357
    5     4     1     1     1
SMALL
USER_CHARGES


@<TRIPOS>ATOM
      1 N5          0.8786    0.0408    0.0996 N.2        1 <1>        0.000
      2 C10        -0.3776   -0.1254    0.1479 C.2        1 <1>        0.000
      3 H           1.3358    0.6685    0.7609 H.spc      1 <1>        0.000
      4 H          -0.9688    0.4026    0.8961 H.spc      1 <1>        0.000
      5 H          -0.8662   -0.7962   -0.5588 H.spc      1 <1>        0.000
@<TRIPOS>BOND
     1    1    2 2  
     2    1    3 1  
     3    2    4 1  
     4    2    5 1  
