#      Rotatable Fragment
#      Build by yxyuan
#
# Name:          frag4-442-43/48856
# Creation time: Sat Jun  5 12:52:47 2010


@<TRIPOS>MOLECULE
frag4-442-43/48856
   41    44     1     1     1
SMALL
USER_CHARGES


@<TRIPOS>ATOM
      1 C9          0.9902    0.2736   -3.0229 C.3        1 <1>        0.000
      2 C10        -0.3748    0.0149   -3.6648 C.3        1 <1>        0.000
      3 C11        -1.4679    0.6760   -2.8318 C.3        1 <1>        0.000
      4 C12        -1.1976    2.1795   -2.7488 C.3        1 <1>        0.000
      5 C13         0.1528    2.5147   -2.0799 C.3        1 <1>        0.000
      6 C14         0.3652    4.0318   -2.0977 C.3        1 <1>        0.000
      7 C15         1.7550    4.3996   -1.6303 C.3        1 <1>        0.000
      8 C23        -2.4811    2.7139   -2.1075 C.3        1 <1>        0.000
      9 C16         2.7722    3.6946   -2.4941 C.2        1 <1>        0.000
     10 C17         3.9253    4.3435   -2.7653 C.2        1 <1>        0.000
     11 C18         4.9723    3.7420   -3.6022 C.3        1 <1>        0.000
     12 C19         4.6511    2.5276   -4.4170 C.3        1 <1>        0.000
     13 C20         3.5996    1.6304   -3.7492 C.3        1 <1>        0.000
     14 C21         2.4952    2.3272   -2.9765 C.2        1 <1>        0.000
     15 C22         1.2849    1.7445   -2.7613 C.2        1 <1>        0.000
     16 C24        -3.5904    1.8723   -2.7568 C.3        1 <1>        0.000
     17 C25        -2.9075    0.6248   -3.3321 C.3        1 <1>        0.000
     18 H           0.9941   -0.2329   -2.0577 H.spc      1 <1>        0.000
     19 H           1.7476   -0.0885   -3.7182 H.spc      1 <1>        0.000
     20 H          -0.5550   -1.0591   -3.7104 H.spc      1 <1>        0.000
     21 H          -0.3856    0.4322   -4.6717 H.spc      1 <1>        0.000
     22 H          -1.4110    0.0965   -1.9104 H.spc      1 <1>        0.000
     23 H          -1.0298    2.6780   -3.7035 H.spc      1 <1>        0.000
     24 H           0.1480    2.1989   -1.0367 H.spc      1 <1>        0.000
     25 H           0.2385    4.3871   -3.1203 H.spc      1 <1>        0.000
     26 H          -0.3591    4.4907   -1.4247 H.spc      1 <1>        0.000
     27 H           1.8839    4.0956   -0.5915 H.spc      1 <1>        0.000
     28 H           1.8936    5.4779   -1.7082 H.spc      1 <1>        0.000
     29 H          -2.6168    3.7821   -2.2765 H.spc      1 <1>        0.000
     30 H          -2.4722    2.6232   -1.0213 H.spc      1 <1>        0.000
     31 H           4.0833    5.3398   -2.3523 H.spc      1 <1>        0.000
     32 H           5.2196    4.5109   -4.3341 H.spc      1 <1>        0.000
     33 H           5.7356    3.4109   -2.8980 H.spc      1 <1>        0.000
     34 H           4.2485    2.8619   -5.3732 H.spc      1 <1>        0.000
     35 H           5.5664    1.9463   -4.5281 H.spc      1 <1>        0.000
     36 H           3.1052    1.0951   -4.5599 H.spc      1 <1>        0.000
     37 H           4.1407    1.0281   -3.0195 H.spc      1 <1>        0.000
     38 H          -4.3523    1.5994   -2.0266 H.spc      1 <1>        0.000
     39 H          -4.1007    2.4345   -3.5389 H.spc      1 <1>        0.000
     40 H          -3.4087   -0.2877   -3.0093 H.spc      1 <1>        0.000
     41 H          -2.9501    0.6144   -4.4212 H.spc      1 <1>        0.000
@<TRIPOS>BOND
     1    5   15 1  
     2    4    5 1  
     3    6    7 1  
     4    1   15 1  
     5    4    8 1  
     6    3    4 1  
     7    1    2 1  
     8    2    3 1  
     9    3   17 1  
    10    5    6 1  
    11   16   17 1  
    12    8   16 1  
    13   14   15 2  
    14   13   14 1  
    15   12   13 1  
    16   11   12 1  
    17   10   11 1  
    18    9   14 1  
    19    9   10 2  
    20    7    9 1  
    21    1   18 1  
    22    1   19 1  
    23    2   20 1  
    24    2   21 1  
    25    3   22 1  
    26    4   23 1  
    27    5   24 1  
    28    6   25 1  
    29    6   26 1  
    30    7   27 1  
    31    7   28 1  
    32    8   29 1  
    33    8   30 1  
    34   10   31 1  
    35   11   32 1  
    36   11   33 1  
    37   12   34 1  
    38   12   35 1  
    39   13   36 1  
    40   13   37 1  
    41   16   38 1  
    42   16   39 1  
    43   17   40 1  
    44   17   41 1  
# Name:          frag4-442-43/48856 -- energy: -6.449650
# Creation time: Sat Jun  5 12:52:47 2010


@<TRIPOS>MOLECULE
frag4-442-43/48856 -- energy: -6.449650
   41    44     1     1     1
SMALL
USER_CHARGES


@<TRIPOS>ATOM
      1 C9          0.9902    0.2736   -3.0229 C.3        1 <1>        0.000
      2 C10        -0.3748    0.0149   -3.6648 C.3        1 <1>        0.000
      3 C11        -1.4679    0.6760   -2.8318 C.3        1 <1>        0.000
      4 C12        -1.1976    2.1795   -2.7488 C.3        1 <1>        0.000
      5 C13         0.1528    2.5147   -2.0799 C.3        1 <1>        0.000
      6 C14         0.3652    4.0318   -2.0977 C.3        1 <1>        0.000
      7 C15         1.7550    4.3996   -1.6303 C.3        1 <1>        0.000
      8 C23        -2.4811    2.7139   -2.1075 C.3        1 <1>        0.000
      9 C16         2.7722    3.6946   -2.4941 C.2        1 <1>        0.000
     10 C17         3.9253    4.3435   -2.7653 C.2        1 <1>        0.000
     11 C18         4.9723    3.7420   -3.6022 C.3        1 <1>        0.000
     12 C19         4.6511    2.5276   -4.4170 C.3        1 <1>        0.000
     13 C20         3.5996    1.6304   -3.7492 C.3        1 <1>        0.000
     14 C21         2.4952    2.3272   -2.9765 C.2        1 <1>        0.000
     15 C22         1.2849    1.7445   -2.7613 C.2        1 <1>        0.000
     16 C24        -3.5904    1.8723   -2.7568 C.3        1 <1>        0.000
     17 C25        -2.9075    0.6248   -3.3321 C.3        1 <1>        0.000
     18 H           0.9941   -0.2329   -2.0577 H.spc      1 <1>        0.000
     19 H           1.7476   -0.0885   -3.7182 H.spc      1 <1>        0.000
     20 H          -0.5550   -1.0591   -3.7104 H.spc      1 <1>        0.000
     21 H          -0.3856    0.4322   -4.6717 H.spc      1 <1>        0.000
     22 H          -1.4110    0.0965   -1.9104 H.spc      1 <1>        0.000
     23 H          -1.0298    2.6780   -3.7035 H.spc      1 <1>        0.000
     24 H           0.1480    2.1989   -1.0367 H.spc      1 <1>        0.000
     25 H           0.2385    4.3871   -3.1203 H.spc      1 <1>        0.000
     26 H          -0.3591    4.4907   -1.4247 H.spc      1 <1>        0.000
     27 H           1.8839    4.0956   -0.5915 H.spc      1 <1>        0.000
     28 H           1.8936    5.4779   -1.7082 H.spc      1 <1>        0.000
     29 H          -2.6168    3.7821   -2.2765 H.spc      1 <1>        0.000
     30 H          -2.4722    2.6232   -1.0213 H.spc      1 <1>        0.000
     31 H           4.0833    5.3398   -2.3523 H.spc      1 <1>        0.000
     32 H           5.2196    4.5109   -4.3341 H.spc      1 <1>        0.000
     33 H           5.7356    3.4109   -2.8980 H.spc      1 <1>        0.000
     34 H           4.2485    2.8619   -5.3732 H.spc      1 <1>        0.000
     35 H           5.5664    1.9463   -4.5281 H.spc      1 <1>        0.000
     36 H           3.1052    1.0951   -4.5599 H.spc      1 <1>        0.000
     37 H           4.1407    1.0281   -3.0195 H.spc      1 <1>        0.000
     38 H          -4.3523    1.5994   -2.0266 H.spc      1 <1>        0.000
     39 H          -4.1007    2.4345   -3.5389 H.spc      1 <1>        0.000
     40 H          -3.4087   -0.2877   -3.0093 H.spc      1 <1>        0.000
     41 H          -2.9501    0.6144   -4.4212 H.spc      1 <1>        0.000
@<TRIPOS>BOND
     1    5   15 1  
     2    4    5 1  
     3    6    7 1  
     4    1   15 1  
     5    4    8 1  
     6    3    4 1  
     7    1    2 1  
     8    2    3 1  
     9    3   17 1  
    10    5    6 1  
    11   16   17 1  
    12    8   16 1  
    13   14   15 2  
    14   13   14 1  
    15   12   13 1  
    16   11   12 1  
    17   10   11 1  
    18    9   14 1  
    19    9   10 2  
    20    7    9 1  
    21    1   18 1  
    22    1   19 1  
    23    2   20 1  
    24    2   21 1  
    25    3   22 1  
    26    4   23 1  
    27    5   24 1  
    28    6   25 1  
    29    6   26 1  
    30    7   27 1  
    31    7   28 1  
    32    8   29 1  
    33    8   30 1  
    34   10   31 1  
    35   11   32 1  
    36   11   33 1  
    37   12   34 1  
    38   12   35 1  
    39   13   36 1  
    40   13   37 1  
    41   16   38 1  
    42   16   39 1  
    43   17   40 1  
    44   17   41 1  
