#      Rotatable Fragment
#      Build by yxyuan
#
# Name:          frag2-089-1/92655
# Creation time: Sat Jun  5 12:51:58 2010


@<TRIPOS>MOLECULE
frag2-089-1/92655
   22    24     1     1     1
SMALL
USER_CHARGES


@<TRIPOS>ATOM
      1 C1         -0.2055   -2.0198   -0.1563 C.ar       1 <1>        0.000
      2 C2         -1.0504   -0.9124   -0.0426 C.ar       1 <1>        0.000
      3 C3         -0.4874    0.3753    0.0470 C.ar       1 <1>        0.000
      4 C4          0.9016    0.5279    0.0177 C.ar       1 <1>        0.000
      5 N1          1.4613    1.7574    0.0992 N.ar       1 <1>        0.000
      6 C5          2.8009    1.9252    0.0719 C.ar       1 <1>        0.000
      7 N2          3.6224    0.8633   -0.0374 N.ar       1 <1>        0.000
      8 C12        -2.4425   -1.0533   -0.0170 C.ar       1 <1>        0.000
      9 C6          3.1215   -0.3825   -0.1222 C.ar       1 <1>        0.000
     10 C7          1.7425   -0.5909   -0.0970 C.ar       1 <1>        0.000
     11 C8          1.1729   -1.8624   -0.1811 C.ar       1 <1>        0.000
     12 C9         -1.3389    1.4880    0.1627 C.ar       1 <1>        0.000
     13 C10        -2.7198    1.3276    0.1861 C.ar       1 <1>        0.000
     14 C11        -3.2719    0.0566    0.0965 C.ar       1 <1>        0.000
     15 H          -0.6346   -3.0194   -0.2264 H.spc      1 <1>        0.000
     16 H           3.2211    2.9287    0.1389 H.spc      1 <1>        0.000
     17 H          -2.8830   -2.0479   -0.0871 H.spc      1 <1>        0.000
     18 H           3.7968   -1.2335   -0.2111 H.spc      1 <1>        0.000
     19 H           1.8158   -2.7384   -0.2669 H.spc      1 <1>        0.000
     20 H          -0.9115    2.4881    0.2349 H.spc      1 <1>        0.000
     21 H          -3.3686    2.1990    0.2747 H.spc      1 <1>        0.000
     22 H          -4.3543   -0.0707    0.1151 H.spc      1 <1>        0.000
@<TRIPOS>BOND
     1    1   11 ar 
     2   13   14 ar 
     3    7    9 ar 
     4   12   13 ar 
     5    6    7 ar 
     6    5    6 ar 
     7   14    8 ar 
     8    3   12 ar 
     9   10   11 ar 
    10    2    3 ar 
    11    4   10 ar 
    12    3    4 ar 
    13    4    5 ar 
    14    2    8 ar 
    15    1    2 ar 
    16    9   10 ar 
    17    1   15 1  
    18    6   16 1  
    19    8   17 1  
    20    9   18 1  
    21   11   19 1  
    22   12   20 1  
    23   13   21 1  
    24   14   22 1  
# Name:          frag2-089-1/92655 -- energy: -0.489579
# Creation time: Sat Jun  5 12:51:58 2010


@<TRIPOS>MOLECULE
frag2-089-1/92655 -- energy: -0.489579
   22    24     1     1     1
SMALL
USER_CHARGES


@<TRIPOS>ATOM
      1 C1         -0.2055   -2.0198   -0.1563 C.ar       1 <1>        0.000
      2 C2         -1.0504   -0.9124   -0.0426 C.ar       1 <1>        0.000
      3 C3         -0.4874    0.3753    0.0470 C.ar       1 <1>        0.000
      4 C4          0.9016    0.5279    0.0177 C.ar       1 <1>        0.000
      5 N1          1.4613    1.7574    0.0992 N.ar       1 <1>        0.000
      6 C5          2.8009    1.9252    0.0719 C.ar       1 <1>        0.000
      7 N2          3.6224    0.8633   -0.0374 N.ar       1 <1>        0.000
      8 C12        -2.4425   -1.0533   -0.0170 C.ar       1 <1>        0.000
      9 C6          3.1215   -0.3825   -0.1222 C.ar       1 <1>        0.000
     10 C7          1.7425   -0.5909   -0.0970 C.ar       1 <1>        0.000
     11 C8          1.1729   -1.8624   -0.1811 C.ar       1 <1>        0.000
     12 C9         -1.3389    1.4880    0.1627 C.ar       1 <1>        0.000
     13 C10        -2.7198    1.3276    0.1861 C.ar       1 <1>        0.000
     14 C11        -3.2719    0.0566    0.0965 C.ar       1 <1>        0.000
     15 H          -0.6346   -3.0194   -0.2264 H.spc      1 <1>        0.000
     16 H           3.2211    2.9287    0.1389 H.spc      1 <1>        0.000
     17 H          -2.8830   -2.0479   -0.0871 H.spc      1 <1>        0.000
     18 H           3.7968   -1.2335   -0.2111 H.spc      1 <1>        0.000
     19 H           1.8158   -2.7384   -0.2669 H.spc      1 <1>        0.000
     20 H          -0.9115    2.4881    0.2349 H.spc      1 <1>        0.000
     21 H          -3.3686    2.1990    0.2747 H.spc      1 <1>        0.000
     22 H          -4.3543   -0.0707    0.1151 H.spc      1 <1>        0.000
@<TRIPOS>BOND
     1    1   11 ar 
     2   13   14 ar 
     3    7    9 ar 
     4   12   13 ar 
     5    6    7 ar 
     6    5    6 ar 
     7   14    8 ar 
     8    3   12 ar 
     9   10   11 ar 
    10    2    3 ar 
    11    4   10 ar 
    12    3    4 ar 
    13    4    5 ar 
    14    2    8 ar 
    15    1    2 ar 
    16    9   10 ar 
    17    1   15 1  
    18    6   16 1  
    19    8   17 1  
    20    9   18 1  
    21   11   19 1  
    22   12   20 1  
    23   13   21 1  
    24   14   22 1  
