#      Rotatable Fragment
#      Build by yxyuan
#
# Name:          frag4-340-481/150395
# Creation time: Sat Jun  5 12:53:31 2010


@<TRIPOS>MOLECULE
frag4-340-481/150395
   12    12     1     1     1
SMALL
USER_CHARGES


@<TRIPOS>ATOM
      1 C8          2.6444    0.3732    0.3088 C.3        1 <1>        0.000
      2 C10         3.6928    1.4509    0.0186 C.3        1 <1>        0.000
      3 C11         3.6928   -0.7045    0.0185 C.3        1 <1>        0.000
      4 C12         4.7806    0.3732    0.0210 C.3        1 <1>        0.000
      5 H           1.6934    0.3732   -0.2239 H.spc      1 <1>        0.000
      6 H           2.1028    0.3732    1.2547 H.spc      1 <1>        0.000
      7 H           3.7803    2.3222    0.6677 H.spc      1 <1>        0.000
      8 H           3.5773    2.1139   -0.8388 H.spc      1 <1>        0.000
      9 H           3.5773   -1.3675   -0.8390 H.spc      1 <1>        0.000
     10 H           3.7803   -1.5758    0.6675 H.spc      1 <1>        0.000
     11 H           5.5532    0.3732    0.7899 H.spc      1 <1>        0.000
     12 H           5.5567    0.3732   -0.7444 H.spc      1 <1>        0.000
@<TRIPOS>BOND
     1    1    2 1  
     2    1    3 1  
     3    2    4 1  
     4    3    4 1  
     5    1    5 1  
     6    1    6 1  
     7    2    7 1  
     8    2    8 1  
     9    3    9 1  
    10    3   10 1  
    11    4   11 1  
    12    4   12 1  
# Name:          frag4-340-481/150395 -- energy: -0.502119
# Creation time: Sat Jun  5 12:53:31 2010


@<TRIPOS>MOLECULE
frag4-340-481/150395 -- energy: -0.502119
   12    12     1     1     1
SMALL
USER_CHARGES


@<TRIPOS>ATOM
      1 C8          2.6444    0.3732    0.3088 C.3        1 <1>        0.000
      2 C10         3.6928    1.4509    0.0186 C.3        1 <1>        0.000
      3 C11         3.6928   -0.7045    0.0185 C.3        1 <1>        0.000
      4 C12         4.7806    0.3732    0.0210 C.3        1 <1>        0.000
      5 H           1.6934    0.3732   -0.2239 H.spc      1 <1>        0.000
      6 H           2.1028    0.3732    1.2547 H.spc      1 <1>        0.000
      7 H           3.7803    2.3222    0.6677 H.spc      1 <1>        0.000
      8 H           3.5773    2.1139   -0.8388 H.spc      1 <1>        0.000
      9 H           3.5773   -1.3675   -0.8390 H.spc      1 <1>        0.000
     10 H           3.7803   -1.5758    0.6675 H.spc      1 <1>        0.000
     11 H           5.5532    0.3732    0.7899 H.spc      1 <1>        0.000
     12 H           5.5567    0.3732   -0.7444 H.spc      1 <1>        0.000
@<TRIPOS>BOND
     1    1    2 1  
     2    1    3 1  
     3    2    4 1  
     4    3    4 1  
     5    1    5 1  
     6    1    6 1  
     7    2    7 1  
     8    2    8 1  
     9    3    9 1  
    10    3   10 1  
    11    4   11 1  
    12    4   12 1  
