#      Rotatable Fragment
#      Build by yxyuan
#
# Name:          frag4-318-874/150395
# Creation time: Sat Jun  5 12:53:30 2010


@<TRIPOS>MOLECULE
frag4-318-874/150395
   22    23     1     1     1
SMALL
USER_CHARGES


@<TRIPOS>ATOM
      1 C1         -2.6631    0.3268   -0.2851 C.ar       1 <1>        0.000
      2 C2         -2.6755   -1.0992   -0.3261 C.ar       1 <1>        0.000
      3 C3         -1.4562    0.9313    0.0913 C.ar       1 <1>        0.000
      4 C4         -3.9149    1.0180   -0.7225 C.3        1 <1>        0.000
      5 C5         -1.5198   -1.7859    0.0479 C.ar       1 <1>        0.000
      6 C6         -3.9428   -1.7418   -0.7508 C.3        1 <1>        0.000
      7 C7         -0.3191    0.2258    0.4588 C.ar       1 <1>        0.000
      8 C8         -5.2495    0.3141   -0.5564 C.3        1 <1>        0.000
      9 C11        -0.3568   -1.1580    0.4411 C.ar       1 <1>        0.000
     10 C12        -5.1207   -1.1160   -0.0523 C.3        1 <1>        0.000
     11 H          -1.4077    2.0202    0.0957 H.spc      1 <1>        0.000
     12 H          -3.9837    1.8989   -0.0843 H.spc      1 <1>        0.000
     13 H          -3.8002    1.1464   -1.7988 H.spc      1 <1>        0.000
     14 H          -1.5373   -2.8756    0.0282 H.spc      1 <1>        0.000
     15 H          -3.9034   -2.8002   -0.4932 H.spc      1 <1>        0.000
     16 H          -4.0609   -1.6087   -1.8262 H.spc      1 <1>        0.000
     17 H           0.5880    0.7520    0.7562 H.spc      1 <1>        0.000
     18 H          -5.8252    0.8719    0.1822 H.spc      1 <1>        0.000
     19 H          -5.7244    0.2751   -1.5367 H.spc      1 <1>        0.000
     20 H           0.5170   -1.7406    0.7327 H.spc      1 <1>        0.000
     21 H          -6.0306   -1.6772   -0.2652 H.spc      1 <1>        0.000
     22 H          -4.9713   -1.1261    1.0274 H.spc      1 <1>        0.000
@<TRIPOS>BOND
     1    8   10 1  
     2    7    9 ar 
     3    2    5 ar 
     4    4    8 1  
     5    2    6 1  
     6    1    4 1  
     7    6   10 1  
     8    5    9 ar 
     9    3    7 ar 
    10    1    2 ar 
    11    1    3 ar 
    12    3   11 1  
    13    4   12 1  
    14    4   13 1  
    15    5   14 1  
    16    6   15 1  
    17    6   16 1  
    18    7   17 1  
    19    8   18 1  
    20    8   19 1  
    21    9   20 1  
    22   10   21 1  
    23   10   22 1  
# Name:          frag4-318-874/150395 -- energy: -1.276129
# Creation time: Sat Jun  5 12:53:30 2010


@<TRIPOS>MOLECULE
frag4-318-874/150395 -- energy: -1.276129
   22    23     1     1     1
SMALL
USER_CHARGES


@<TRIPOS>ATOM
      1 C1         -2.6631    0.3268   -0.2851 C.ar       1 <1>        0.000
      2 C2         -2.6755   -1.0992   -0.3261 C.ar       1 <1>        0.000
      3 C3         -1.4562    0.9313    0.0913 C.ar       1 <1>        0.000
      4 C4         -3.9149    1.0180   -0.7225 C.3        1 <1>        0.000
      5 C5         -1.5198   -1.7859    0.0479 C.ar       1 <1>        0.000
      6 C6         -3.9428   -1.7418   -0.7508 C.3        1 <1>        0.000
      7 C7         -0.3191    0.2258    0.4588 C.ar       1 <1>        0.000
      8 C8         -5.2495    0.3141   -0.5564 C.3        1 <1>        0.000
      9 C11        -0.3568   -1.1580    0.4411 C.ar       1 <1>        0.000
     10 C12        -5.1207   -1.1160   -0.0523 C.3        1 <1>        0.000
     11 H          -1.4077    2.0202    0.0957 H.spc      1 <1>        0.000
     12 H          -3.9837    1.8989   -0.0843 H.spc      1 <1>        0.000
     13 H          -3.8002    1.1464   -1.7988 H.spc      1 <1>        0.000
     14 H          -1.5373   -2.8756    0.0282 H.spc      1 <1>        0.000
     15 H          -3.9034   -2.8002   -0.4932 H.spc      1 <1>        0.000
     16 H          -4.0609   -1.6087   -1.8262 H.spc      1 <1>        0.000
     17 H           0.5880    0.7520    0.7562 H.spc      1 <1>        0.000
     18 H          -5.8252    0.8719    0.1822 H.spc      1 <1>        0.000
     19 H          -5.7244    0.2751   -1.5367 H.spc      1 <1>        0.000
     20 H           0.5170   -1.7406    0.7327 H.spc      1 <1>        0.000
     21 H          -6.0306   -1.6772   -0.2652 H.spc      1 <1>        0.000
     22 H          -4.9713   -1.1261    1.0274 H.spc      1 <1>        0.000
@<TRIPOS>BOND
     1    8   10 1  
     2    7    9 ar 
     3    2    5 ar 
     4    4    8 1  
     5    2    6 1  
     6    1    4 1  
     7    6   10 1  
     8    5    9 ar 
     9    3    7 ar 
    10    1    2 ar 
    11    1    3 ar 
    12    3   11 1  
    13    4   12 1  
    14    4   13 1  
    15    5   14 1  
    16    6   15 1  
    17    6   16 1  
    18    7   17 1  
    19    8   18 1  
    20    8   19 1  
    21    9   20 1  
    22   10   21 1  
    23   10   22 1  
