#      Rotatable Fragment
#      Build by yxyuan
#
# Name:          frag5-552-173/138278
# Creation time: Sat Jun  5 12:53:43 2010


@<TRIPOS>MOLECULE
frag5-552-173/138278
   16    16     1     1     1
SMALL
USER_CHARGES


@<TRIPOS>ATOM
      1 N1          0.1576   -1.3225    0.0000 N.am       1 <1>        0.000
      2 C6          1.3469   -1.9722   -0.0000 C.2        1 <1>        0.000
      3 C7         -1.1128   -1.9816    0.0000 C.3        1 <1>        0.000
      4 C11         1.4234   -3.4819    0.0000 C.3        1 <1>        0.000
      5 O3          2.4078   -1.3508   -0.0000 O.2        1 <1>        0.000
      6 C12        -1.1892   -3.5073    0.0000 C.3        1 <1>        0.000
      7 C15         0.1287   -4.2806   -0.0000 C.3        1 <1>        0.000
      8 H           0.1685   -0.3026    0.0000 H.spc      1 <1>        0.000
      9 H          -1.5693   -1.6883   -0.9453 H.spc      1 <1>        0.000
     10 H          -1.5693   -1.6883    0.9453 H.spc      1 <1>        0.000
     11 H           1.9148   -3.7401    0.9381 H.spc      1 <1>        0.000
     12 H           1.9148   -3.7401   -0.9381 H.spc      1 <1>        0.000
     13 H          -1.6865   -3.7758    0.9320 H.spc      1 <1>        0.000
     14 H          -1.6865   -3.7758   -0.9320 H.spc      1 <1>        0.000
     15 H           0.1349   -4.8426   -0.9340 H.spc      1 <1>        0.000
     16 H           0.1349   -4.8426    0.9340 H.spc      1 <1>        0.000
@<TRIPOS>BOND
     1    6    7 1  
     2    1    2 am 
     3    1    3 1  
     4    2    4 1  
     5    2    5 2  
     6    3    6 1  
     7    4    7 1  
     8    1    8 1  
     9    3    9 1  
    10    3   10 1  
    11    4   11 1  
    12    4   12 1  
    13    6   13 1  
    14    6   14 1  
    15    7   15 1  
    16    7   16 1  
# Name:          frag5-552-173/138278 -- energy: -0.997586
# Creation time: Sat Jun  5 12:53:43 2010


@<TRIPOS>MOLECULE
frag5-552-173/138278 -- energy: -0.997586
   16    16     1     1     1
SMALL
USER_CHARGES


@<TRIPOS>ATOM
      1 N1          0.1576   -1.3225    0.0000 N.am       1 <1>        0.000
      2 C6          1.3469   -1.9722   -0.0000 C.2        1 <1>        0.000
      3 C7         -1.1128   -1.9816    0.0000 C.3        1 <1>        0.000
      4 C11         1.4234   -3.4819    0.0000 C.3        1 <1>        0.000
      5 O3          2.4078   -1.3508   -0.0000 O.2        1 <1>        0.000
      6 C12        -1.1892   -3.5073    0.0000 C.3        1 <1>        0.000
      7 C15         0.1287   -4.2806   -0.0000 C.3        1 <1>        0.000
      8 H           0.1685   -0.3026    0.0000 H.spc      1 <1>        0.000
      9 H          -1.5693   -1.6883   -0.9453 H.spc      1 <1>        0.000
     10 H          -1.5693   -1.6883    0.9453 H.spc      1 <1>        0.000
     11 H           1.9148   -3.7401    0.9381 H.spc      1 <1>        0.000
     12 H           1.9148   -3.7401   -0.9381 H.spc      1 <1>        0.000
     13 H          -1.6865   -3.7758    0.9320 H.spc      1 <1>        0.000
     14 H          -1.6865   -3.7758   -0.9320 H.spc      1 <1>        0.000
     15 H           0.1349   -4.8426   -0.9340 H.spc      1 <1>        0.000
     16 H           0.1349   -4.8426    0.9340 H.spc      1 <1>        0.000
@<TRIPOS>BOND
     1    6    7 1  
     2    1    2 am 
     3    1    3 1  
     4    2    4 1  
     5    2    5 2  
     6    3    6 1  
     7    4    7 1  
     8    1    8 1  
     9    3    9 1  
    10    3   10 1  
    11    4   11 1  
    12    4   12 1  
    13    6   13 1  
    14    6   14 1  
    15    7   15 1  
    16    7   16 1  
