#      Rotatable Fragment
#      Build by yxyuan
#
# Name:          frag4-331-188/48856
# Creation time: Sat Jun  5 12:52:50 2010


@<TRIPOS>MOLECULE
frag4-331-188/48856
   14    15     1     1     1
SMALL
USER_CHARGES


@<TRIPOS>ATOM
      1 N1          1.8779   -0.7814    0.0123 N.ar       1 <1>        0.000
      2 C1          2.5259    0.4824    0.1210 C.ar       1 <1>        0.000
      3 N2          1.6333    1.4146    0.0253 N.ar       1 <1>        0.000
      4 C2          0.3503    0.8831   -0.0330 C.ar       1 <1>        0.000
      5 C3          0.4805   -0.5181   -0.0330 C.ar       1 <1>        0.000
      6 C4         -0.6163   -1.3440   -0.0395 C.ar       1 <1>        0.000
      7 C5         -1.8912   -0.7789   -0.0411 C.ar       1 <1>        0.000
      8 C6         -2.0382    0.6149   -0.0388 C.ar       1 <1>        0.000
      9 C7         -0.9131    1.4444   -0.0378 C.ar       1 <1>        0.000
     10 H           3.5955    0.6384    0.2614 H.spc      1 <1>        0.000
     11 H          -0.4922   -2.4269   -0.0434 H.spc      1 <1>        0.000
     12 H          -2.7724   -1.4205   -0.0441 H.spc      1 <1>        0.000
     13 H          -3.0356    1.0546   -0.0378 H.spc      1 <1>        0.000
     14 H          -1.0312    2.5280   -0.0408 H.spc      1 <1>        0.000
@<TRIPOS>BOND
     1    8    9 ar 
     2    1    2 ar 
     3    1    5 ar 
     4    2    3 ar 
     5    3    4 ar 
     6    4    5 ar 
     7    4    9 ar 
     8    5    6 ar 
     9    6    7 ar 
    10    7    8 ar 
    11    2   10 1  
    12    6   11 1  
    13    7   12 1  
    14    8   13 1  
    15    9   14 1  
# Name:          frag4-331-188/48856 -- energy: -0.206301
# Creation time: Sat Jun  5 12:52:50 2010


@<TRIPOS>MOLECULE
frag4-331-188/48856 -- energy: -0.206301
   14    15     1     1     1
SMALL
USER_CHARGES


@<TRIPOS>ATOM
      1 N1          1.8779   -0.7814    0.0123 N.ar       1 <1>        0.000
      2 C1          2.5259    0.4824    0.1210 C.ar       1 <1>        0.000
      3 N2          1.6333    1.4146    0.0253 N.ar       1 <1>        0.000
      4 C2          0.3503    0.8831   -0.0330 C.ar       1 <1>        0.000
      5 C3          0.4805   -0.5181   -0.0330 C.ar       1 <1>        0.000
      6 C4         -0.6163   -1.3440   -0.0395 C.ar       1 <1>        0.000
      7 C5         -1.8912   -0.7789   -0.0411 C.ar       1 <1>        0.000
      8 C6         -2.0382    0.6149   -0.0388 C.ar       1 <1>        0.000
      9 C7         -0.9131    1.4444   -0.0378 C.ar       1 <1>        0.000
     10 H           3.5955    0.6384    0.2614 H.spc      1 <1>        0.000
     11 H          -0.4922   -2.4269   -0.0434 H.spc      1 <1>        0.000
     12 H          -2.7724   -1.4205   -0.0441 H.spc      1 <1>        0.000
     13 H          -3.0356    1.0546   -0.0378 H.spc      1 <1>        0.000
     14 H          -1.0312    2.5280   -0.0408 H.spc      1 <1>        0.000
@<TRIPOS>BOND
     1    8    9 ar 
     2    1    2 ar 
     3    1    5 ar 
     4    2    3 ar 
     5    3    4 ar 
     6    4    5 ar 
     7    4    9 ar 
     8    5    6 ar 
     9    6    7 ar 
    10    7    8 ar 
    11    2   10 1  
    12    6   11 1  
    13    7   12 1  
    14    8   13 1  
    15    9   14 1  
