#      Rotatable Fragment
#      Build by yxyuan
#
# Name:          frag5-683-60/138278
# Creation time: Sat Jun  5 12:51:56 2010


@<TRIPOS>MOLECULE
frag5-683-60/138278
   40    43     1     1     1
SMALL
USER_CHARGES


@<TRIPOS>ATOM
      1 C1         -0.2079   -0.4805    0.4344 C.2        1 <1>        0.000
      2 C2          1.1033   -1.2558    0.5162 C.3        1 <1>        0.000
      3 C3         -0.1151    1.0252    0.6416 C.3        1 <1>        0.000
      4 C4         -1.3812   -1.1246    0.2151 C.2        1 <1>        0.000
      5 C5          2.2681   -0.4914   -0.1482 C.3        1 <1>        0.000
      6 C6          1.0114   -2.6670   -0.0943 C.3        1 <1>        0.000
      7 C7          1.1198    1.7149    0.0275 C.3        1 <1>        0.000
      8 C9         -1.4305   -2.5976    0.0900 C.2        1 <1>        0.000
      9 C10        -2.6702   -0.3399    0.0669 C.3        1 <1>        0.000
     10 C11         2.3865    0.9374    0.3933 C.3        1 <1>        0.000
     11 C12         3.6870   -1.0456    0.0737 C.3        1 <1>        0.000
     12 C13        -0.2091   -3.4074    0.4411 C.3        1 <1>        0.000
     13 C16        -2.5449   -3.2300   -0.3120 C.2        1 <1>        0.000
     14 C17        -3.9757   -1.1523    0.0553 C.3        1 <1>        0.000
     15 C18         3.7147    1.4137   -0.2085 C.3        1 <1>        0.000
     16 C20         4.6038    0.1524   -0.2629 C.3        1 <1>        0.000
     17 C23        -3.7770   -2.4842   -0.6001 C.2        1 <1>        0.000
     18 O2         -4.6330   -2.9603   -1.3339 O.2        1 <1>        0.000
     19 H           1.3026   -1.3615    1.5826 H.spc      1 <1>        0.000
     20 H          -0.0514    1.1835    1.7182 H.spc      1 <1>        0.000
     21 H          -0.9853    1.4572    0.1474 H.spc      1 <1>        0.000
     22 H           1.9914   -0.5787   -1.1989 H.spc      1 <1>        0.000
     23 H           1.9081   -3.2259    0.1736 H.spc      1 <1>        0.000
     24 H           0.9223   -2.5774   -1.1770 H.spc      1 <1>        0.000
     25 H           1.0147    1.7411   -1.0571 H.spc      1 <1>        0.000
     26 H           1.1958    2.7299    0.4175 H.spc      1 <1>        0.000
     27 H          -2.6131    0.1506   -0.9048 H.spc      1 <1>        0.000
     28 H          -2.7285    0.3096    0.9403 H.spc      1 <1>        0.000
     29 H           2.4293    1.0625    1.4752 H.spc      1 <1>        0.000
     30 H           3.8955   -1.9167   -0.5475 H.spc      1 <1>        0.000
     31 H           3.8367   -1.4118    1.0894 H.spc      1 <1>        0.000
     32 H          -0.1337   -3.5290    1.5217 H.spc      1 <1>        0.000
     33 H          -0.2736   -4.4009   -0.0027 H.spc      1 <1>        0.000
     34 H          -2.5349   -4.3139   -0.4263 H.spc      1 <1>        0.000
     35 H          -4.2943   -1.3146    1.0850 H.spc      1 <1>        0.000
     36 H          -4.7271   -0.5965   -0.5056 H.spc      1 <1>        0.000
     37 H           3.5761    1.8532   -1.1963 H.spc      1 <1>        0.000
     38 H           4.1694    2.2030    0.3901 H.spc      1 <1>        0.000
     39 H           5.4278    0.2248    0.4470 H.spc      1 <1>        0.000
     40 H           5.0540    0.0345   -1.2486 H.spc      1 <1>        0.000
@<TRIPOS>BOND
     1    5   11 1  
     2    1    2 1  
     3    4    8 1  
     4    5   10 1  
     5    4    9 1  
     6    1    3 1  
     7    1    4 2  
     8    2    6 1  
     9    6   12 1  
    10    2    5 1  
    11    7   10 1  
    12    3    7 1  
    13   17   18 2  
    14   15   16 1  
    15   14   17 1  
    16   13   17 1  
    17   11   16 1  
    18   10   15 1  
    19    8   12 1  
    20    9   14 1  
    21    8   13 2  
    22    2   19 1  
    23    3   20 1  
    24    3   21 1  
    25    5   22 1  
    26    6   23 1  
    27    6   24 1  
    28    7   25 1  
    29    7   26 1  
    30    9   27 1  
    31    9   28 1  
    32   10   29 1  
    33   11   30 1  
    34   11   31 1  
    35   12   32 1  
    36   12   33 1  
    37   13   34 1  
    38   14   35 1  
    39   14   36 1  
    40   15   37 1  
    41   15   38 1  
    42   16   39 1  
    43   16   40 1  
# Name:          frag5-683-60/138278 -- energy: -6.479561
# Creation time: Sat Jun  5 12:51:56 2010


@<TRIPOS>MOLECULE
frag5-683-60/138278 -- energy: -6.479561
   40    43     1     1     1
SMALL
USER_CHARGES


@<TRIPOS>ATOM
      1 C1         -0.2079   -0.4805    0.4344 C.2        1 <1>        0.000
      2 C2          1.1033   -1.2558    0.5162 C.3        1 <1>        0.000
      3 C3         -0.1151    1.0252    0.6416 C.3        1 <1>        0.000
      4 C4         -1.3812   -1.1246    0.2151 C.2        1 <1>        0.000
      5 C5          2.2681   -0.4914   -0.1482 C.3        1 <1>        0.000
      6 C6          1.0114   -2.6670   -0.0943 C.3        1 <1>        0.000
      7 C7          1.1198    1.7149    0.0275 C.3        1 <1>        0.000
      8 C9         -1.4305   -2.5976    0.0900 C.2        1 <1>        0.000
      9 C10        -2.6702   -0.3399    0.0669 C.3        1 <1>        0.000
     10 C11         2.3865    0.9374    0.3933 C.3        1 <1>        0.000
     11 C12         3.6870   -1.0456    0.0737 C.3        1 <1>        0.000
     12 C13        -0.2091   -3.4074    0.4411 C.3        1 <1>        0.000
     13 C16        -2.5449   -3.2300   -0.3120 C.2        1 <1>        0.000
     14 C17        -3.9757   -1.1523    0.0553 C.3        1 <1>        0.000
     15 C18         3.7147    1.4137   -0.2085 C.3        1 <1>        0.000
     16 C20         4.6038    0.1524   -0.2629 C.3        1 <1>        0.000
     17 C23        -3.7770   -2.4842   -0.6001 C.2        1 <1>        0.000
     18 O2         -4.6330   -2.9603   -1.3339 O.2        1 <1>        0.000
     19 H           1.3026   -1.3615    1.5826 H.spc      1 <1>        0.000
     20 H          -0.0514    1.1835    1.7182 H.spc      1 <1>        0.000
     21 H          -0.9853    1.4572    0.1474 H.spc      1 <1>        0.000
     22 H           1.9914   -0.5787   -1.1989 H.spc      1 <1>        0.000
     23 H           1.9081   -3.2259    0.1736 H.spc      1 <1>        0.000
     24 H           0.9223   -2.5774   -1.1770 H.spc      1 <1>        0.000
     25 H           1.0147    1.7411   -1.0571 H.spc      1 <1>        0.000
     26 H           1.1958    2.7299    0.4175 H.spc      1 <1>        0.000
     27 H          -2.6131    0.1506   -0.9048 H.spc      1 <1>        0.000
     28 H          -2.7285    0.3096    0.9403 H.spc      1 <1>        0.000
     29 H           2.4293    1.0625    1.4752 H.spc      1 <1>        0.000
     30 H           3.8955   -1.9167   -0.5475 H.spc      1 <1>        0.000
     31 H           3.8367   -1.4118    1.0894 H.spc      1 <1>        0.000
     32 H          -0.1337   -3.5290    1.5217 H.spc      1 <1>        0.000
     33 H          -0.2736   -4.4009   -0.0027 H.spc      1 <1>        0.000
     34 H          -2.5349   -4.3139   -0.4263 H.spc      1 <1>        0.000
     35 H          -4.2943   -1.3146    1.0850 H.spc      1 <1>        0.000
     36 H          -4.7271   -0.5965   -0.5056 H.spc      1 <1>        0.000
     37 H           3.5761    1.8532   -1.1963 H.spc      1 <1>        0.000
     38 H           4.1694    2.2030    0.3901 H.spc      1 <1>        0.000
     39 H           5.4278    0.2248    0.4470 H.spc      1 <1>        0.000
     40 H           5.0540    0.0345   -1.2486 H.spc      1 <1>        0.000
@<TRIPOS>BOND
     1    5   11 1  
     2    1    2 1  
     3    4    8 1  
     4    5   10 1  
     5    4    9 1  
     6    1    3 1  
     7    1    4 2  
     8    2    6 1  
     9    6   12 1  
    10    2    5 1  
    11    7   10 1  
    12    3    7 1  
    13   17   18 2  
    14   15   16 1  
    15   14   17 1  
    16   13   17 1  
    17   11   16 1  
    18   10   15 1  
    19    8   12 1  
    20    9   14 1  
    21    8   13 2  
    22    2   19 1  
    23    3   20 1  
    24    3   21 1  
    25    5   22 1  
    26    6   23 1  
    27    6   24 1  
    28    7   25 1  
    29    7   26 1  
    30    9   27 1  
    31    9   28 1  
    32   10   29 1  
    33   11   30 1  
    34   11   31 1  
    35   12   32 1  
    36   12   33 1  
    37   13   34 1  
    38   14   35 1  
    39   14   36 1  
    40   15   37 1  
    41   15   38 1  
    42   16   39 1  
    43   16   40 1  
