#      Rotatable Fragment
#      Build by yxyuan
#
# Name:          frag5-639-28/41815
# Creation time: Sat Jun  5 12:53:00 2010


@<TRIPOS>MOLECULE
frag5-639-28/41815
   14    14     1     1     1
SMALL
USER_CHARGES


@<TRIPOS>ATOM
      1 O1          2.8282    0.4433   -0.1168 O.3        1 <1>        0.000
      2 C2          1.4735    0.2103   -0.0709 C.2        1 <1>        0.000
      3 C3          0.9583   -0.9993    0.1261 C.2        1 <1>        0.000
      4 C4         -0.4681   -1.2996    0.2410 C.2        1 <1>        0.000
      5 C5         -1.4751   -0.2068    0.0717 C.2        1 <1>        0.000
      6 C6         -0.9593    1.0079   -0.0966 C.2        1 <1>        0.000
      7 C7          0.4685    1.3106   -0.2033 C.2        1 <1>        0.000
      8 O2          0.8502    2.4545   -0.4112 O.2        1 <1>        0.000
      9 O7         -2.8273   -0.4340    0.1824 O.3        1 <1>        0.000
     10 O8         -0.8511   -2.4357    0.4856 O.2        1 <1>        0.000
     11 H           2.9860    1.3782   -0.2675 H.spc      1 <1>        0.000
     12 H           1.6547   -1.8337    0.2085 H.spc      1 <1>        0.000
     13 H          -1.6555    1.8442   -0.1601 H.spc      1 <1>        0.000
     14 H          -2.9843   -1.3741    0.2974 H.spc      1 <1>        0.000
@<TRIPOS>BOND
     1    1    2 1  
     2    2    3 2  
     3    2    7 1  
     4    3    4 1  
     5    4    5 1  
     6    4   10 2  
     7    5    6 2  
     8    5    9 1  
     9    6    7 1  
    10    7    8 2  
    11    1   11 1  
    12    3   12 1  
    13    6   13 1  
    14    9   14 1  
# Name:          frag5-639-28/41815 -- energy: -0.492961
# Creation time: Sat Jun  5 12:53:00 2010


@<TRIPOS>MOLECULE
frag5-639-28/41815 -- energy: -0.492961
   14    14     1     1     1
SMALL
USER_CHARGES


@<TRIPOS>ATOM
      1 O1          2.8282    0.4433   -0.1168 O.3        1 <1>        0.000
      2 C2          1.4735    0.2103   -0.0709 C.2        1 <1>        0.000
      3 C3          0.9583   -0.9993    0.1261 C.2        1 <1>        0.000
      4 C4         -0.4681   -1.2996    0.2410 C.2        1 <1>        0.000
      5 C5         -1.4751   -0.2068    0.0717 C.2        1 <1>        0.000
      6 C6         -0.9593    1.0079   -0.0966 C.2        1 <1>        0.000
      7 C7          0.4685    1.3106   -0.2033 C.2        1 <1>        0.000
      8 O2          0.8502    2.4545   -0.4112 O.2        1 <1>        0.000
      9 O7         -2.8273   -0.4340    0.1824 O.3        1 <1>        0.000
     10 O8         -0.8511   -2.4357    0.4856 O.2        1 <1>        0.000
     11 H           2.9860    1.3782   -0.2675 H.spc      1 <1>        0.000
     12 H           1.6547   -1.8337    0.2085 H.spc      1 <1>        0.000
     13 H          -1.6555    1.8442   -0.1601 H.spc      1 <1>        0.000
     14 H          -2.9843   -1.3741    0.2974 H.spc      1 <1>        0.000
@<TRIPOS>BOND
     1    1    2 1  
     2    2    3 2  
     3    2    7 1  
     4    3    4 1  
     5    4    5 1  
     6    4   10 2  
     7    5    6 2  
     8    5    9 1  
     9    6    7 1  
    10    7    8 2  
    11    1   11 1  
    12    3   12 1  
    13    6   13 1  
    14    9   14 1  
