#      Rotatable Fragment
#      Build by yxyuan
#
# Name:          frag5-602-100/138278
# Creation time: Sat Jun  5 12:53:46 2010


@<TRIPOS>MOLECULE
frag5-602-100/138278
   17    17     1     1     1
SMALL
USER_CHARGES


@<TRIPOS>ATOM
      1 C18         0.8314   -0.5485    1.1752 C.2        1 <1>        0.000
      2 N1          0.8995    0.6139    0.4846 N.am       1 <1>        0.000
      3 O3         -0.1534   -1.2597    1.2662 O.2        1 <1>        0.000
      4 C23         2.0858    1.3606    0.3430 C.ar       1 <1>        0.000
      5 C24         3.3414    0.7692    0.5528 C.ar       1 <1>        0.000
      6 C25         2.0301    2.7171    0.0038 C.ar       1 <1>        0.000
      7 C26         4.5055    1.4950    0.3253 C.ar       1 <1>        0.000
      8 C27         3.1979    3.4533   -0.1839 C.ar       1 <1>        0.000
      9 C28         4.4564    2.8448   -0.0546 C.ar       1 <1>        0.000
     10 O4          5.6212    3.5397   -0.2833 O.3        1 <1>        0.000
     11 H           1.7331   -0.8753    1.6931 H.spc      1 <1>        0.000
     12 H           0.0495    0.9667    0.0448 H.spc      1 <1>        0.000
     13 H           3.4042   -0.2636    0.8956 H.spc      1 <1>        0.000
     14 H           1.0618    3.2034   -0.1149 H.spc      1 <1>        0.000
     15 H           5.4728    1.0069    0.4442 H.spc      1 <1>        0.000
     16 H           3.1338    4.5124   -0.4336 H.spc      1 <1>        0.000
     17 H           5.4102    4.4425   -0.5324 H.spc      1 <1>        0.000
@<TRIPOS>BOND
     1    7    9 ar 
     2    8    9 ar 
     3    9   10 1  
     4    1    2 am 
     5    1    3 2  
     6    2    4 1  
     7    4    5 ar 
     8    4    6 ar 
     9    5    7 ar 
    10    6    8 ar 
    11    1   11 1  
    12    2   12 1  
    13    5   13 1  
    14    6   14 1  
    15    7   15 1  
    16    8   16 1  
    17   10   17 1  
# Name:          frag5-602-100/138278
# Creation time: Sat Jun  5 12:53:46 2010


@<TRIPOS>MOLECULE
frag5-602-100/138278
   17    17     1     1     1
SMALL
USER_CHARGES


@<TRIPOS>ATOM
      1 C18         0.4406   -0.3855    0.9630 C.2        1 <1>        0.000
      2 N1          0.6905    0.9400    1.0811 N.am       1 <1>        0.000
      3 O3          1.1963   -1.1866    0.4287 O.2        1 <1>        0.000
      4 C23         1.9283    1.5162    0.7070 C.ar       1 <1>        0.000
      5 C24         3.1431    0.8818    1.0063 C.ar       1 <1>        0.000
      6 C25         1.9562    2.7434    0.0350 C.ar       1 <1>        0.000
      7 C26         4.3449    1.4180    0.5534 C.ar       1 <1>        0.000
      8 C27         3.1643    3.2980   -0.3852 C.ar       1 <1>        0.000
      9 C28         4.3749    2.6269   -0.1562 C.ar       1 <1>        0.000
     10 O4          5.5764    3.1332   -0.6038 O.3        1 <1>        0.000
     11 H          -0.4963   -0.7646    1.3711 H.spc      1 <1>        0.000
     12 H          -0.0405    1.5461    1.4536 H.spc      1 <1>        0.000
     13 H           3.1458   -0.0349    1.5960 H.spc      1 <1>        0.000
     14 H           1.0232    3.2714   -0.1620 H.spc      1 <1>        0.000
     15 H           5.2772    0.8900    0.7534 H.spc      1 <1>        0.000
     16 H           3.1683    4.2610   -0.8959 H.spc      1 <1>        0.000
     17 H           5.4215    3.9598   -1.0668 H.spc      1 <1>        0.000
@<TRIPOS>BOND
     1    7    9 ar 
     2    8    9 ar 
     3    9   10 1  
     4    1    2 am 
     5    1    3 2  
     6    2    4 1  
     7    4    5 ar 
     8    4    6 ar 
     9    5    7 ar 
    10    6    8 ar 
    11    1   11 1  
    12    2   12 1  
    13    5   13 1  
    14    6   14 1  
    15    7   15 1  
    16    8   16 1  
    17   10   17 1  
# Name:          frag5-602-100/138278
# Creation time: Sat Jun  5 12:53:46 2010


@<TRIPOS>MOLECULE
frag5-602-100/138278
   17    17     1     1     1
SMALL
USER_CHARGES


@<TRIPOS>ATOM
      1 C18         0.4398   -0.3668    0.9922 C.2        1 <1>        0.000
      2 N1          0.6780    0.6423    0.1209 N.am       1 <1>        0.000
      3 O3          1.2410   -0.7610    1.8297 O.2        1 <1>        0.000
      4 C23         1.9107    1.3361    0.0807 C.ar       1 <1>        0.000
      5 C24         1.9605    2.7238   -0.0994 C.ar       1 <1>        0.000
      6 C25         3.1145    0.6293    0.2130 C.ar       1 <1>        0.000
      7 C26         3.1790    3.3958   -0.0455 C.ar       1 <1>        0.000
      8 C27         4.3353    1.2991    0.2262 C.ar       1 <1>        0.000
      9 C28         4.3826    2.6993    0.1263 C.ar       1 <1>        0.000
     10 O4          5.5743    3.3875    0.1852 O.3        1 <1>        0.000
     11 H          -0.5305   -0.8612    0.9446 H.spc      1 <1>        0.000
     12 H          -0.0587    0.9123   -0.5308 H.spc      1 <1>        0.000
     13 H           1.0415    3.2805   -0.2826 H.spc      1 <1>        0.000
     14 H           3.0945   -0.4565    0.3066 H.spc      1 <1>        0.000
     15 H           3.1967    4.4817   -0.1385 H.spc      1 <1>        0.000
     16 H           5.2619    0.7320    0.3148 H.spc      1 <1>        0.000
     17 H           6.2960    2.7658    0.3047 H.spc      1 <1>        0.000
@<TRIPOS>BOND
     1    7    9 ar 
     2    8    9 ar 
     3    9   10 1  
     4    1    2 am 
     5    1    3 2  
     6    2    4 1  
     7    4    5 ar 
     8    4    6 ar 
     9    5    7 ar 
    10    6    8 ar 
    11    1   11 1  
    12    2   12 1  
    13    5   13 1  
    14    6   14 1  
    15    7   15 1  
    16    8   16 1  
    17   10   17 1  
# Name:          frag5-602-100/138278 -- energy: -0.341968
# Creation time: Sat Jun  5 12:53:46 2010


@<TRIPOS>MOLECULE
frag5-602-100/138278 -- energy: -0.341968
   17    17     1     1     1
SMALL
USER_CHARGES


@<TRIPOS>ATOM
      1 C18         0.8314   -0.5485    1.1752 C.2        1 <1>        0.000
      2 N1          0.8995    0.6139    0.4846 N.am       1 <1>        0.000
      3 O3         -0.1534   -1.2597    1.2662 O.2        1 <1>        0.000
      4 C23         2.0858    1.3606    0.3430 C.ar       1 <1>        0.000
      5 C24         3.3414    0.7692    0.5528 C.ar       1 <1>        0.000
      6 C25         2.0301    2.7171    0.0038 C.ar       1 <1>        0.000
      7 C26         4.5055    1.4950    0.3253 C.ar       1 <1>        0.000
      8 C27         3.1979    3.4533   -0.1839 C.ar       1 <1>        0.000
      9 C28         4.4564    2.8448   -0.0546 C.ar       1 <1>        0.000
     10 O4          5.6212    3.5397   -0.2833 O.3        1 <1>        0.000
     11 H           1.7331   -0.8753    1.6931 H.spc      1 <1>        0.000
     12 H           0.0495    0.9667    0.0448 H.spc      1 <1>        0.000
     13 H           3.4042   -0.2636    0.8956 H.spc      1 <1>        0.000
     14 H           1.0618    3.2034   -0.1149 H.spc      1 <1>        0.000
     15 H           5.4728    1.0069    0.4442 H.spc      1 <1>        0.000
     16 H           3.1338    4.5124   -0.4336 H.spc      1 <1>        0.000
     17 H           5.4102    4.4425   -0.5324 H.spc      1 <1>        0.000
@<TRIPOS>BOND
     1    7    9 ar 
     2    8    9 ar 
     3    9   10 1  
     4    1    2 am 
     5    1    3 2  
     6    2    4 1  
     7    4    5 ar 
     8    4    6 ar 
     9    5    7 ar 
    10    6    8 ar 
    11    1   11 1  
    12    2   12 1  
    13    5   13 1  
    14    6   14 1  
    15    7   15 1  
    16    8   16 1  
    17   10   17 1  
# Name:          frag5-602-100/138278 -- energy: -0.732757
# Creation time: Sat Jun  5 12:53:46 2010


@<TRIPOS>MOLECULE
frag5-602-100/138278 -- energy: -0.732757
   17    17     1     1     1
SMALL
USER_CHARGES


@<TRIPOS>ATOM
      1 C18         0.4406   -0.3855    0.9630 C.2        1 <1>        0.000
      2 N1          0.6905    0.9400    1.0811 N.am       1 <1>        0.000
      3 O3          1.1963   -1.1866    0.4287 O.2        1 <1>        0.000
      4 C23         1.9283    1.5162    0.7070 C.ar       1 <1>        0.000
      5 C24         3.1431    0.8818    1.0063 C.ar       1 <1>        0.000
      6 C25         1.9562    2.7434    0.0350 C.ar       1 <1>        0.000
      7 C26         4.3449    1.4180    0.5534 C.ar       1 <1>        0.000
      8 C27         3.1643    3.2980   -0.3852 C.ar       1 <1>        0.000
      9 C28         4.3749    2.6269   -0.1562 C.ar       1 <1>        0.000
     10 O4          5.5764    3.1332   -0.6038 O.3        1 <1>        0.000
     11 H          -0.4963   -0.7646    1.3711 H.spc      1 <1>        0.000
     12 H          -0.0405    1.5461    1.4536 H.spc      1 <1>        0.000
     13 H           3.1458   -0.0349    1.5960 H.spc      1 <1>        0.000
     14 H           1.0232    3.2714   -0.1620 H.spc      1 <1>        0.000
     15 H           5.2772    0.8900    0.7534 H.spc      1 <1>        0.000
     16 H           3.1683    4.2610   -0.8959 H.spc      1 <1>        0.000
     17 H           5.4215    3.9598   -1.0668 H.spc      1 <1>        0.000
@<TRIPOS>BOND
     1    7    9 ar 
     2    8    9 ar 
     3    9   10 1  
     4    1    2 am 
     5    1    3 2  
     6    2    4 1  
     7    4    5 ar 
     8    4    6 ar 
     9    5    7 ar 
    10    6    8 ar 
    11    1   11 1  
    12    2   12 1  
    13    5   13 1  
    14    6   14 1  
    15    7   15 1  
    16    8   16 1  
    17   10   17 1  
# Name:          frag5-602-100/138278 -- energy: -0.597383
# Creation time: Sat Jun  5 12:53:46 2010


@<TRIPOS>MOLECULE
frag5-602-100/138278 -- energy: -0.597383
   17    17     1     1     1
SMALL
USER_CHARGES


@<TRIPOS>ATOM
      1 C18         0.4398   -0.3668    0.9922 C.2        1 <1>        0.000
      2 N1          0.6780    0.6423    0.1209 N.am       1 <1>        0.000
      3 O3          1.2410   -0.7610    1.8297 O.2        1 <1>        0.000
      4 C23         1.9107    1.3361    0.0807 C.ar       1 <1>        0.000
      5 C24         1.9605    2.7238   -0.0994 C.ar       1 <1>        0.000
      6 C25         3.1145    0.6293    0.2130 C.ar       1 <1>        0.000
      7 C26         3.1790    3.3958   -0.0455 C.ar       1 <1>        0.000
      8 C27         4.3353    1.2991    0.2262 C.ar       1 <1>        0.000
      9 C28         4.3826    2.6993    0.1263 C.ar       1 <1>        0.000
     10 O4          5.5743    3.3875    0.1852 O.3        1 <1>        0.000
     11 H          -0.5305   -0.8612    0.9446 H.spc      1 <1>        0.000
     12 H          -0.0587    0.9123   -0.5308 H.spc      1 <1>        0.000
     13 H           1.0415    3.2805   -0.2826 H.spc      1 <1>        0.000
     14 H           3.0945   -0.4565    0.3066 H.spc      1 <1>        0.000
     15 H           3.1967    4.4817   -0.1385 H.spc      1 <1>        0.000
     16 H           5.2619    0.7320    0.3148 H.spc      1 <1>        0.000
     17 H           6.2960    2.7658    0.3047 H.spc      1 <1>        0.000
@<TRIPOS>BOND
     1    7    9 ar 
     2    8    9 ar 
     3    9   10 1  
     4    1    2 am 
     5    1    3 2  
     6    2    4 1  
     7    4    5 ar 
     8    4    6 ar 
     9    5    7 ar 
    10    6    8 ar 
    11    1   11 1  
    12    2   12 1  
    13    5   13 1  
    14    6   14 1  
    15    7   15 1  
    16    8   16 1  
    17   10   17 1  
