#      Rotatable Fragment
#      Build by yxyuan
#
# Name:          frag5-595-113/138278
# Creation time: Sat Jun  5 12:53:46 2010


@<TRIPOS>MOLECULE
frag5-595-113/138278
   12    12     1     1     1
SMALL
USER_CHARGES


@<TRIPOS>ATOM
      1 C12        -0.6979    0.7525   -0.0136 C.ar       1 <1>        0.000
      2 C13         0.4913    1.4872   -0.0065 C.ar       1 <1>        0.000
      3 N6         -1.8871    1.3874    0.0094 N.ar       1 <1>        0.000
      4 C14         0.4319    2.8819    0.0016 C.ar       1 <1>        0.000
      5 C15        -1.9695    2.7311    0.0123 C.ar       1 <1>        0.000
      6 C16        -0.8148    3.5222   -0.0116 C.ar       1 <1>        0.000
      7 O5         -0.9262    4.9087   -0.0447 O.3        1 <1>        0.000
      8 H          -0.6637   -0.3367   -0.0378 H.spc      1 <1>        0.000
      9 H           1.4544    0.9767   -0.0073 H.spc      1 <1>        0.000
     10 H           1.3498    3.4695    0.0181 H.spc      1 <1>        0.000
     11 H          -2.9486    3.2096    0.0335 H.spc      1 <1>        0.000
     12 H          -1.8543    5.1540   -0.0490 H.spc      1 <1>        0.000
@<TRIPOS>BOND
     1    1    2 ar 
     2    1    3 ar 
     3    2    4 ar 
     4    3    5 ar 
     5    4    6 ar 
     6    5    6 ar 
     7    6    7 1  
     8    1    8 1  
     9    2    9 1  
    10    4   10 1  
    11    5   11 1  
    12    7   12 1  
# Name:          frag5-595-113/138278 -- energy: 0.134416
# Creation time: Sat Jun  5 12:53:46 2010


@<TRIPOS>MOLECULE
frag5-595-113/138278 -- energy: 0.134416
   12    12     1     1     1
SMALL
USER_CHARGES


@<TRIPOS>ATOM
      1 C12        -0.6979    0.7525   -0.0136 C.ar       1 <1>        0.000
      2 C13         0.4913    1.4872   -0.0065 C.ar       1 <1>        0.000
      3 N6         -1.8871    1.3874    0.0094 N.ar       1 <1>        0.000
      4 C14         0.4319    2.8819    0.0016 C.ar       1 <1>        0.000
      5 C15        -1.9695    2.7311    0.0123 C.ar       1 <1>        0.000
      6 C16        -0.8148    3.5222   -0.0116 C.ar       1 <1>        0.000
      7 O5         -0.9262    4.9087   -0.0447 O.3        1 <1>        0.000
      8 H          -0.6637   -0.3367   -0.0378 H.spc      1 <1>        0.000
      9 H           1.4544    0.9767   -0.0073 H.spc      1 <1>        0.000
     10 H           1.3498    3.4695    0.0181 H.spc      1 <1>        0.000
     11 H          -2.9486    3.2096    0.0335 H.spc      1 <1>        0.000
     12 H          -1.8543    5.1540   -0.0490 H.spc      1 <1>        0.000
@<TRIPOS>BOND
     1    1    2 ar 
     2    1    3 ar 
     3    2    4 ar 
     4    3    5 ar 
     5    4    6 ar 
     6    5    6 ar 
     7    6    7 1  
     8    1    8 1  
     9    2    9 1  
    10    4   10 1  
    11    5   11 1  
    12    7   12 1  
