#      Rotatable Fragment
#      Build by yxyuan
#
# Name:          frag5-582-40/41815
# Creation time: Sat Jun  5 12:52:56 2010


@<TRIPOS>MOLECULE
frag5-582-40/41815
   11    11     1     1     1
SMALL
USER_CHARGES


@<TRIPOS>ATOM
      1 N1          2.2254   -0.1498   -0.8686 N.am       1 <1>        0.000
      2 C1          1.4295   -0.9795   -1.7525 C.3        1 <1>        0.000
      3 C2          0.0809   -0.3578   -1.4877 C.2        1 <1>        0.000
      4 N2          0.2020    0.6411   -0.5963 N.am       1 <1>        0.000
      5 C3          1.4874    0.7687   -0.2224 C.2        1 <1>        0.000
      6 O1          1.9156    1.5830    0.5721 O.2        1 <1>        0.000
      7 O8         -0.9485   -0.7319   -2.0221 O.2        1 <1>        0.000
      8 H           3.2334   -0.2520   -0.7505 H.spc      1 <1>        0.000
      9 H           1.4918   -2.0513   -1.5644 H.spc      1 <1>        0.000
     10 H           1.7435   -0.9805   -2.7963 H.spc      1 <1>        0.000
     11 H          -0.5672    1.2170   -0.2542 H.spc      1 <1>        0.000
@<TRIPOS>BOND
     1    1    2 1  
     2    1    5 am 
     3    2    3 1  
     4    3    7 2  
     5    3    4 am 
     6    4    5 am 
     7    5    6 2  
     8    1    8 1  
     9    2    9 1  
    10    2   10 1  
    11    4   11 1  
# Name:          frag5-582-40/41815 -- energy: -0.645754
# Creation time: Sat Jun  5 12:52:56 2010


@<TRIPOS>MOLECULE
frag5-582-40/41815 -- energy: -0.645754
   11    11     1     1     1
SMALL
USER_CHARGES


@<TRIPOS>ATOM
      1 N1          2.2254   -0.1498   -0.8686 N.am       1 <1>        0.000
      2 C1          1.4295   -0.9795   -1.7525 C.3        1 <1>        0.000
      3 C2          0.0809   -0.3578   -1.4877 C.2        1 <1>        0.000
      4 N2          0.2020    0.6411   -0.5963 N.am       1 <1>        0.000
      5 C3          1.4874    0.7687   -0.2224 C.2        1 <1>        0.000
      6 O1          1.9156    1.5830    0.5721 O.2        1 <1>        0.000
      7 O8         -0.9485   -0.7319   -2.0221 O.2        1 <1>        0.000
      8 H           3.2334   -0.2520   -0.7505 H.spc      1 <1>        0.000
      9 H           1.4918   -2.0513   -1.5644 H.spc      1 <1>        0.000
     10 H           1.7435   -0.9805   -2.7963 H.spc      1 <1>        0.000
     11 H          -0.5672    1.2170   -0.2542 H.spc      1 <1>        0.000
@<TRIPOS>BOND
     1    1    2 1  
     2    1    5 am 
     3    2    3 1  
     4    3    7 2  
     5    3    4 am 
     6    4    5 am 
     7    5    6 2  
     8    1    8 1  
     9    2    9 1  
    10    2   10 1  
    11    4   11 1  
