#      Rotatable Fragment
#      Build by yxyuan
#
# Name:          frag5-532-89/41815
# Creation time: Sat Jun  5 12:52:51 2010


@<TRIPOS>MOLECULE
frag5-532-89/41815
   17    17     1     1     1
SMALL
USER_CHARGES


@<TRIPOS>ATOM
      1 O1          4.8457   -1.6485   -0.2733 O.3        1 <1>        0.000
      2 C2          3.8149   -0.9096    0.2692 C.ar       1 <1>        0.000
      3 C3          2.6141   -0.7832   -0.4345 C.ar       1 <1>        0.000
      4 C4          1.5494   -0.0152    0.0429 C.ar       1 <1>        0.000
      5 C5          1.7074    0.6194    1.2826 C.ar       1 <1>        0.000
      6 C6          2.8811    0.4891    2.0325 C.ar       1 <1>        0.000
      7 C7          3.9375   -0.2810    1.5178 C.ar       1 <1>        0.000
      8 C8          5.2193   -0.4448    2.3201 C.2        1 <1>        0.000
      9 O2          5.1885   -0.8036    3.4879 O.2        1 <1>        0.000
     10 O3          2.9829    1.1147    3.2582 O.3        1 <1>        0.000
     11 O8          0.3927    0.0992   -0.7038 O.3        1 <1>        0.000
     12 H           5.5950   -1.6389    0.3267 H.spc      1 <1>        0.000
     13 H           2.5047   -1.3010   -1.3874 H.spc      1 <1>        0.000
     14 H           0.8938    1.2309    1.6729 H.spc      1 <1>        0.000
     15 H           6.1793   -0.2392    1.8466 H.spc      1 <1>        0.000
     16 H           2.1697    1.5908    3.4417 H.spc      1 <1>        0.000
     17 H          -0.2342    0.6569   -0.2373 H.spc      1 <1>        0.000
@<TRIPOS>BOND
     1    8    9 2  
     2    7    8 1  
     3    6    7 ar 
     4    6   10 1  
     5    1    2 1  
     6    2    3 ar 
     7    2    7 ar 
     8    3    4 ar 
     9    4    5 ar 
    10    4   11 1  
    11    5    6 ar 
    12    1   12 1  
    13    3   13 1  
    14    5   14 1  
    15    8   15 1  
    16   10   16 1  
    17   11   17 1  
# Name:          frag5-532-89/41815 -- energy: -0.503470
# Creation time: Sat Jun  5 12:52:51 2010


@<TRIPOS>MOLECULE
frag5-532-89/41815 -- energy: -0.503470
   17    17     1     1     1
SMALL
USER_CHARGES


@<TRIPOS>ATOM
      1 O1          4.8457   -1.6485   -0.2733 O.3        1 <1>        0.000
      2 C2          3.8149   -0.9096    0.2692 C.ar       1 <1>        0.000
      3 C3          2.6141   -0.7832   -0.4345 C.ar       1 <1>        0.000
      4 C4          1.5494   -0.0152    0.0429 C.ar       1 <1>        0.000
      5 C5          1.7074    0.6194    1.2826 C.ar       1 <1>        0.000
      6 C6          2.8811    0.4891    2.0325 C.ar       1 <1>        0.000
      7 C7          3.9375   -0.2810    1.5178 C.ar       1 <1>        0.000
      8 C8          5.2193   -0.4448    2.3201 C.2        1 <1>        0.000
      9 O2          5.1885   -0.8036    3.4879 O.2        1 <1>        0.000
     10 O3          2.9829    1.1147    3.2582 O.3        1 <1>        0.000
     11 O8          0.3927    0.0992   -0.7038 O.3        1 <1>        0.000
     12 H           5.5950   -1.6389    0.3267 H.spc      1 <1>        0.000
     13 H           2.5047   -1.3010   -1.3874 H.spc      1 <1>        0.000
     14 H           0.8938    1.2309    1.6729 H.spc      1 <1>        0.000
     15 H           6.1793   -0.2392    1.8466 H.spc      1 <1>        0.000
     16 H           2.1697    1.5908    3.4417 H.spc      1 <1>        0.000
     17 H          -0.2342    0.6569   -0.2373 H.spc      1 <1>        0.000
@<TRIPOS>BOND
     1    8    9 2  
     2    7    8 1  
     3    6    7 ar 
     4    6   10 1  
     5    1    2 1  
     6    2    3 ar 
     7    2    7 ar 
     8    3    4 ar 
     9    4    5 ar 
    10    4   11 1  
    11    5    6 ar 
    12    1   12 1  
    13    3   13 1  
    14    5   14 1  
    15    8   15 1  
    16   10   16 1  
    17   11   17 1  
