#      Rotatable Fragment
#      Build by yxyuan
#
# Name:          frag4-381-75/48856
# Creation time: Sat Jun  5 12:53:36 2010


@<TRIPOS>MOLECULE
frag4-381-75/48856
   13    13     1     1     1
SMALL
USER_CHARGES


@<TRIPOS>ATOM
      1 N1          2.2714   -0.1561   -0.8647 N.3        1 <1>        0.000
      2 C1          1.4595   -0.9487   -1.7201 C.3        1 <1>        0.000
      3 C2          0.0842   -0.3815   -1.5093 C.3        1 <1>        0.000
      4 N2          0.1479    0.6699   -0.5824 N.3        1 <1>        0.000
      5 C3          1.4894    0.7945   -0.1991 C.3        1 <1>        0.000
      6 H           2.9759    0.3243   -1.4244 H.spc      1 <1>        0.000
      7 H           1.5163   -2.0121   -1.4876 H.spc      1 <1>        0.000
      8 H           1.7776   -0.9048   -2.7617 H.spc      1 <1>        0.000
      9 H          -0.5756   -1.1613   -1.1289 H.spc      1 <1>        0.000
     10 H          -0.3032   -0.0071   -2.4568 H.spc      1 <1>        0.000
     11 H          -0.4427    0.4754    0.2262 H.spc      1 <1>        0.000
     12 H           1.8435    1.7925   -0.4575 H.spc      1 <1>        0.000
     13 H           1.5701    0.6339    0.8760 H.spc      1 <1>        0.000
@<TRIPOS>BOND
     1    1    2 1  
     2    1    5 1  
     3    2    3 1  
     4    3    4 1  
     5    4    5 1  
     6    1    6 1  
     7    2    7 1  
     8    2    8 1  
     9    3    9 1  
    10    3   10 1  
    11    4   11 1  
    12    5   12 1  
    13    5   13 1  
# Name:          frag4-381-75/48856 -- energy: -0.653949
# Creation time: Sat Jun  5 12:53:36 2010


@<TRIPOS>MOLECULE
frag4-381-75/48856 -- energy: -0.653949
   13    13     1     1     1
SMALL
USER_CHARGES


@<TRIPOS>ATOM
      1 N1          2.2714   -0.1561   -0.8647 N.3        1 <1>        0.000
      2 C1          1.4595   -0.9487   -1.7201 C.3        1 <1>        0.000
      3 C2          0.0842   -0.3815   -1.5093 C.3        1 <1>        0.000
      4 N2          0.1479    0.6699   -0.5824 N.3        1 <1>        0.000
      5 C3          1.4894    0.7945   -0.1991 C.3        1 <1>        0.000
      6 H           2.9759    0.3243   -1.4244 H.spc      1 <1>        0.000
      7 H           1.5163   -2.0121   -1.4876 H.spc      1 <1>        0.000
      8 H           1.7776   -0.9048   -2.7617 H.spc      1 <1>        0.000
      9 H          -0.5756   -1.1613   -1.1289 H.spc      1 <1>        0.000
     10 H          -0.3032   -0.0071   -2.4568 H.spc      1 <1>        0.000
     11 H          -0.4427    0.4754    0.2262 H.spc      1 <1>        0.000
     12 H           1.8435    1.7925   -0.4575 H.spc      1 <1>        0.000
     13 H           1.5701    0.6339    0.8760 H.spc      1 <1>        0.000
@<TRIPOS>BOND
     1    1    2 1  
     2    1    5 1  
     3    2    3 1  
     4    3    4 1  
     5    4    5 1  
     6    1    6 1  
     7    2    7 1  
     8    2    8 1  
     9    3    9 1  
    10    3   10 1  
    11    4   11 1  
    12    5   12 1  
    13    5   13 1  
