#      Rotatable Fragment
#      Build by yxyuan
#
# Name:          frag4-471-34/48856
# Creation time: Sat Jun  5 12:52:49 2010


@<TRIPOS>MOLECULE
frag4-471-34/48856
   14    14     1     1     1
SMALL
USER_CHARGES


@<TRIPOS>ATOM
      1 C34         9.0031    0.8939    0.6206 C.3        1 <1>        0.000
      2 O14         9.7226   -0.1725    1.1024 O.3        1 <1>        0.000
      3 C35        10.9091   -0.1474    1.7750 C.3        1 <1>        0.000
      4 C36        11.7070    1.0310    1.2851 C.3        1 <1>        0.000
      5 C37        11.1553    2.2409    0.6792 C.2        1 <1>        0.000
      6 C38         9.8431    2.1111    0.4000 C.2        1 <1>        0.000
      7 H           8.2428    1.1439    1.3606 H.spc      1 <1>        0.000
      8 H           8.5801    0.6028   -0.3409 H.spc      1 <1>        0.000
      9 H          11.4593   -1.0712    1.5960 H.spc      1 <1>        0.000
     10 H          10.7291   -0.0570    2.8462 H.spc      1 <1>        0.000
     11 H          12.2675    0.5974    0.4569 H.spc      1 <1>        0.000
     12 H          12.1359    1.4155    2.2105 H.spc      1 <1>        0.000
     13 H          11.7358    3.1411    0.4771 H.spc      1 <1>        0.000
     14 H           9.3445    2.9801   -0.0294 H.spc      1 <1>        0.000
@<TRIPOS>BOND
     1    1    2 1  
     2    1    6 1  
     3    2    3 1  
     4    3    4 1  
     5    4    5 1  
     6    5    6 2  
     7    1    7 1  
     8    1    8 1  
     9    3    9 1  
    10    3   10 1  
    11    4   11 1  
    12    4   12 1  
    13    5   13 1  
    14    6   14 1  
# Name:          frag4-471-34/48856 -- energy: -0.490590
# Creation time: Sat Jun  5 12:52:49 2010


@<TRIPOS>MOLECULE
frag4-471-34/48856 -- energy: -0.490590
   14    14     1     1     1
SMALL
USER_CHARGES


@<TRIPOS>ATOM
      1 C34         9.0031    0.8939    0.6206 C.3        1 <1>        0.000
      2 O14         9.7226   -0.1725    1.1024 O.3        1 <1>        0.000
      3 C35        10.9091   -0.1474    1.7750 C.3        1 <1>        0.000
      4 C36        11.7070    1.0310    1.2851 C.3        1 <1>        0.000
      5 C37        11.1553    2.2409    0.6792 C.2        1 <1>        0.000
      6 C38         9.8431    2.1111    0.4000 C.2        1 <1>        0.000
      7 H           8.2428    1.1439    1.3606 H.spc      1 <1>        0.000
      8 H           8.5801    0.6028   -0.3409 H.spc      1 <1>        0.000
      9 H          11.4593   -1.0712    1.5960 H.spc      1 <1>        0.000
     10 H          10.7291   -0.0570    2.8462 H.spc      1 <1>        0.000
     11 H          12.2675    0.5974    0.4569 H.spc      1 <1>        0.000
     12 H          12.1359    1.4155    2.2105 H.spc      1 <1>        0.000
     13 H          11.7358    3.1411    0.4771 H.spc      1 <1>        0.000
     14 H           9.3445    2.9801   -0.0294 H.spc      1 <1>        0.000
@<TRIPOS>BOND
     1    1    2 1  
     2    1    6 1  
     3    2    3 1  
     4    3    4 1  
     5    4    5 1  
     6    5    6 2  
     7    1    7 1  
     8    1    8 1  
     9    3    9 1  
    10    3   10 1  
    11    4   11 1  
    12    4   12 1  
    13    5   13 1  
    14    6   14 1  
