#      Rotatable Fragment
#      Build by yxyuan
#
# Name:          frag3-278-2/31924
# Creation time: Sat Jun  5 12:52:44 2010


@<TRIPOS>MOLECULE
frag3-278-2/31924
    6     5     1     1     1
SMALL
USER_CHARGES


@<TRIPOS>ATOM
      1 S1          1.4704   -0.3212   -0.5279 S.3        1 <1>        0.000
      2 C2         -0.1436   -0.1690    0.0303 C.2        1 <1>        0.000
      3 S2         -1.3758    0.7385   -0.5936 S.2        1 <1>        0.000
      4 O1         -0.4916   -0.7992    1.1895 O.3        1 <1>        0.000
      5 H           2.1356   -1.1556    0.2660 H.spc      1 <1>        0.000
      6 H           0.2544   -1.3110    1.5106 H.spc      1 <1>        0.000
@<TRIPOS>BOND
     1    1    2 1  
     2    2    3 2  
     3    2    4 1  
     4    1    5 1  
     5    4    6 1  
# Name:          frag3-278-2/31924 -- energy: -0.053026
# Creation time: Sat Jun  5 12:52:44 2010


@<TRIPOS>MOLECULE
frag3-278-2/31924 -- energy: -0.053026
    6     5     1     1     1
SMALL
USER_CHARGES


@<TRIPOS>ATOM
      1 S1          1.4704   -0.3212   -0.5279 S.3        1 <1>        0.000
      2 C2         -0.1436   -0.1690    0.0303 C.2        1 <1>        0.000
      3 S2         -1.3758    0.7385   -0.5936 S.2        1 <1>        0.000
      4 O1         -0.4916   -0.7992    1.1895 O.3        1 <1>        0.000
      5 H           2.1356   -1.1556    0.2660 H.spc      1 <1>        0.000
      6 H           0.2544   -1.3110    1.5106 H.spc      1 <1>        0.000
@<TRIPOS>BOND
     1    1    2 1  
     2    2    3 2  
     3    2    4 1  
     4    1    5 1  
     5    4    6 1  
