#      Rotatable Fragment
#      Build by yxyuan
#
# Name:          frag3-265-2/31924
# Creation time: Sat Jun  5 12:52:41 2010


@<TRIPOS>MOLECULE
frag3-265-2/31924
    8     7     1     1     1
SMALL
USER_CHARGES


@<TRIPOS>ATOM
      1 C2          0.1599    0.9589    0.4625 C.2        1 <1>        0.000
      2 C3         -1.0172    0.7164   -0.0897 C.2        1 <1>        0.000
      3 S2         -2.5176    1.4373    0.5623 S.3        1 <1>        0.000
      4 S3         -3.8221    1.0384   -0.9135 S.3        1 <1>        0.000
      5 H           0.2294    1.6103    1.3337 H.spc      1 <1>        0.000
      6 H           1.0605    0.5074    0.0464 H.spc      1 <1>        0.000
      7 H          -1.0737    0.0633   -0.9606 H.spc      1 <1>        0.000
      8 H          -5.0192    1.5167   -0.5862 H.spc      1 <1>        0.000
@<TRIPOS>BOND
     1    1    2 2  
     2    2    3 1  
     3    3    4 1  
     4    1    5 1  
     5    1    6 1  
     6    2    7 1  
     7    4    8 1  
# Name:          frag3-265-2/31924
# Creation time: Sat Jun  5 12:52:41 2010


@<TRIPOS>MOLECULE
frag3-265-2/31924
    8     7     1     1     1
SMALL
USER_CHARGES


@<TRIPOS>ATOM
      1 C2         -0.1499    0.3772    0.2385 C.2        1 <1>        0.000
      2 C3         -0.8960    1.4727    0.0491 C.2        1 <1>        0.000
      3 S2         -2.5727    1.5590    0.6349 S.3        1 <1>        0.000
      4 S3         -3.5783    0.7421   -0.9010 S.3        1 <1>        0.000
      5 H          -0.5682   -0.4836    0.7603 H.spc      1 <1>        0.000
      6 H           0.8758    0.3461   -0.1291 H.spc      1 <1>        0.000
      7 H          -0.4676    2.3277   -0.4740 H.spc      1 <1>        0.000
      8 H          -4.8784    0.7289   -0.6208 H.spc      1 <1>        0.000
@<TRIPOS>BOND
     1    1    2 2  
     2    2    3 1  
     3    3    4 1  
     4    1    5 1  
     5    1    6 1  
     6    2    7 1  
     7    4    8 1  
# Name:          frag3-265-2/31924 -- energy: -0.254006
# Creation time: Sat Jun  5 12:52:41 2010


@<TRIPOS>MOLECULE
frag3-265-2/31924 -- energy: -0.254006
    8     7     1     1     1
SMALL
USER_CHARGES


@<TRIPOS>ATOM
      1 C2          0.1599    0.9589    0.4625 C.2        1 <1>        0.000
      2 C3         -1.0172    0.7164   -0.0897 C.2        1 <1>        0.000
      3 S2         -2.5176    1.4373    0.5623 S.3        1 <1>        0.000
      4 S3         -3.8221    1.0384   -0.9135 S.3        1 <1>        0.000
      5 H           0.2294    1.6103    1.3337 H.spc      1 <1>        0.000
      6 H           1.0605    0.5074    0.0464 H.spc      1 <1>        0.000
      7 H          -1.0737    0.0633   -0.9606 H.spc      1 <1>        0.000
      8 H          -5.0192    1.5167   -0.5862 H.spc      1 <1>        0.000
@<TRIPOS>BOND
     1    1    2 2  
     2    2    3 1  
     3    3    4 1  
     4    1    5 1  
     5    1    6 1  
     6    2    7 1  
     7    4    8 1  
# Name:          frag3-265-2/31924 -- energy: -0.327145
# Creation time: Sat Jun  5 12:52:41 2010


@<TRIPOS>MOLECULE
frag3-265-2/31924 -- energy: -0.327145
    8     7     1     1     1
SMALL
USER_CHARGES


@<TRIPOS>ATOM
      1 C2         -0.1499    0.3772    0.2385 C.2        1 <1>        0.000
      2 C3         -0.8960    1.4727    0.0491 C.2        1 <1>        0.000
      3 S2         -2.5727    1.5590    0.6349 S.3        1 <1>        0.000
      4 S3         -3.5783    0.7421   -0.9010 S.3        1 <1>        0.000
      5 H          -0.5682   -0.4836    0.7603 H.spc      1 <1>        0.000
      6 H           0.8758    0.3461   -0.1291 H.spc      1 <1>        0.000
      7 H          -0.4676    2.3277   -0.4740 H.spc      1 <1>        0.000
      8 H          -4.8784    0.7289   -0.6208 H.spc      1 <1>        0.000
@<TRIPOS>BOND
     1    1    2 2  
     2    2    3 1  
     3    3    4 1  
     4    1    5 1  
     5    1    6 1  
     6    2    7 1  
     7    4    8 1  
