#      Rotatable Fragment
#      Build by yxyuan
#
# Name:          frag5-604-35/41815
# Creation time: Sat Jun  5 12:52:58 2010


@<TRIPOS>MOLECULE
frag5-604-35/41815
   12    12     1     1     1
SMALL
USER_CHARGES


@<TRIPOS>ATOM
      1 N1          1.1994   -1.0817    0.1625 N.ar       1 <1>        0.000
      2 C1         -0.0619   -1.3023    0.2774 C.ar       1 <1>        0.000
      3 C2         -1.0776   -0.2321    0.1752 C.ar       1 <1>        0.000
      4 C3         -0.7366    1.0136   -0.1219 C.ar       1 <1>        0.000
      5 C4          0.6915    1.1946   -0.2238 C.ar       1 <1>        0.000
      6 C5          1.6002    0.2163   -0.0907 C.ar       1 <1>        0.000
      7 O1         -1.4214    1.9629   -0.2489 O.2        1 <1>        0.000
      8 O2         -2.3976   -0.5101    0.4218 O.3        1 <1>        0.000
      9 H          -0.3977   -2.3234    0.4582 H.spc      1 <1>        0.000
     10 H           1.0594    2.2010   -0.4238 H.spc      1 <1>        0.000
     11 H           2.6615    0.4470   -0.1829 H.spc      1 <1>        0.000
     12 H          -2.9177    0.2893    0.3123 H.spc      1 <1>        0.000
@<TRIPOS>BOND
     1    1    2 ar 
     2    1    6 ar 
     3    2    3 ar 
     4    3    4 ar 
     5    3    8 1  
     6    4    5 ar 
     7    5    6 ar 
     8    4    7 2  
     9    2    9 1  
    10    5   10 1  
    11    6   11 1  
    12    8   12 1  
# Name:          frag5-604-35/41815 -- energy: 0.597543
# Creation time: Sat Jun  5 12:52:58 2010


@<TRIPOS>MOLECULE
frag5-604-35/41815 -- energy: 0.597543
   12    12     1     1     1
SMALL
USER_CHARGES


@<TRIPOS>ATOM
      1 N1          1.1994   -1.0817    0.1625 N.ar       1 <1>        0.000
      2 C1         -0.0619   -1.3023    0.2774 C.ar       1 <1>        0.000
      3 C2         -1.0776   -0.2321    0.1752 C.ar       1 <1>        0.000
      4 C3         -0.7366    1.0136   -0.1219 C.ar       1 <1>        0.000
      5 C4          0.6915    1.1946   -0.2238 C.ar       1 <1>        0.000
      6 C5          1.6002    0.2163   -0.0907 C.ar       1 <1>        0.000
      7 O1         -1.4214    1.9629   -0.2489 O.2        1 <1>        0.000
      8 O2         -2.3976   -0.5101    0.4218 O.3        1 <1>        0.000
      9 H          -0.3977   -2.3234    0.4582 H.spc      1 <1>        0.000
     10 H           1.0594    2.2010   -0.4238 H.spc      1 <1>        0.000
     11 H           2.6615    0.4470   -0.1829 H.spc      1 <1>        0.000
     12 H          -2.9177    0.2893    0.3123 H.spc      1 <1>        0.000
@<TRIPOS>BOND
     1    1    2 ar 
     2    1    6 ar 
     3    2    3 ar 
     4    3    4 ar 
     5    3    8 1  
     6    4    5 ar 
     7    5    6 ar 
     8    4    7 2  
     9    2    9 1  
    10    5   10 1  
    11    6   11 1  
    12    8   12 1  
