#      Rotatable Fragment
#      Build by yxyuan
#
# Name:          frag3-239-5/96164
# Creation time: Sat Jun  5 12:53:16 2010


@<TRIPOS>MOLECULE
frag3-239-5/96164
   12    11     1     1     1
SMALL
USER_CHARGES


@<TRIPOS>ATOM
      1 N1          1.2256    0.0256    0.1621 N.am       1 <1>        0.000
      2 O1          1.1681   -1.0950   -0.6084 O.3        1 <1>        0.000
      3 C7          2.0160    1.0418   -0.1006 C.2        1 <1>        0.000
      4 C10         0.3088   -0.9833   -1.6076 C.2        1 <1>        0.000
      5 N2          2.7554    1.1610   -1.2137 N.am       1 <1>        0.000
      6 O2          2.1069    1.9271    0.7473 O.2        1 <1>        0.000
      7 O3          0.1801   -2.2155   -2.0981 O.3        1 <1>        0.000
      8 O4         -0.3219   -0.0069   -1.9095 O.2        1 <1>        0.000
      9 H           0.6249    0.0792    0.9847 H.spc      1 <1>        0.000
     10 H           3.3679    1.9675   -1.3352 H.spc      1 <1>        0.000
     11 H           2.7051    0.4451   -1.9385 H.spc      1 <1>        0.000
     12 H           0.8157   -2.7959   -1.6730 H.spc      1 <1>        0.000
@<TRIPOS>BOND
     1    1    2 1  
     2    1    3 am 
     3    2    4 1  
     4    3    5 am 
     5    3    6 2  
     6    4    7 1  
     7    4    8 2  
     8    1    9 1  
     9    5   10 1  
    10    5   11 1  
    11    7   12 1  
# Name:          frag3-239-5/96164
# Creation time: Sat Jun  5 12:53:16 2010


@<TRIPOS>MOLECULE
frag3-239-5/96164
   12    11     1     1     1
SMALL
USER_CHARGES


@<TRIPOS>ATOM
      1 N1          0.8883    1.0493   -0.7384 N.am       1 <1>        0.000
      2 O1          0.5964    0.2553   -1.8252 O.3        1 <1>        0.000
      3 C7          2.0547    0.9128   -0.1513 C.2        1 <1>        0.000
      4 C10         0.1994   -0.9695   -1.4972 C.2        1 <1>        0.000
      5 N2          3.0329    0.1107   -0.5946 N.am       1 <1>        0.000
      6 O2          2.2654    1.5584    0.8826 O.2        1 <1>        0.000
      7 O3          1.0986   -1.8465   -1.9849 O.3        1 <1>        0.000
      8 O4         -0.6967   -1.2157   -0.7197 O.2        1 <1>        0.000
      9 H           0.2109    1.7307   -0.3960 H.spc      1 <1>        0.000
     10 H           3.9130    0.0489   -0.0828 H.spc      1 <1>        0.000
     11 H           2.8971   -0.4379   -1.4437 H.spc      1 <1>        0.000
     12 H           1.6978   -1.3908   -2.5806 H.spc      1 <1>        0.000
@<TRIPOS>BOND
     1    1    2 1  
     2    1    3 am 
     3    2    4 1  
     4    3    5 am 
     5    3    6 2  
     6    4    7 1  
     7    4    8 2  
     8    1    9 1  
     9    5   10 1  
    10    5   11 1  
    11    7   12 1  
# Name:          frag3-239-5/96164
# Creation time: Sat Jun  5 12:53:16 2010


@<TRIPOS>MOLECULE
frag3-239-5/96164
   12    11     1     1     1
SMALL
USER_CHARGES


@<TRIPOS>ATOM
      1 N1          1.1737    0.4716   -0.5163 N.am       1 <1>        0.000
      2 O1          1.2525   -0.6549   -1.2795 O.3        1 <1>        0.000
      3 C7          2.1897    1.1341   -0.0637 C.2        1 <1>        0.000
      4 C10         0.0706   -1.1084   -1.6343 C.2        1 <1>        0.000
      5 N2          3.3961    1.0635   -0.6206 N.am       1 <1>        0.000
      6 O2          2.0360    1.8038    0.9562 O.2        1 <1>        0.000
      7 O3          0.2468   -2.4111   -1.8253 O.3        1 <1>        0.000
      8 O4         -0.9263   -0.4438   -1.6451 O.2        1 <1>        0.000
      9 H           0.2433    0.8192   -0.2840 H.spc      1 <1>        0.000
     10 H           4.1813    1.5617   -0.2014 H.spc      1 <1>        0.000
     11 H           3.5357    0.5111   -1.4667 H.spc      1 <1>        0.000
     12 H           1.1803   -2.6213   -1.7481 H.spc      1 <1>        0.000
@<TRIPOS>BOND
     1    1    2 1  
     2    1    3 am 
     3    2    4 1  
     4    3    5 am 
     5    3    6 2  
     6    4    7 1  
     7    4    8 2  
     8    1    9 1  
     9    5   10 1  
    10    5   11 1  
    11    7   12 1  
# Name:          frag3-239-5/96164
# Creation time: Sat Jun  5 12:53:16 2010


@<TRIPOS>MOLECULE
frag3-239-5/96164
   12    11     1     1     1
SMALL
USER_CHARGES


@<TRIPOS>ATOM
      1 N1          1.5916   -0.1904    0.3057 N.am       1 <1>        0.000
      2 O1          0.7654   -1.1409   -0.2672 O.3        1 <1>        0.000
      3 C7          1.7912    1.0446   -0.0922 C.2        1 <1>        0.000
      4 C10         0.6204   -1.0921   -1.6089 C.2        1 <1>        0.000
      5 N2          1.1175    1.7619   -0.9857 N.am       1 <1>        0.000
      6 O2          2.7764    1.6165    0.4092 O.2        1 <1>        0.000
      7 O3         -0.5696   -1.5824   -1.9543 O.3        1 <1>        0.000
      8 O4          1.3462   -0.5624   -2.4351 O.2        1 <1>        0.000
      9 H           2.1067   -0.4841    1.1357 H.spc      1 <1>        0.000
     10 H           1.4214    2.7085   -1.2136 H.spc      1 <1>        0.000
     11 H           0.2966    1.3657   -1.4434 H.spc      1 <1>        0.000
     12 H          -0.9965   -1.9579   -1.1808 H.spc      1 <1>        0.000
@<TRIPOS>BOND
     1    1    2 1  
     2    1    3 am 
     3    2    4 1  
     4    3    5 am 
     5    3    6 2  
     6    4    7 1  
     7    4    8 2  
     8    1    9 1  
     9    5   10 1  
    10    5   11 1  
    11    7   12 1  
# Name:          frag3-239-5/96164
# Creation time: Sat Jun  5 12:53:16 2010


@<TRIPOS>MOLECULE
frag3-239-5/96164
   12    11     1     1     1
SMALL
USER_CHARGES


@<TRIPOS>ATOM
      1 N1          1.1058    0.4415   -0.3676 N.am       1 <1>        0.000
      2 O1          1.1715   -0.8190   -0.8884 O.3        1 <1>        0.000
      3 C7          2.1935    1.1112   -0.1107 C.2        1 <1>        0.000
      4 C10         0.0794   -1.1835   -1.4972 C.2        1 <1>        0.000
      5 N2          3.4124    0.5598   -0.1607 N.am       1 <1>        0.000
      6 O2          2.0713    2.3091    0.1725 O.2        1 <1>        0.000
      7 O3          0.4320   -1.4664   -2.7564 O.3        1 <1>        0.000
      8 O4         -1.0269   -1.0979   -1.0201 O.2        1 <1>        0.000
      9 H           0.1965    0.8629   -0.1779 H.spc      1 <1>        0.000
     10 H           4.2372    1.1272    0.0345 H.spc      1 <1>        0.000
     11 H           3.5162   -0.4277   -0.3940 H.spc      1 <1>        0.000
     12 H           1.3893   -1.4617   -2.8282 H.spc      1 <1>        0.000
@<TRIPOS>BOND
     1    1    2 1  
     2    1    3 am 
     3    2    4 1  
     4    3    5 am 
     5    3    6 2  
     6    4    7 1  
     7    4    8 2  
     8    1    9 1  
     9    5   10 1  
    10    5   11 1  
    11    7   12 1  
# Name:          frag3-239-5/96164
# Creation time: Sat Jun  5 12:53:16 2010


@<TRIPOS>MOLECULE
frag3-239-5/96164
   12    11     1     1     1
SMALL
USER_CHARGES


@<TRIPOS>ATOM
      1 N1          1.9321    0.1588   -1.0466 N.am       1 <1>        0.000
      2 O1          1.2653   -0.9689   -0.7415 O.3        1 <1>        0.000
      3 C7          2.1250    1.0926   -0.1973 C.2        1 <1>        0.000
      4 C10         0.2253   -1.1003   -1.5164 C.2        1 <1>        0.000
      5 N2          2.7143    2.1793   -0.5621 N.am       1 <1>        0.000
      6 O2          1.7459    0.9351    0.9847 O.2        1 <1>        0.000
      7 O3         -0.7378   -1.7553   -0.8971 O.3        1 <1>        0.000
      8 O4          0.1690   -0.6865   -2.6523 O.2        1 <1>        0.000
      9 H           2.2975    0.2723   -1.9921 H.spc      1 <1>        0.000
     10 H           2.8766    2.9238    0.1160 H.spc      1 <1>        0.000
     11 H           3.0183    2.2948   -1.5289 H.spc      1 <1>        0.000
     12 H          -0.4527   -1.9753   -0.0072 H.spc      1 <1>        0.000
@<TRIPOS>BOND
     1    1    2 1  
     2    1    3 am 
     3    2    4 1  
     4    3    5 am 
     5    3    6 2  
     6    4    7 1  
     7    4    8 2  
     8    1    9 1  
     9    5   10 1  
    10    5   11 1  
    11    7   12 1  
# Name:          frag3-239-5/96164
# Creation time: Sat Jun  5 12:53:16 2010


@<TRIPOS>MOLECULE
frag3-239-5/96164
   12    11     1     1     1
SMALL
USER_CHARGES


@<TRIPOS>ATOM
      1 N1          0.8992    0.4949   -0.1390 N.am       1 <1>        0.000
      2 O1          0.7481   -0.8321   -0.3108 O.3        1 <1>        0.000
      3 C7          2.0406    1.0722   -0.1910 C.2        1 <1>        0.000
      4 C10         0.2988   -1.0597   -1.5190 C.2        1 <1>        0.000
      5 N2          2.1171    2.3486   -0.0291 N.am       1 <1>        0.000
      6 O2          3.0721    0.3856   -0.3717 O.2        1 <1>        0.000
      7 O3          0.4564   -2.3322   -1.8241 O.3        1 <1>        0.000
      8 O4         -0.1933   -0.2226   -2.2438 O.2        1 <1>        0.000
      9 H           0.0710    1.0628    0.0397 H.spc      1 <1>        0.000
     10 H           3.0259    2.8114   -0.0473 H.spc      1 <1>        0.000
     11 H           1.2689    2.8959    0.1172 H.spc      1 <1>        0.000
     12 H           0.8683   -2.7883   -1.0866 H.spc      1 <1>        0.000
@<TRIPOS>BOND
     1    1    2 1  
     2    1    3 am 
     3    2    4 1  
     4    3    5 am 
     5    3    6 2  
     6    4    7 1  
     7    4    8 2  
     8    1    9 1  
     9    5   10 1  
    10    5   11 1  
    11    7   12 1  
# Name:          frag3-239-5/96164
# Creation time: Sat Jun  5 12:53:16 2010


@<TRIPOS>MOLECULE
frag3-239-5/96164
   12    11     1     1     1
SMALL
USER_CHARGES


@<TRIPOS>ATOM
      1 N1          1.6137   -0.2571    0.0487 N.am       1 <1>        0.000
      2 O1          1.5045   -1.0962   -1.0201 O.3        1 <1>        0.000
      3 C7          1.9789    0.9985   -0.0468 C.2        1 <1>        0.000
      4 C10         0.3631   -0.9878   -1.7019 C.2        1 <1>        0.000
      5 N2          2.4113    1.5708   -1.1560 N.am       1 <1>        0.000
      6 O2          1.8959    1.6650    0.9756 O.2        1 <1>        0.000
      7 O3         -0.5291   -1.7580   -1.0722 O.3        1 <1>        0.000
      8 O4          0.2007   -0.2805   -2.6560 O.2        1 <1>        0.000
      9 H           1.3992   -0.6269    0.9748 H.spc      1 <1>        0.000
     10 H           2.6712    2.5571   -1.1531 H.spc      1 <1>        0.000
     11 H           2.4853    1.0264   -2.0154 H.spc      1 <1>        0.000
     12 H          -0.1013   -2.2085   -0.3403 H.spc      1 <1>        0.000
@<TRIPOS>BOND
     1    1    2 1  
     2    1    3 am 
     3    2    4 1  
     4    3    5 am 
     5    3    6 2  
     6    4    7 1  
     7    4    8 2  
     8    1    9 1  
     9    5   10 1  
    10    5   11 1  
    11    7   12 1  
# Name:          frag3-239-5/96164
# Creation time: Sat Jun  5 12:53:16 2010


@<TRIPOS>MOLECULE
frag3-239-5/96164
   12    11     1     1     1
SMALL
USER_CHARGES


@<TRIPOS>ATOM
      1 N1          1.0775    0.1819    0.1701 N.am       1 <1>        0.000
      2 O1          0.1121    0.0218   -0.7515 O.3        1 <1>        0.000
      3 C7          2.1301    0.9033   -0.0593 C.2        1 <1>        0.000
      4 C10         0.1842   -0.9402   -1.6602 C.2        1 <1>        0.000
      5 N2          2.2450    1.8251   -1.0037 N.am       1 <1>        0.000
      6 O2          3.1178    0.6499    0.6403 O.2        1 <1>        0.000
      7 O3          1.0948   -1.8702   -1.3076 O.3        1 <1>        0.000
      8 O4         -0.5223   -0.9168   -2.6566 O.2        1 <1>        0.000
      9 H           0.9792   -0.2772    1.0756 H.spc      1 <1>        0.000
     10 H           3.1334    2.3074   -1.1403 H.spc      1 <1>        0.000
     11 H           1.4451    2.0526   -1.5943 H.spc      1 <1>        0.000
     12 H           1.4961   -1.6226   -0.4714 H.spc      1 <1>        0.000
@<TRIPOS>BOND
     1    1    2 1  
     2    1    3 am 
     3    2    4 1  
     4    3    5 am 
     5    3    6 2  
     6    4    7 1  
     7    4    8 2  
     8    1    9 1  
     9    5   10 1  
    10    5   11 1  
    11    7   12 1  
# Name:          frag3-239-5/96164 -- energy: -0.235013
# Creation time: Sat Jun  5 12:53:16 2010


@<TRIPOS>MOLECULE
frag3-239-5/96164 -- energy: -0.235013
   12    11     1     1     1
SMALL
USER_CHARGES


@<TRIPOS>ATOM
      1 N1          1.2256    0.0256    0.1621 N.am       1 <1>        0.000
      2 O1          1.1681   -1.0950   -0.6084 O.3        1 <1>        0.000
      3 C7          2.0160    1.0418   -0.1006 C.2        1 <1>        0.000
      4 C10         0.3088   -0.9833   -1.6076 C.2        1 <1>        0.000
      5 N2          2.7554    1.1610   -1.2137 N.am       1 <1>        0.000
      6 O2          2.1069    1.9271    0.7473 O.2        1 <1>        0.000
      7 O3          0.1801   -2.2155   -2.0981 O.3        1 <1>        0.000
      8 O4         -0.3219   -0.0069   -1.9095 O.2        1 <1>        0.000
      9 H           0.6249    0.0792    0.9847 H.spc      1 <1>        0.000
     10 H           3.3679    1.9675   -1.3352 H.spc      1 <1>        0.000
     11 H           2.7051    0.4451   -1.9385 H.spc      1 <1>        0.000
     12 H           0.8157   -2.7959   -1.6730 H.spc      1 <1>        0.000
@<TRIPOS>BOND
     1    1    2 1  
     2    1    3 am 
     3    2    4 1  
     4    3    5 am 
     5    3    6 2  
     6    4    7 1  
     7    4    8 2  
     8    1    9 1  
     9    5   10 1  
    10    5   11 1  
    11    7   12 1  
# Name:          frag3-239-5/96164 -- energy: -0.343340
# Creation time: Sat Jun  5 12:53:16 2010


@<TRIPOS>MOLECULE
frag3-239-5/96164 -- energy: -0.343340
   12    11     1     1     1
SMALL
USER_CHARGES


@<TRIPOS>ATOM
      1 N1          0.8883    1.0493   -0.7384 N.am       1 <1>        0.000
      2 O1          0.5964    0.2553   -1.8252 O.3        1 <1>        0.000
      3 C7          2.0547    0.9128   -0.1513 C.2        1 <1>        0.000
      4 C10         0.1994   -0.9695   -1.4972 C.2        1 <1>        0.000
      5 N2          3.0329    0.1107   -0.5946 N.am       1 <1>        0.000
      6 O2          2.2654    1.5584    0.8826 O.2        1 <1>        0.000
      7 O3          1.0986   -1.8465   -1.9849 O.3        1 <1>        0.000
      8 O4         -0.6967   -1.2157   -0.7197 O.2        1 <1>        0.000
      9 H           0.2109    1.7307   -0.3960 H.spc      1 <1>        0.000
     10 H           3.9130    0.0489   -0.0828 H.spc      1 <1>        0.000
     11 H           2.8971   -0.4379   -1.4437 H.spc      1 <1>        0.000
     12 H           1.6978   -1.3908   -2.5806 H.spc      1 <1>        0.000
@<TRIPOS>BOND
     1    1    2 1  
     2    1    3 am 
     3    2    4 1  
     4    3    5 am 
     5    3    6 2  
     6    4    7 1  
     7    4    8 2  
     8    1    9 1  
     9    5   10 1  
    10    5   11 1  
    11    7   12 1  
# Name:          frag3-239-5/96164 -- energy: 0.815027
# Creation time: Sat Jun  5 12:53:16 2010


@<TRIPOS>MOLECULE
frag3-239-5/96164 -- energy: 0.815027
   12    11     1     1     1
SMALL
USER_CHARGES


@<TRIPOS>ATOM
      1 N1          1.1737    0.4716   -0.5163 N.am       1 <1>        0.000
      2 O1          1.2525   -0.6549   -1.2795 O.3        1 <1>        0.000
      3 C7          2.1897    1.1341   -0.0637 C.2        1 <1>        0.000
      4 C10         0.0706   -1.1084   -1.6343 C.2        1 <1>        0.000
      5 N2          3.3961    1.0635   -0.6206 N.am       1 <1>        0.000
      6 O2          2.0360    1.8038    0.9562 O.2        1 <1>        0.000
      7 O3          0.2468   -2.4111   -1.8253 O.3        1 <1>        0.000
      8 O4         -0.9263   -0.4438   -1.6451 O.2        1 <1>        0.000
      9 H           0.2433    0.8192   -0.2840 H.spc      1 <1>        0.000
     10 H           4.1813    1.5617   -0.2014 H.spc      1 <1>        0.000
     11 H           3.5357    0.5111   -1.4667 H.spc      1 <1>        0.000
     12 H           1.1803   -2.6213   -1.7481 H.spc      1 <1>        0.000
@<TRIPOS>BOND
     1    1    2 1  
     2    1    3 am 
     3    2    4 1  
     4    3    5 am 
     5    3    6 2  
     6    4    7 1  
     7    4    8 2  
     8    1    9 1  
     9    5   10 1  
    10    5   11 1  
    11    7   12 1  
# Name:          frag3-239-5/96164 -- energy: -0.260441
# Creation time: Sat Jun  5 12:53:16 2010


@<TRIPOS>MOLECULE
frag3-239-5/96164 -- energy: -0.260441
   12    11     1     1     1
SMALL
USER_CHARGES


@<TRIPOS>ATOM
      1 N1          1.5916   -0.1904    0.3057 N.am       1 <1>        0.000
      2 O1          0.7654   -1.1409   -0.2672 O.3        1 <1>        0.000
      3 C7          1.7912    1.0446   -0.0922 C.2        1 <1>        0.000
      4 C10         0.6204   -1.0921   -1.6089 C.2        1 <1>        0.000
      5 N2          1.1175    1.7619   -0.9857 N.am       1 <1>        0.000
      6 O2          2.7764    1.6165    0.4092 O.2        1 <1>        0.000
      7 O3         -0.5696   -1.5824   -1.9543 O.3        1 <1>        0.000
      8 O4          1.3462   -0.5624   -2.4351 O.2        1 <1>        0.000
      9 H           2.1067   -0.4841    1.1357 H.spc      1 <1>        0.000
     10 H           1.4214    2.7085   -1.2136 H.spc      1 <1>        0.000
     11 H           0.2966    1.3657   -1.4434 H.spc      1 <1>        0.000
     12 H          -0.9965   -1.9579   -1.1808 H.spc      1 <1>        0.000
@<TRIPOS>BOND
     1    1    2 1  
     2    1    3 am 
     3    2    4 1  
     4    3    5 am 
     5    3    6 2  
     6    4    7 1  
     7    4    8 2  
     8    1    9 1  
     9    5   10 1  
    10    5   11 1  
    11    7   12 1  
# Name:          frag3-239-5/96164 -- energy: -0.019205
# Creation time: Sat Jun  5 12:53:16 2010


@<TRIPOS>MOLECULE
frag3-239-5/96164 -- energy: -0.019205
   12    11     1     1     1
SMALL
USER_CHARGES


@<TRIPOS>ATOM
      1 N1          1.1058    0.4415   -0.3676 N.am       1 <1>        0.000
      2 O1          1.1715   -0.8190   -0.8884 O.3        1 <1>        0.000
      3 C7          2.1935    1.1112   -0.1107 C.2        1 <1>        0.000
      4 C10         0.0794   -1.1835   -1.4972 C.2        1 <1>        0.000
      5 N2          3.4124    0.5598   -0.1607 N.am       1 <1>        0.000
      6 O2          2.0713    2.3091    0.1725 O.2        1 <1>        0.000
      7 O3          0.4320   -1.4664   -2.7564 O.3        1 <1>        0.000
      8 O4         -1.0269   -1.0979   -1.0201 O.2        1 <1>        0.000
      9 H           0.1965    0.8629   -0.1779 H.spc      1 <1>        0.000
     10 H           4.2372    1.1272    0.0345 H.spc      1 <1>        0.000
     11 H           3.5162   -0.4277   -0.3940 H.spc      1 <1>        0.000
     12 H           1.3893   -1.4617   -2.8282 H.spc      1 <1>        0.000
@<TRIPOS>BOND
     1    1    2 1  
     2    1    3 am 
     3    2    4 1  
     4    3    5 am 
     5    3    6 2  
     6    4    7 1  
     7    4    8 2  
     8    1    9 1  
     9    5   10 1  
    10    5   11 1  
    11    7   12 1  
# Name:          frag3-239-5/96164 -- energy: -0.086609
# Creation time: Sat Jun  5 12:53:16 2010


@<TRIPOS>MOLECULE
frag3-239-5/96164 -- energy: -0.086609
   12    11     1     1     1
SMALL
USER_CHARGES


@<TRIPOS>ATOM
      1 N1          1.9321    0.1588   -1.0466 N.am       1 <1>        0.000
      2 O1          1.2653   -0.9689   -0.7415 O.3        1 <1>        0.000
      3 C7          2.1250    1.0926   -0.1973 C.2        1 <1>        0.000
      4 C10         0.2253   -1.1003   -1.5164 C.2        1 <1>        0.000
      5 N2          2.7143    2.1793   -0.5621 N.am       1 <1>        0.000
      6 O2          1.7459    0.9351    0.9847 O.2        1 <1>        0.000
      7 O3         -0.7378   -1.7553   -0.8971 O.3        1 <1>        0.000
      8 O4          0.1690   -0.6865   -2.6523 O.2        1 <1>        0.000
      9 H           2.2975    0.2723   -1.9921 H.spc      1 <1>        0.000
     10 H           2.8766    2.9238    0.1160 H.spc      1 <1>        0.000
     11 H           3.0183    2.2948   -1.5289 H.spc      1 <1>        0.000
     12 H          -0.4527   -1.9753   -0.0072 H.spc      1 <1>        0.000
@<TRIPOS>BOND
     1    1    2 1  
     2    1    3 am 
     3    2    4 1  
     4    3    5 am 
     5    3    6 2  
     6    4    7 1  
     7    4    8 2  
     8    1    9 1  
     9    5   10 1  
    10    5   11 1  
    11    7   12 1  
# Name:          frag3-239-5/96164 -- energy: -0.085471
# Creation time: Sat Jun  5 12:53:16 2010


@<TRIPOS>MOLECULE
frag3-239-5/96164 -- energy: -0.085471
   12    11     1     1     1
SMALL
USER_CHARGES


@<TRIPOS>ATOM
      1 N1          0.8992    0.4949   -0.1390 N.am       1 <1>        0.000
      2 O1          0.7481   -0.8321   -0.3108 O.3        1 <1>        0.000
      3 C7          2.0406    1.0722   -0.1910 C.2        1 <1>        0.000
      4 C10         0.2988   -1.0597   -1.5190 C.2        1 <1>        0.000
      5 N2          2.1171    2.3486   -0.0291 N.am       1 <1>        0.000
      6 O2          3.0721    0.3856   -0.3717 O.2        1 <1>        0.000
      7 O3          0.4564   -2.3322   -1.8241 O.3        1 <1>        0.000
      8 O4         -0.1933   -0.2226   -2.2438 O.2        1 <1>        0.000
      9 H           0.0710    1.0628    0.0397 H.spc      1 <1>        0.000
     10 H           3.0259    2.8114   -0.0473 H.spc      1 <1>        0.000
     11 H           1.2689    2.8959    0.1172 H.spc      1 <1>        0.000
     12 H           0.8683   -2.7883   -1.0866 H.spc      1 <1>        0.000
@<TRIPOS>BOND
     1    1    2 1  
     2    1    3 am 
     3    2    4 1  
     4    3    5 am 
     5    3    6 2  
     6    4    7 1  
     7    4    8 2  
     8    1    9 1  
     9    5   10 1  
    10    5   11 1  
    11    7   12 1  
# Name:          frag3-239-5/96164 -- energy: -0.633948
# Creation time: Sat Jun  5 12:53:16 2010


@<TRIPOS>MOLECULE
frag3-239-5/96164 -- energy: -0.633948
   12    11     1     1     1
SMALL
USER_CHARGES


@<TRIPOS>ATOM
      1 N1          1.6137   -0.2571    0.0487 N.am       1 <1>        0.000
      2 O1          1.5045   -1.0962   -1.0201 O.3        1 <1>        0.000
      3 C7          1.9789    0.9985   -0.0468 C.2        1 <1>        0.000
      4 C10         0.3631   -0.9878   -1.7019 C.2        1 <1>        0.000
      5 N2          2.4113    1.5708   -1.1560 N.am       1 <1>        0.000
      6 O2          1.8959    1.6650    0.9756 O.2        1 <1>        0.000
      7 O3         -0.5291   -1.7580   -1.0722 O.3        1 <1>        0.000
      8 O4          0.2007   -0.2805   -2.6560 O.2        1 <1>        0.000
      9 H           1.3992   -0.6269    0.9748 H.spc      1 <1>        0.000
     10 H           2.6712    2.5571   -1.1531 H.spc      1 <1>        0.000
     11 H           2.4853    1.0264   -2.0154 H.spc      1 <1>        0.000
     12 H          -0.1013   -2.2085   -0.3403 H.spc      1 <1>        0.000
@<TRIPOS>BOND
     1    1    2 1  
     2    1    3 am 
     3    2    4 1  
     4    3    5 am 
     5    3    6 2  
     6    4    7 1  
     7    4    8 2  
     8    1    9 1  
     9    5   10 1  
    10    5   11 1  
    11    7   12 1  
# Name:          frag3-239-5/96164 -- energy: 2.099252
# Creation time: Sat Jun  5 12:53:16 2010


@<TRIPOS>MOLECULE
frag3-239-5/96164 -- energy: 2.099252
   12    11     1     1     1
SMALL
USER_CHARGES


@<TRIPOS>ATOM
      1 N1          1.0775    0.1819    0.1701 N.am       1 <1>        0.000
      2 O1          0.1121    0.0218   -0.7515 O.3        1 <1>        0.000
      3 C7          2.1301    0.9033   -0.0593 C.2        1 <1>        0.000
      4 C10         0.1842   -0.9402   -1.6602 C.2        1 <1>        0.000
      5 N2          2.2450    1.8251   -1.0037 N.am       1 <1>        0.000
      6 O2          3.1178    0.6499    0.6403 O.2        1 <1>        0.000
      7 O3          1.0948   -1.8702   -1.3076 O.3        1 <1>        0.000
      8 O4         -0.5223   -0.9168   -2.6566 O.2        1 <1>        0.000
      9 H           0.9792   -0.2772    1.0756 H.spc      1 <1>        0.000
     10 H           3.1334    2.3074   -1.1403 H.spc      1 <1>        0.000
     11 H           1.4451    2.0526   -1.5943 H.spc      1 <1>        0.000
     12 H           1.4961   -1.6226   -0.4714 H.spc      1 <1>        0.000
@<TRIPOS>BOND
     1    1    2 1  
     2    1    3 am 
     3    2    4 1  
     4    3    5 am 
     5    3    6 2  
     6    4    7 1  
     7    4    8 2  
     8    1    9 1  
     9    5   10 1  
    10    5   11 1  
    11    7   12 1  
