#      Rotatable Fragment
#      Build by yxyuan
#
# Name:          frag4-446-41/48856
# Creation time: Sat Jun  5 12:52:48 2010


@<TRIPOS>MOLECULE
frag4-446-41/48856
   13    14     1     1     1
SMALL
USER_CHARGES


@<TRIPOS>ATOM
      1 C1         -1.8708    1.0198    0.0659 C.ar       1 <1>        0.000
      2 N1         -0.5834    1.4762    0.0662 N.ar       1 <1>        0.000
      3 C2          0.4776    0.6553    0.0175 C.ar       1 <1>        0.000
      4 N2          1.8385    0.9083    0.0118 N.ar       1 <1>        0.000
      5 C3          2.4794   -0.3315   -0.0408 C.ar       1 <1>        0.000
      6 N3          1.5495   -1.3121   -0.0779 N.ar       1 <1>        0.000
      7 C4          0.2975   -0.7673   -0.0406 C.ar       1 <1>        0.000
      8 C5         -1.0140   -1.2653   -0.0416 C.ar       1 <1>        0.000
      9 C6         -2.1055   -0.3610    0.0121 C.ar       1 <1>        0.000
     10 H          -2.7049    1.7203    0.1070 H.spc      1 <1>        0.000
     11 H           3.5586   -0.4843   -0.0504 H.spc      1 <1>        0.000
     12 H          -1.1930   -2.3397   -0.0834 H.spc      1 <1>        0.000
     13 H          -3.1274   -0.7401    0.0115 H.spc      1 <1>        0.000
@<TRIPOS>BOND
     1    1    2 ar 
     2    1    9 ar 
     3    2    3 ar 
     4    3    4 ar 
     5    4    5 ar 
     6    3    7 ar 
     7    5    6 ar 
     8    6    7 ar 
     9    7    8 ar 
    10    8    9 ar 
    11    1   10 1  
    12    5   11 1  
    13    8   12 1  
    14    9   13 1  
# Name:          frag4-446-41/48856 -- energy: -0.227740
# Creation time: Sat Jun  5 12:52:48 2010


@<TRIPOS>MOLECULE
frag4-446-41/48856 -- energy: -0.227740
   13    14     1     1     1
SMALL
USER_CHARGES


@<TRIPOS>ATOM
      1 C1         -1.8708    1.0198    0.0659 C.ar       1 <1>        0.000
      2 N1         -0.5834    1.4762    0.0662 N.ar       1 <1>        0.000
      3 C2          0.4776    0.6553    0.0175 C.ar       1 <1>        0.000
      4 N2          1.8385    0.9083    0.0118 N.ar       1 <1>        0.000
      5 C3          2.4794   -0.3315   -0.0408 C.ar       1 <1>        0.000
      6 N3          1.5495   -1.3121   -0.0779 N.ar       1 <1>        0.000
      7 C4          0.2975   -0.7673   -0.0406 C.ar       1 <1>        0.000
      8 C5         -1.0140   -1.2653   -0.0416 C.ar       1 <1>        0.000
      9 C6         -2.1055   -0.3610    0.0121 C.ar       1 <1>        0.000
     10 H          -2.7049    1.7203    0.1070 H.spc      1 <1>        0.000
     11 H           3.5586   -0.4843   -0.0504 H.spc      1 <1>        0.000
     12 H          -1.1930   -2.3397   -0.0834 H.spc      1 <1>        0.000
     13 H          -3.1274   -0.7401    0.0115 H.spc      1 <1>        0.000
@<TRIPOS>BOND
     1    1    2 ar 
     2    1    9 ar 
     3    2    3 ar 
     4    3    4 ar 
     5    4    5 ar 
     6    3    7 ar 
     7    5    6 ar 
     8    6    7 ar 
     9    7    8 ar 
    10    8    9 ar 
    11    1   10 1  
    12    5   11 1  
    13    8   12 1  
    14    9   13 1  
