#      Rotatable Fragment
#      Build by yxyuan
#
# Name:          frag2-034-2213/319335
# Creation time: Sat Jun  5 12:53:31 2010


@<TRIPOS>MOLECULE
frag2-034-2213/319335
   17    18     1     1     1
SMALL
USER_CHARGES


@<TRIPOS>ATOM
      1 C1          0.0050    0.8280    0.0790 C.ar       1 <1>        0.000
      2 C2          0.1299   -0.5605   -0.0442 C.ar       1 <1>        0.000
      3 C3         -1.2579    1.4191    0.0508 C.ar       1 <1>        0.000
      4 N1          1.1156    1.5896    0.2260 N.ar       1 <1>        0.000
      5 C4          1.4078   -1.1325   -0.0124 C.ar       1 <1>        0.000
      6 C5         -1.0246   -1.3426   -0.1962 C.ar       1 <1>        0.000
      7 C6         -2.3981    0.6387   -0.1006 C.ar       1 <1>        0.000
      8 C8          2.3562    1.0562    0.2577 C.ar       1 <1>        0.000
      9 C9          2.5240   -0.3168    0.1387 C.ar       1 <1>        0.000
     10 C10        -2.2823   -0.7416   -0.2235 C.ar       1 <1>        0.000
     11 H          -1.3514    2.5007    0.1482 H.spc      1 <1>        0.000
     12 H           1.5270   -2.2119   -0.1056 H.spc      1 <1>        0.000
     13 H          -0.9381   -2.4248   -0.2934 H.spc      1 <1>        0.000
     14 H          -3.3816    1.1080   -0.1230 H.spc      1 <1>        0.000
     15 H           3.2251    1.7034    0.3767 H.spc      1 <1>        0.000
     16 H           3.5230   -0.7521    0.1635 H.spc      1 <1>        0.000
     17 H          -3.1760   -1.3544   -0.3413 H.spc      1 <1>        0.000
@<TRIPOS>BOND
     1    6   10 ar 
     2    8    9 ar 
     3    7   10 ar 
     4    1    3 ar 
     5    1    2 ar 
     6    1    4 ar 
     7    2    5 ar 
     8    2    6 ar 
     9    3    7 ar 
    10    4    8 ar 
    11    5    9 ar 
    12    3   11 1  
    13    5   12 1  
    14    6   13 1  
    15    7   14 1  
    16    8   15 1  
    17    9   16 1  
    18   10   17 1  
# Name:          frag2-034-2213/319335 -- energy: -0.068621
# Creation time: Sat Jun  5 12:53:31 2010


@<TRIPOS>MOLECULE
frag2-034-2213/319335 -- energy: -0.068621
   17    18     1     1     1
SMALL
USER_CHARGES


@<TRIPOS>ATOM
      1 C1          0.0050    0.8280    0.0790 C.ar       1 <1>        0.000
      2 C2          0.1299   -0.5605   -0.0442 C.ar       1 <1>        0.000
      3 C3         -1.2579    1.4191    0.0508 C.ar       1 <1>        0.000
      4 N1          1.1156    1.5896    0.2260 N.ar       1 <1>        0.000
      5 C4          1.4078   -1.1325   -0.0124 C.ar       1 <1>        0.000
      6 C5         -1.0246   -1.3426   -0.1962 C.ar       1 <1>        0.000
      7 C6         -2.3981    0.6387   -0.1006 C.ar       1 <1>        0.000
      8 C8          2.3562    1.0562    0.2577 C.ar       1 <1>        0.000
      9 C9          2.5240   -0.3168    0.1387 C.ar       1 <1>        0.000
     10 C10        -2.2823   -0.7416   -0.2235 C.ar       1 <1>        0.000
     11 H          -1.3514    2.5007    0.1482 H.spc      1 <1>        0.000
     12 H           1.5270   -2.2119   -0.1056 H.spc      1 <1>        0.000
     13 H          -0.9381   -2.4248   -0.2934 H.spc      1 <1>        0.000
     14 H          -3.3816    1.1080   -0.1230 H.spc      1 <1>        0.000
     15 H           3.2251    1.7034    0.3767 H.spc      1 <1>        0.000
     16 H           3.5230   -0.7521    0.1635 H.spc      1 <1>        0.000
     17 H          -3.1760   -1.3544   -0.3413 H.spc      1 <1>        0.000
@<TRIPOS>BOND
     1    6   10 ar 
     2    8    9 ar 
     3    7   10 ar 
     4    1    3 ar 
     5    1    2 ar 
     6    1    4 ar 
     7    2    5 ar 
     8    2    6 ar 
     9    3    7 ar 
    10    4    8 ar 
    11    5    9 ar 
    12    3   11 1  
    13    5   12 1  
    14    6   13 1  
    15    7   14 1  
    16    8   15 1  
    17    9   16 1  
    18   10   17 1  
