#      Rotatable Fragment
#      Build by yxyuan
#
# Name:          frag5-607-34/41815
# Creation time: Sat Jun  5 12:52:58 2010


@<TRIPOS>MOLECULE
frag5-607-34/41815
   18    18     1     1     1
SMALL
USER_CHARGES


@<TRIPOS>ATOM
      1 N1         -0.8314    2.5968    2.3858 N.am       1 <1>        0.000
      2 C22        -0.2909    1.8482    1.4031 C.2        1 <1>        0.000
      3 O7         -0.3697    0.6290    1.4141 O.2        1 <1>        0.000
      4 C23         0.4335    2.4977    0.2359 C.ar       1 <1>        0.000
      5 C24         1.3107    3.5614    0.4924 C.ar       1 <1>        0.000
      6 C25         2.0181    4.1632   -0.5757 C.ar       1 <1>        0.000
      7 C26         1.8168    3.6905   -1.8799 C.ar       1 <1>        0.000
      8 C27         0.9322    2.6474   -2.1315 C.ar       1 <1>        0.000
      9 C28         0.2325    2.0600   -1.0749 C.ar       1 <1>        0.000
     10 O8          2.8874    5.1998   -0.2958 O.3        1 <1>        0.000
     11 O9          1.4935    4.0170    1.7847 O.3        1 <1>        0.000
     12 H          -1.3191    2.1466    3.1603 H.spc      1 <1>        0.000
     13 H          -0.7526    3.6133    2.3546 H.spc      1 <1>        0.000
     14 H           2.3605    4.1463   -2.7074 H.spc      1 <1>        0.000
     15 H           0.7853    2.2892   -3.1504 H.spc      1 <1>        0.000
     16 H          -0.4747    1.2550   -1.2747 H.spc      1 <1>        0.000
     17 H           2.8837    5.3729    0.6485 H.spc      1 <1>        0.000
     18 H           2.1215    4.7431    1.7810 H.spc      1 <1>        0.000
@<TRIPOS>BOND
     1    7    8 ar 
     2    5   11 1  
     3    6   10 1  
     4    8    9 ar 
     5    6    7 ar 
     6    1    2 am 
     7    2    3 2  
     8    2    4 1  
     9    4    5 ar 
    10    4    9 ar 
    11    5    6 ar 
    12    1   12 1  
    13    1   13 1  
    14    7   14 1  
    15    8   15 1  
    16    9   16 1  
    17   10   17 1  
    18   11   18 1  
# Name:          frag5-607-34/41815
# Creation time: Sat Jun  5 12:52:58 2010


@<TRIPOS>MOLECULE
frag5-607-34/41815
   18    18     1     1     1
SMALL
USER_CHARGES


@<TRIPOS>ATOM
      1 N1         -0.4465    0.5538    1.5130 N.am       1 <1>        0.000
      2 C22        -0.3101    1.8894    1.4211 C.2        1 <1>        0.000
      3 O7         -0.7640    2.6407    2.2733 O.2        1 <1>        0.000
      4 C23         0.4245    2.5146    0.2452 C.ar       1 <1>        0.000
      5 C24         1.3130    3.5748    0.4926 C.ar       1 <1>        0.000
      6 C25         2.0299    4.1550   -0.5835 C.ar       1 <1>        0.000
      7 C26         1.8252    3.6628   -1.8811 C.ar       1 <1>        0.000
      8 C27         0.9321    2.6261   -2.1208 C.ar       1 <1>        0.000
      9 C28         0.2232    2.0609   -1.0580 C.ar       1 <1>        0.000
     10 O8          2.9063    5.1841   -0.3173 O.3        1 <1>        0.000
     11 O9          1.4992    4.0488    1.7737 O.3        1 <1>        0.000
     12 H          -0.9382    0.1448    2.3076 H.spc      1 <1>        0.000
     13 H          -0.0582   -0.0496    0.7881 H.spc      1 <1>        0.000
     14 H           2.3754    4.1005   -2.7141 H.spc      1 <1>        0.000
     15 H           0.7849    2.2548   -3.1350 H.spc      1 <1>        0.000
     16 H          -0.4916    1.2604   -1.2485 H.spc      1 <1>        0.000
     17 H           2.9019    5.3712    0.6243 H.spc      1 <1>        0.000
     18 H           2.1349    4.7680    1.7584 H.spc      1 <1>        0.000
@<TRIPOS>BOND
     1    7    8 ar 
     2    5   11 1  
     3    6   10 1  
     4    8    9 ar 
     5    6    7 ar 
     6    1    2 am 
     7    2    3 2  
     8    2    4 1  
     9    4    5 ar 
    10    4    9 ar 
    11    5    6 ar 
    12    1   12 1  
    13    1   13 1  
    14    7   14 1  
    15    8   15 1  
    16    9   16 1  
    17   10   17 1  
    18   11   18 1  
# Name:          frag5-607-34/41815
# Creation time: Sat Jun  5 12:52:58 2010


@<TRIPOS>MOLECULE
frag5-607-34/41815
   18    18     1     1     1
SMALL
USER_CHARGES


@<TRIPOS>ATOM
      1 N1          0.2266    1.8341    2.6458 N.am       1 <1>        0.000
      2 C22        -0.2936    1.8482    1.4014 C.2        1 <1>        0.000
      3 O7         -1.3916    1.3679    1.1647 O.2        1 <1>        0.000
      4 C23         0.4711    2.4663    0.2431 C.ar       1 <1>        0.000
      5 C24         1.2123    3.6350    0.4691 C.ar       1 <1>        0.000
      6 C25         1.9552    4.2128   -0.5878 C.ar       1 <1>        0.000
      7 C26         1.9243    3.6112   -1.8527 C.ar       1 <1>        0.000
      8 C27         1.1735    2.4617   -2.0769 C.ar       1 <1>        0.000
      9 C28         0.4377    1.8980   -1.0322 C.ar       1 <1>        0.000
     10 O8          2.6903    5.3566   -0.3391 O.3        1 <1>        0.000
     11 O9          1.2270    4.2191    1.7229 O.3        1 <1>        0.000
     12 H          -0.2990    1.4161    3.4136 H.spc      1 <1>        0.000
     13 H           1.1456    2.2414    2.8191 H.spc      1 <1>        0.000
     14 H           2.4955    4.0492   -2.6712 H.spc      1 <1>        0.000
     15 H           1.1595    2.0022   -3.0652 H.spc      1 <1>        0.000
     16 H          -0.1664    1.0090   -1.2133 H.spc      1 <1>        0.000
     17 H           2.5828    5.6111    0.5803 H.spc      1 <1>        0.000
     18 H           1.7788    5.0044    1.7024 H.spc      1 <1>        0.000
@<TRIPOS>BOND
     1    7    8 ar 
     2    5   11 1  
     3    6   10 1  
     4    8    9 ar 
     5    6    7 ar 
     6    1    2 am 
     7    2    3 2  
     8    2    4 1  
     9    4    5 ar 
    10    4    9 ar 
    11    5    6 ar 
    12    1   12 1  
    13    1   13 1  
    14    7   14 1  
    15    8   15 1  
    16    9   16 1  
    17   10   17 1  
    18   11   18 1  
# Name:          frag5-607-34/41815
# Creation time: Sat Jun  5 12:52:58 2010


@<TRIPOS>MOLECULE
frag5-607-34/41815
   18    18     1     1     1
SMALL
USER_CHARGES


@<TRIPOS>ATOM
      1 N1         -1.6486    1.8093    1.4744 N.am       1 <1>        0.000
      2 C22        -0.3033    1.8854    1.4211 C.2        1 <1>        0.000
      3 O7          0.3961    1.4186    2.3080 O.2        1 <1>        0.000
      4 C23         0.3914    2.5497    0.2450 C.ar       1 <1>        0.000
      5 C24         1.4067    3.4825    0.4999 C.ar       1 <1>        0.000
      6 C25         2.0877    4.0944   -0.5806 C.ar       1 <1>        0.000
      7 C26         1.7235    3.7634   -1.8920 C.ar       1 <1>        0.000
      8 C27         0.7043    2.8496   -2.1398 C.ar       1 <1>        0.000
      9 C28         0.0306    2.2537   -1.0711 C.ar       1 <1>        0.000
     10 O8          3.0941    5.0013   -0.3070 O.3        1 <1>        0.000
     11 O9          1.7500    3.8030    1.8003 O.3        1 <1>        0.000
     12 H          -2.1027    1.3549    2.2667 H.spc      1 <1>        0.000
     13 H          -2.2121    2.2061    0.7224 H.spc      1 <1>        0.000
     14 H           2.2452    4.2277   -2.7289 H.spc      1 <1>        0.000
     15 H           0.4322    2.5993   -3.1652 H.spc      1 <1>        0.000
     16 H          -0.7817    1.5534   -1.2656 H.spc      1 <1>        0.000
     17 H           3.1921    5.0917    0.6437 H.spc      1 <1>        0.000
     18 H           2.4573    4.4521    1.7926 H.spc      1 <1>        0.000
@<TRIPOS>BOND
     1    7    8 ar 
     2    5   11 1  
     3    6   10 1  
     4    8    9 ar 
     5    6    7 ar 
     6    1    2 am 
     7    2    3 2  
     8    2    4 1  
     9    4    5 ar 
    10    4    9 ar 
    11    5    6 ar 
    12    1   12 1  
    13    1   13 1  
    14    7   14 1  
    15    8   15 1  
    16    9   16 1  
    17   10   17 1  
    18   11   18 1  
