#      Rotatable Fragment
#      Build by yxyuan
#
# Name:          frag4-424-48/48856
# Creation time: Sat Jun  5 12:52:19 2010


@<TRIPOS>MOLECULE
frag4-424-48/48856
   51    51     1     1     1
SMALL
USER_CHARGES


@<TRIPOS>ATOM
      1 S1         -0.4777    7.0931    4.5455 S.3        1 <1>        0.000
      2 S2         -2.4160    6.8885    4.0307 S.3        1 <1>        0.000
      3 C1         -2.5797    6.8950    2.2618 C.3        1 <1>        0.000
      4 C2         -3.4861    5.9145    1.5695 C.3        1 <1>        0.000
      5 C3         -3.0154    4.5061    1.5213 C.3        1 <1>        0.000
      6 N1         -3.4591    3.2988    2.0594 N.3        1 <1>        0.000
      7 C4         -3.0869    2.0075    1.5538 C.3        1 <1>        0.000
      8 C5         -1.6166    1.8331    1.3913 C.3        1 <1>        0.000
      9 C11        -0.5740    3.1109    7.1098 C.3        1 <1>        0.000
     10 N2         -0.5950    2.5473    2.0684 N.3        1 <1>        0.000
     11 C6          0.5207    1.9906    2.7478 C.3        1 <1>        0.000
     12 C7          0.1815    0.7994    3.5575 C.3        1 <1>        0.000
     13 N3          0.2234    0.5345    4.9297 N.3        1 <1>        0.000
     14 C8          1.2236    0.7395    5.9041 C.3        1 <1>        0.000
     15 C9          0.8616    0.4966    7.3252 C.3        1 <1>        0.000
     16 N4         -0.2974    0.9017    8.0003 N.3        1 <1>        0.000
     17 C10        -1.2152    1.8404    7.4930 C.3        1 <1>        0.000
     18 N5         -0.3490    3.7492    5.8827 N.3        1 <1>        0.000
     19 C12         0.5153    4.8537    5.7295 C.3        1 <1>        0.000
     20 C13         0.4566    5.5943    4.4148 C.3        1 <1>        0.000
     21 H          -1.5838    6.6373    1.9013 H.spc      1 <1>        0.000
     22 H          -3.0191    7.8672    2.0387 H.spc      1 <1>        0.000
     23 H          -3.5588    6.2465    0.5338 H.spc      1 <1>        0.000
     24 H          -4.4156    5.9052    2.1388 H.spc      1 <1>        0.000
     25 H          -3.2307    4.3019    0.4725 H.spc      1 <1>        0.000
     26 H          -2.1079    4.6209    2.1141 H.spc      1 <1>        0.000
     27 H          -3.0444    3.3028    2.9913 H.spc      1 <1>        0.000
     28 H          -3.4270    1.2636    2.2742 H.spc      1 <1>        0.000
     29 H          -3.5402    1.8988    0.5685 H.spc      1 <1>        0.000
     30 H          -1.4723    0.8250    1.7800 H.spc      1 <1>        0.000
     31 H          -1.4700    2.1647    0.3634 H.spc      1 <1>        0.000
     32 H          -1.3056    3.8022    7.5281 H.spc      1 <1>        0.000
     33 H           0.4568    2.8628    7.3626 H.spc      1 <1>        0.000
     34 H          -0.1422    3.0386    1.2977 H.spc      1 <1>        0.000
     35 H           1.2433    1.6799    1.9932 H.spc      1 <1>        0.000
     36 H           0.9044    2.7514    3.4275 H.spc      1 <1>        0.000
     37 H          -0.8989    0.7942    3.4133 H.spc      1 <1>        0.000
     38 H           0.9794    0.1337    3.2284 H.spc      1 <1>        0.000
     39 H          -0.4666    1.2128    5.2525 H.spc      1 <1>        0.000
     40 H           2.0075    0.0177    5.6747 H.spc      1 <1>        0.000
     41 H           1.4777    1.7978    5.8440 H.spc      1 <1>        0.000
     42 H           0.7386   -0.5864    7.3283 H.spc      1 <1>        0.000
     43 H           1.6208    1.0864    7.8390 H.spc      1 <1>        0.000
     44 H          -0.8487    0.0442    8.0356 H.spc      1 <1>        0.000
     45 H          -1.6728    1.4133    6.6006 H.spc      1 <1>        0.000
     46 H          -1.9426    2.0548    8.2759 H.spc      1 <1>        0.000
     47 H           0.1044    3.0242    5.3266 H.spc      1 <1>        0.000
     48 H           0.2146    5.5742    6.4902 H.spc      1 <1>        0.000
     49 H           1.5262    4.4520    5.7995 H.spc      1 <1>        0.000
     50 H           1.4743    5.8496    4.1196 H.spc      1 <1>        0.000
     51 H          -0.0285    4.9511    3.6806 H.spc      1 <1>        0.000
@<TRIPOS>BOND
     1    1   20 1  
     2    1    2 1  
     3    2    3 1  
     4    3    4 1  
     5   19   20 1  
     6   18   19 1  
     7    9   18 1  
     8   17    9 1  
     9   16   17 1  
    10   15   16 1  
    11   14   15 1  
    12   13   14 1  
    13   12   13 1  
    14   11   12 1  
    15   10   11 1  
    16    8   10 1  
    17    7    8 1  
    18    6    7 1  
    19    5    6 1  
    20    4    5 1  
    21    3   21 1  
    22    3   22 1  
    23    4   23 1  
    24    4   24 1  
    25    5   25 1  
    26    5   26 1  
    27    6   27 1  
    28    7   28 1  
    29    7   29 1  
    30    8   30 1  
    31    8   31 1  
    32    9   32 1  
    33    9   33 1  
    34   10   34 1  
    35   11   35 1  
    36   11   36 1  
    37   12   37 1  
    38   12   38 1  
    39   13   39 1  
    40   14   40 1  
    41   14   41 1  
    42   15   42 1  
    43   15   43 1  
    44   16   44 1  
    45   17   45 1  
    46   17   46 1  
    47   18   47 1  
    48   19   48 1  
    49   19   49 1  
    50   20   50 1  
    51   20   51 1  
# Name:          frag4-424-48/48856
# Creation time: Sat Jun  5 12:52:19 2010


@<TRIPOS>MOLECULE
frag4-424-48/48856
   51    51     1     1     1
SMALL
USER_CHARGES


@<TRIPOS>ATOM
      1 S1         -2.6263    5.8967    5.3733 S.3        1 <1>        0.000
      2 S2         -1.1835    6.6025    4.1449 S.3        1 <1>        0.000
      3 C1         -0.7758    5.5167    2.7917 C.3        1 <1>        0.000
      4 C2         -1.5825    5.7927    1.5473 C.3        1 <1>        0.000
      5 C3         -1.3572    4.7617    0.4929 C.3        1 <1>        0.000
      6 N1         -1.9782    3.5372    0.4926 N.3        1 <1>        0.000
      7 C4         -1.8826    2.2684   -0.1786 C.3        1 <1>        0.000
      8 C5         -2.7651    1.2293    0.4473 C.3        1 <1>        0.000
      9 C11         0.6373    3.4675    8.6447 C.3        1 <1>        0.000
     10 N2         -2.8777    0.9224    1.8202 N.3        1 <1>        0.000
     11 C6         -1.8701    1.2725    2.7493 C.3        1 <1>        0.000
     12 C7         -1.8578    1.0740    4.2146 C.3        1 <1>        0.000
     13 N3         -0.7445    1.2389    5.0791 N.3        1 <1>        0.000
     14 C8          0.5780    1.5006    4.6146 C.3        1 <1>        0.000
     15 C9          1.5663    2.2294    5.4737 C.3        1 <1>        0.000
     16 N4          1.7026    2.2185    6.8504 N.3        1 <1>        0.000
     17 C10         1.8006    3.3098    7.7376 C.3        1 <1>        0.000
     18 N5         -0.7064    3.7241    8.2777 N.3        1 <1>        0.000
     19 C12        -1.0373    4.6300    7.2240 C.3        1 <1>        0.000
     20 C13        -2.2253    4.4018    6.2990 C.3        1 <1>        0.000
     21 H          -0.9941    4.4968    3.1083 H.spc      1 <1>        0.000
     22 H           0.2747    5.6731    2.5467 H.spc      1 <1>        0.000
     23 H          -1.2739    6.7594    1.1493 H.spc      1 <1>        0.000
     24 H          -2.6386    5.7788    1.8165 H.spc      1 <1>        0.000
     25 H          -1.7510    5.2377   -0.4051 H.spc      1 <1>        0.000
     26 H          -0.3057    4.5045    0.6207 H.spc      1 <1>        0.000
     27 H          -1.6346    3.2236    1.4004 H.spc      1 <1>        0.000
     28 H          -2.2008    2.4062   -1.2120 H.spc      1 <1>        0.000
     29 H          -0.8507    1.9242   -0.1086 H.spc      1 <1>        0.000
     30 H          -3.7560    1.6300    0.2335 H.spc      1 <1>        0.000
     31 H          -2.3285    0.3106    0.0556 H.spc      1 <1>        0.000
     32 H           0.5574    2.4665    9.0686 H.spc      1 <1>        0.000
     33 H           0.8966    4.3869    9.1697 H.spc      1 <1>        0.000
     34 H          -3.6845    1.4680    2.1233 H.spc      1 <1>        0.000
     35 H          -1.0676    0.6008    2.4445 H.spc      1 <1>        0.000
     36 H          -1.9053    2.3603    2.6899 H.spc      1 <1>        0.000
     37 H          -2.5192    1.8723    4.5513 H.spc      1 <1>        0.000
     38 H          -2.0425    0.0027    4.2940 H.spc      1 <1>        0.000
     39 H          -0.9784    2.0872    5.5949 H.spc      1 <1>        0.000
     40 H           1.0156    0.5101    4.4895 H.spc      1 <1>        0.000
     41 H           0.4326    2.1610    3.7597 H.spc      1 <1>        0.000
     42 H           2.4922    1.7371    5.1764 H.spc      1 <1>        0.000
     43 H           1.2518    3.2603    5.3112 H.spc      1 <1>        0.000
     44 H           0.8019    1.8282    7.1277 H.spc      1 <1>        0.000
     45 H           2.6745    3.1348    8.3651 H.spc      1 <1>        0.000
     46 H           1.8572    4.2127    7.1295 H.spc      1 <1>        0.000
     47 H          -1.0400    2.8229    7.9355 H.spc      1 <1>        0.000
     48 H          -1.2980    5.5480    7.7506 H.spc      1 <1>        0.000
     49 H          -0.1788    4.5666    6.5554 H.spc      1 <1>        0.000
     50 H          -1.9696    3.6125    5.5921 H.spc      1 <1>        0.000
     51 H          -3.0889    4.1242    6.9033 H.spc      1 <1>        0.000
@<TRIPOS>BOND
     1    1   20 1  
     2    1    2 1  
     3    2    3 1  
     4    3    4 1  
     5   19   20 1  
     6   18   19 1  
     7    9   18 1  
     8   17    9 1  
     9   16   17 1  
    10   15   16 1  
    11   14   15 1  
    12   13   14 1  
    13   12   13 1  
    14   11   12 1  
    15   10   11 1  
    16    8   10 1  
    17    7    8 1  
    18    6    7 1  
    19    5    6 1  
    20    4    5 1  
    21    3   21 1  
    22    3   22 1  
    23    4   23 1  
    24    4   24 1  
    25    5   25 1  
    26    5   26 1  
    27    6   27 1  
    28    7   28 1  
    29    7   29 1  
    30    8   30 1  
    31    8   31 1  
    32    9   32 1  
    33    9   33 1  
    34   10   34 1  
    35   11   35 1  
    36   11   36 1  
    37   12   37 1  
    38   12   38 1  
    39   13   39 1  
    40   14   40 1  
    41   14   41 1  
    42   15   42 1  
    43   15   43 1  
    44   16   44 1  
    45   17   45 1  
    46   17   46 1  
    47   18   47 1  
    48   19   48 1  
    49   19   49 1  
    50   20   50 1  
    51   20   51 1  
# Name:          frag4-424-48/48856
# Creation time: Sat Jun  5 12:52:19 2010


@<TRIPOS>MOLECULE
frag4-424-48/48856
   51    51     1     1     1
SMALL
USER_CHARGES


@<TRIPOS>ATOM
      1 S1         -0.7652    7.2262    3.6668 S.3        1 <1>        0.000
      2 S2         -2.6630    7.7948    3.5021 S.3        1 <1>        0.000
      3 C1         -3.8263    6.6231    2.8165 C.3        1 <1>        0.000
      4 C2         -3.4115    5.2392    2.3728 C.3        1 <1>        0.000
      5 C3         -2.4158    5.0833    1.2518 C.3        1 <1>        0.000
      6 N1         -1.7678    3.8915    0.8077 N.3        1 <1>        0.000
      7 C4         -0.4891    3.4237    1.2383 C.3        1 <1>        0.000
      8 C5         -0.5595    2.0944    1.8698 C.3        1 <1>        0.000
      9 C11         0.1886    3.4716    6.6426 C.3        1 <1>        0.000
     10 N2         -1.7192    1.5756    2.4429 N.3        1 <1>        0.000
     11 C6         -1.9053    0.4535    3.2599 C.3        1 <1>        0.000
     12 C7         -1.0229    0.4052    4.4373 C.3        1 <1>        0.000
     13 N3          0.1172   -0.3612    4.6953 N.3        1 <1>        0.000
     14 C8          0.3824   -0.9966    5.9269 C.3        1 <1>        0.000
     15 C9          0.7227   -0.0755    7.0408 C.3        1 <1>        0.000
     16 N4          1.2000    1.2382    6.8847 N.3        1 <1>        0.000
     17 C10         0.8247    2.4430    7.5197 C.3        1 <1>        0.000
     18 N5         -0.6882    4.5429    6.8945 N.3        1 <1>        0.000
     19 C12        -1.0837    5.6442    6.0663 C.3        1 <1>        0.000
     20 C13        -0.3035    5.8775    4.7596 C.3        1 <1>        0.000
     21 H          -4.1513    7.0995    1.8916 H.spc      1 <1>        0.000
     22 H          -4.5098    6.4304    3.6434 H.spc      1 <1>        0.000
     23 H          -4.3270    4.7855    1.9933 H.spc      1 <1>        0.000
     24 H          -2.9168    4.8076    3.2429 H.spc      1 <1>        0.000
     25 H          -3.0370    5.3173    0.3872 H.spc      1 <1>        0.000
     26 H          -1.5695    5.6466    1.6449 H.spc      1 <1>        0.000
     27 H          -2.3895    3.1669    1.1667 H.spc      1 <1>        0.000
     28 H           0.1540    3.3465    0.3616 H.spc      1 <1>        0.000
     29 H          -0.1041    4.1273    1.9764 H.spc      1 <1>        0.000
     30 H          -0.3755    1.4176    1.0354 H.spc      1 <1>        0.000
     31 H           0.1114    2.1935    2.7231 H.spc      1 <1>        0.000
     32 H           1.0785    4.0384    6.3689 H.spc      1 <1>        0.000
     33 H          -0.4862    2.8254    6.0812 H.spc      1 <1>        0.000
     34 H          -1.9391    2.3186    3.1062 H.spc      1 <1>        0.000
     35 H          -2.9299    0.4935    3.6296 H.spc      1 <1>        0.000
     36 H          -1.6789   -0.4241    2.6543 H.spc      1 <1>        0.000
     37 H          -0.5737    1.3965    4.3767 H.spc      1 <1>        0.000
     38 H          -1.7078   -0.0242    5.1684 H.spc      1 <1>        0.000
     39 H           0.0067   -1.1487    4.0565 H.spc      1 <1>        0.000
     40 H          -0.5287   -1.5204    6.2159 H.spc      1 <1>        0.000
     41 H           1.2486   -1.6398    5.7716 H.spc      1 <1>        0.000
     42 H          -0.2460    0.0841    7.5143 H.spc      1 <1>        0.000
     43 H           1.5713   -0.5771    7.5059 H.spc      1 <1>        0.000
     44 H           2.1418    1.1282    7.2605 H.spc      1 <1>        0.000
     45 H           0.0802    2.1759    8.2697 H.spc      1 <1>        0.000
     46 H           1.7438    2.8892    7.8996 H.spc      1 <1>        0.000
     47 H          -1.5726    4.0379    6.9513 H.spc      1 <1>        0.000
     48 H          -2.1060    5.4241    5.7589 H.spc      1 <1>        0.000
     49 H          -0.9144    6.5365    6.6690 H.spc      1 <1>        0.000
     50 H           0.7068    6.1246    5.0858 H.spc      1 <1>        0.000
     51 H          -0.4813    4.9771    4.1715 H.spc      1 <1>        0.000
@<TRIPOS>BOND
     1    1   20 1  
     2    1    2 1  
     3    2    3 1  
     4    3    4 1  
     5   19   20 1  
     6   18   19 1  
     7    9   18 1  
     8   17    9 1  
     9   16   17 1  
    10   15   16 1  
    11   14   15 1  
    12   13   14 1  
    13   12   13 1  
    14   11   12 1  
    15   10   11 1  
    16    8   10 1  
    17    7    8 1  
    18    6    7 1  
    19    5    6 1  
    20    4    5 1  
    21    3   21 1  
    22    3   22 1  
    23    4   23 1  
    24    4   24 1  
    25    5   25 1  
    26    5   26 1  
    27    6   27 1  
    28    7   28 1  
    29    7   29 1  
    30    8   30 1  
    31    8   31 1  
    32    9   32 1  
    33    9   33 1  
    34   10   34 1  
    35   11   35 1  
    36   11   36 1  
    37   12   37 1  
    38   12   38 1  
    39   13   39 1  
    40   14   40 1  
    41   14   41 1  
    42   15   42 1  
    43   15   43 1  
    44   16   44 1  
    45   17   45 1  
    46   17   46 1  
    47   18   47 1  
    48   19   48 1  
    49   19   49 1  
    50   20   50 1  
    51   20   51 1  
# Name:          frag4-424-48/48856
# Creation time: Sat Jun  5 12:52:19 2010


@<TRIPOS>MOLECULE
frag4-424-48/48856
   51    51     1     1     1
SMALL
USER_CHARGES


@<TRIPOS>ATOM
      1 S1         -2.3569    6.9192    5.6479 S.3        1 <1>        0.000
      2 S2         -2.6760    6.0322    3.8695 S.3        1 <1>        0.000
      3 C1         -1.1453    5.9947    2.9540 C.3        1 <1>        0.000
      4 C2         -1.0395    5.4937    1.5402 C.3        1 <1>        0.000
      5 C3         -1.3493    4.0651    1.2305 C.3        1 <1>        0.000
      6 N1         -2.3121    3.6189    0.3114 N.3        1 <1>        0.000
      7 C4         -2.6733    2.3496   -0.1791 C.3        1 <1>        0.000
      8 C5         -3.1560    1.3095    0.7637 C.3        1 <1>        0.000
      9 C11         0.3256    3.8666    8.3785 C.3        1 <1>        0.000
     10 N2         -2.4196    0.3313    1.4564 N.3        1 <1>        0.000
     11 C6         -1.8145    0.7158    2.6713 C.3        1 <1>        0.000
     12 C7         -1.3815   -0.1401    3.7843 C.3        1 <1>        0.000
     13 N3         -0.2788    0.0776    4.6553 N.3        1 <1>        0.000
     14 C8          0.8691    0.8628    4.4748 C.3        1 <1>        0.000
     15 C9          1.3849    1.6083    5.6551 C.3        1 <1>        0.000
     16 N4          0.6832    2.0032    6.8002 N.3        1 <1>        0.000
     17 C10         1.1534    2.7296    7.9214 C.3        1 <1>        0.000
     18 N5          0.4267    5.2286    8.0542 N.3        1 <1>        0.000
     19 C12        -0.6334    6.1405    7.7953 C.3        1 <1>        0.000
     20 C13        -0.7922    6.3875    6.3111 C.3        1 <1>        0.000
     21 H          -0.5423    5.2795    3.5135 H.spc      1 <1>        0.000
     22 H          -0.8897    7.0501    2.8600 H.spc      1 <1>        0.000
     23 H           0.0153    5.6051    1.2892 H.spc      1 <1>        0.000
     24 H          -1.7917    6.0613    0.9923 H.spc      1 <1>        0.000
     25 H          -0.4211    3.7249    0.7714 H.spc      1 <1>        0.000
     26 H          -1.7560    3.7096    2.1773 H.spc      1 <1>        0.000
     27 H          -3.1528    3.8246    0.8512 H.spc      1 <1>        0.000
     28 H          -3.5207    2.5393   -0.8380 H.spc      1 <1>        0.000
     29 H          -1.7512    1.9409   -0.5923 H.spc      1 <1>        0.000
     30 H          -3.4961    1.9305    1.5924 H.spc      1 <1>        0.000
     31 H          -3.7409    0.6827    0.0905 H.spc      1 <1>        0.000
     32 H          -0.6273    3.6204    7.9101 H.spc      1 <1>        0.000
     33 H           0.5899    3.8933    9.4356 H.spc      1 <1>        0.000
     34 H          -3.0903   -0.3973    1.7007 H.spc      1 <1>        0.000
     35 H          -0.8559    1.0929    2.3150 H.spc      1 <1>        0.000
     36 H          -2.6268    1.2708    3.1407 H.spc      1 <1>        0.000
     37 H          -2.2221   -0.0430    4.4714 H.spc      1 <1>        0.000
     38 H          -1.0649   -1.0390    3.2553 H.spc      1 <1>        0.000
     39 H          -0.7377    0.5944    5.4055 H.spc      1 <1>        0.000
     40 H           1.6607    0.1659    4.1994 H.spc      1 <1>        0.000
     41 H           0.5919    1.6240    3.7455 H.spc      1 <1>        0.000
     42 H           2.0785    0.8801    6.0756 H.spc      1 <1>        0.000
     43 H           1.6155    2.5750    5.2074 H.spc      1 <1>        0.000
     44 H           0.0269    2.6736    6.4001 H.spc      1 <1>        0.000
     45 H           1.1702    2.0213    8.7497 H.spc      1 <1>        0.000
     46 H           2.1086    3.1590    7.6191 H.spc      1 <1>        0.000
     47 H           0.8107    5.6106    8.9185 H.spc      1 <1>        0.000
     48 H          -1.5605    5.7141    8.1783 H.spc      1 <1>        0.000
     49 H          -0.4044    7.0879    8.2832 H.spc      1 <1>        0.000
     50 H          -0.1159    7.2164    6.1024 H.spc      1 <1>        0.000
     51 H          -0.6251    5.4110    5.8565 H.spc      1 <1>        0.000
@<TRIPOS>BOND
     1    1   20 1  
     2    1    2 1  
     3    2    3 1  
     4    3    4 1  
     5   19   20 1  
     6   18   19 1  
     7    9   18 1  
     8   17    9 1  
     9   16   17 1  
    10   15   16 1  
    11   14   15 1  
    12   13   14 1  
    13   12   13 1  
    14   11   12 1  
    15   10   11 1  
    16    8   10 1  
    17    7    8 1  
    18    6    7 1  
    19    5    6 1  
    20    4    5 1  
    21    3   21 1  
    22    3   22 1  
    23    4   23 1  
    24    4   24 1  
    25    5   25 1  
    26    5   26 1  
    27    6   27 1  
    28    7   28 1  
    29    7   29 1  
    30    8   30 1  
    31    8   31 1  
    32    9   32 1  
    33    9   33 1  
    34   10   34 1  
    35   11   35 1  
    36   11   36 1  
    37   12   37 1  
    38   12   38 1  
    39   13   39 1  
    40   14   40 1  
    41   14   41 1  
    42   15   42 1  
    43   15   43 1  
    44   16   44 1  
    45   17   45 1  
    46   17   46 1  
    47   18   47 1  
    48   19   48 1  
    49   19   49 1  
    50   20   50 1  
    51   20   51 1  
# Name:          frag4-424-48/48856
# Creation time: Sat Jun  5 12:52:19 2010


@<TRIPOS>MOLECULE
frag4-424-48/48856
   51    51     1     1     1
SMALL
USER_CHARGES


@<TRIPOS>ATOM
      1 S1         -1.8170    8.5149    5.2334 S.3        1 <1>        0.000
      2 S2         -2.4778    7.6017    3.5772 S.3        1 <1>        0.000
      3 C1         -1.2190    6.7494    2.6535 C.3        1 <1>        0.000
      4 C2         -1.3884    5.2803    2.3837 C.3        1 <1>        0.000
      5 C3         -2.6265    4.7817    1.7424 C.3        1 <1>        0.000
      6 N1         -2.8187    3.4837    1.2214 N.3        1 <1>        0.000
      7 C4         -1.9672    2.4086    1.5043 C.3        1 <1>        0.000
      8 C5         -2.5443    1.0695    1.7945 C.3        1 <1>        0.000
      9 C11        -0.6694    3.7764    7.1201 C.3        1 <1>        0.000
     10 N2         -1.8694   -0.0712    2.2680 N.3        1 <1>        0.000
     11 C6         -0.4999   -0.3113    2.0142 C.3        1 <1>        0.000
     12 C7          0.3484   -1.1611    2.8801 C.3        1 <1>        0.000
     13 N3          0.8668   -0.8129    4.1361 N.3        1 <1>        0.000
     14 C8          0.2573    0.1787    4.9312 C.3        1 <1>        0.000
     15 C9          0.8284    0.6494    6.1976 C.3        1 <1>        0.000
     16 N4          0.9247    1.9815    6.6145 N.3        1 <1>        0.000
     17 C10         0.1464    2.6366    7.5880 C.3        1 <1>        0.000
     18 N5         -0.4317    5.1583    7.1201 N.3        1 <1>        0.000
     19 C12        -1.3818    6.1478    6.7346 C.3        1 <1>        0.000
     20 C13        -0.8463    7.5328    6.3812 C.3        1 <1>        0.000
     21 H          -0.3207    6.8223    3.2665 H.spc      1 <1>        0.000
     22 H          -1.2231    7.2195    1.6701 H.spc      1 <1>        0.000
     23 H          -1.3900    4.8207    3.3721 H.spc      1 <1>        0.000
     24 H          -0.5983    5.0417    1.6718 H.spc      1 <1>        0.000
     25 H          -3.3350    4.8013    2.5705 H.spc      1 <1>        0.000
     26 H          -2.6810    5.3972    0.8445 H.spc      1 <1>        0.000
     27 H          -3.7017    3.1950    1.6425 H.spc      1 <1>        0.000
     28 H          -1.3894    2.2673    0.5909 H.spc      1 <1>        0.000
     29 H          -1.4591    2.6948    2.4252 H.spc      1 <1>        0.000
     30 H          -3.1958    1.2969    2.6383 H.spc      1 <1>        0.000
     31 H          -2.8386    0.7438    0.7968 H.spc      1 <1>        0.000
     32 H          -0.6461    3.5880    6.0468 H.spc      1 <1>        0.000
     33 H          -1.4792    3.7313    7.8483 H.spc      1 <1>        0.000
     34 H          -1.9030    0.0412    3.2812 H.spc      1 <1>        0.000
     35 H          -0.5161   -0.8585    1.0717 H.spc      1 <1>        0.000
     36 H          -0.0521    0.6764    2.1235 H.spc      1 <1>        0.000
     37 H          -0.3372   -1.9680    3.1390 H.spc      1 <1>        0.000
     38 H           1.2557   -1.2505    2.2827 H.spc      1 <1>        0.000
     39 H           0.7659   -1.6651    4.6875 H.spc      1 <1>        0.000
     40 H           0.2963    1.0643    4.2969 H.spc      1 <1>        0.000
     41 H          -0.6774   -0.2899    5.2393 H.spc      1 <1>        0.000
     42 H           0.1292    0.2373    6.9252 H.spc      1 <1>        0.000
     43 H           1.8770    0.3735    6.0863 H.spc      1 <1>        0.000
     44 H           1.8425    1.9843    7.0594 H.spc      1 <1>        0.000
     45 H          -0.5582    1.8938    7.9620 H.spc      1 <1>        0.000
     46 H           0.8502    3.0458    8.3127 H.spc      1 <1>        0.000
     47 H          -0.2989    5.3573    8.1116 H.spc      1 <1>        0.000
     48 H          -1.8476    5.7706    5.8242 H.spc      1 <1>        0.000
     49 H          -2.0251    6.2929    7.6024 H.spc      1 <1>        0.000
     50 H          -0.8337    8.0939    7.3156 H.spc      1 <1>        0.000
     51 H           0.1127    7.3646    5.8912 H.spc      1 <1>        0.000
@<TRIPOS>BOND
     1    1   20 1  
     2    1    2 1  
     3    2    3 1  
     4    3    4 1  
     5   19   20 1  
     6   18   19 1  
     7    9   18 1  
     8   17    9 1  
     9   16   17 1  
    10   15   16 1  
    11   14   15 1  
    12   13   14 1  
    13   12   13 1  
    14   11   12 1  
    15   10   11 1  
    16    8   10 1  
    17    7    8 1  
    18    6    7 1  
    19    5    6 1  
    20    4    5 1  
    21    3   21 1  
    22    3   22 1  
    23    4   23 1  
    24    4   24 1  
    25    5   25 1  
    26    5   26 1  
    27    6   27 1  
    28    7   28 1  
    29    7   29 1  
    30    8   30 1  
    31    8   31 1  
    32    9   32 1  
    33    9   33 1  
    34   10   34 1  
    35   11   35 1  
    36   11   36 1  
    37   12   37 1  
    38   12   38 1  
    39   13   39 1  
    40   14   40 1  
    41   14   41 1  
    42   15   42 1  
    43   15   43 1  
    44   16   44 1  
    45   17   45 1  
    46   17   46 1  
    47   18   47 1  
    48   19   48 1  
    49   19   49 1  
    50   20   50 1  
    51   20   51 1  
# Name:          frag4-424-48/48856
# Creation time: Sat Jun  5 12:52:19 2010


@<TRIPOS>MOLECULE
frag4-424-48/48856
   51    51     1     1     1
SMALL
USER_CHARGES


@<TRIPOS>ATOM
      1 S1          0.1976    6.9933    4.2450 S.3        1 <1>        0.000
      2 S2         -1.5985    7.1051    3.3314 S.3        1 <1>        0.000
      3 C1         -2.3380    5.4898    3.1333 C.3        1 <1>        0.000
      4 C2         -3.7234    5.2618    2.5589 C.3        1 <1>        0.000
      5 C3         -4.0709    3.8078    2.5800 C.3        1 <1>        0.000
      6 N1         -3.2131    2.6944    2.6083 N.3        1 <1>        0.000
      7 C4         -2.4469    2.0949    1.5770 C.3        1 <1>        0.000
      8 C5         -0.9998    2.4335    1.4887 C.3        1 <1>        0.000
      9 C11        -0.0891    3.5206    7.2878 C.3        1 <1>        0.000
     10 N2          0.1497    1.8307    2.0396 N.3        1 <1>        0.000
     11 C6          0.3015    0.4931    2.5022 C.3        1 <1>        0.000
     12 C7          1.0709    0.1899    3.7370 C.3        1 <1>        0.000
     13 N3          0.5719   -0.2645    4.9813 N.3        1 <1>        0.000
     14 C8         -0.7939   -0.0868    5.3612 C.3        1 <1>        0.000
     15 C9         -1.2537    1.3299    5.3207 C.3        1 <1>        0.000
     16 N4         -0.4625    2.4625    5.0644 N.3        1 <1>        0.000
     17 C10         0.4711    3.0391    6.0093 C.3        1 <1>        0.000
     18 N5         -0.4986    4.8252    7.6321 N.3        1 <1>        0.000
     19 C12        -0.8183    5.8407    6.6717 C.3        1 <1>        0.000
     20 C13         0.3586    6.5336    5.9659 C.3        1 <1>        0.000
     21 H          -2.4421    5.1433    4.1615 H.spc      1 <1>        0.000
     22 H          -1.6894    5.0151    2.3970 H.spc      1 <1>        0.000
     23 H          -3.7395    5.6132    1.5272 H.spc      1 <1>        0.000
     24 H          -4.4494    5.8066    3.1625 H.spc      1 <1>        0.000
     25 H          -4.5407    3.7262    3.5601 H.spc      1 <1>        0.000
     26 H          -4.5195    3.6926    1.5933 H.spc      1 <1>        0.000
     27 H          -2.4648    3.0605    3.1968 H.spc      1 <1>        0.000
     28 H          -2.4800    1.0244    1.7794 H.spc      1 <1>        0.000
     29 H          -2.8842    2.4566    0.6464 H.spc      1 <1>        0.000
     30 H          -0.8289    2.2143    0.4347 H.spc      1 <1>        0.000
     31 H          -0.9998    3.3666    2.0522 H.spc      1 <1>        0.000
     32 H          -1.0436    2.9946    7.3047 H.spc      1 <1>        0.000
     33 H           0.7685    3.3935    7.9485 H.spc      1 <1>        0.000
     34 H           0.7766    1.8322    1.2350 H.spc      1 <1>        0.000
     35 H          -0.7148    0.1805    2.7419 H.spc      1 <1>        0.000
     36 H           0.8698    0.0038    1.7111 H.spc      1 <1>        0.000
     37 H           1.6535   -0.6735    3.4156 H.spc      1 <1>        0.000
     38 H           1.4369    1.1808    4.0059 H.spc      1 <1>        0.000
     39 H           0.6747   -1.2777    4.9247 H.spc      1 <1>        0.000
     40 H          -1.4029   -0.6452    4.6503 H.spc      1 <1>        0.000
     41 H          -0.8905   -0.4292    6.3915 H.spc      1 <1>        0.000
     42 H          -1.9128    1.3218    4.4526 H.spc      1 <1>        0.000
     43 H          -1.5447    1.4958    6.3580 H.spc      1 <1>        0.000
     44 H           0.1504    2.1401    4.3155 H.spc      1 <1>        0.000
     45 H           1.1664    2.2408    6.2686 H.spc      1 <1>        0.000
     46 H           0.8920    3.9160    5.5174 H.spc      1 <1>        0.000
     47 H          -1.3915    4.6662    8.0989 H.spc      1 <1>        0.000
     48 H          -1.3814    5.3382    5.8852 H.spc      1 <1>        0.000
     49 H          -1.3327    6.6239    7.2285 H.spc      1 <1>        0.000
     50 H           0.4846    7.4777    6.4959 H.spc      1 <1>        0.000
     51 H           1.1651    5.8006    5.9843 H.spc      1 <1>        0.000
@<TRIPOS>BOND
     1    1   20 1  
     2    1    2 1  
     3    2    3 1  
     4    3    4 1  
     5   19   20 1  
     6   18   19 1  
     7    9   18 1  
     8   17    9 1  
     9   16   17 1  
    10   15   16 1  
    11   14   15 1  
    12   13   14 1  
    13   12   13 1  
    14   11   12 1  
    15   10   11 1  
    16    8   10 1  
    17    7    8 1  
    18    6    7 1  
    19    5    6 1  
    20    4    5 1  
    21    3   21 1  
    22    3   22 1  
    23    4   23 1  
    24    4   24 1  
    25    5   25 1  
    26    5   26 1  
    27    6   27 1  
    28    7   28 1  
    29    7   29 1  
    30    8   30 1  
    31    8   31 1  
    32    9   32 1  
    33    9   33 1  
    34   10   34 1  
    35   11   35 1  
    36   11   36 1  
    37   12   37 1  
    38   12   38 1  
    39   13   39 1  
    40   14   40 1  
    41   14   41 1  
    42   15   42 1  
    43   15   43 1  
    44   16   44 1  
    45   17   45 1  
    46   17   46 1  
    47   18   47 1  
    48   19   48 1  
    49   19   49 1  
    50   20   50 1  
    51   20   51 1  
# Name:          frag4-424-48/48856
# Creation time: Sat Jun  5 12:52:19 2010


@<TRIPOS>MOLECULE
frag4-424-48/48856
   51    51     1     1     1
SMALL
USER_CHARGES


@<TRIPOS>ATOM
      1 S1         -1.7977    8.3058    5.2179 S.3        1 <1>        0.000
      2 S2         -2.5555    7.4576    3.5709 S.3        1 <1>        0.000
      3 C1         -2.4168    5.7083    3.5292 C.3        1 <1>        0.000
      4 C2         -1.1050    5.1674    3.0432 C.3        1 <1>        0.000
      5 C3         -1.3069    4.3629    1.8311 C.3        1 <1>        0.000
      6 N1         -1.6229    2.9953    1.8605 N.3        1 <1>        0.000
      7 C4         -2.4496    2.3939    0.8799 C.3        1 <1>        0.000
      8 C5         -2.2431    0.9642    0.6001 C.3        1 <1>        0.000
      9 C11         0.5351    3.7879    7.0006 C.3        1 <1>        0.000
     10 N2         -1.2850    0.0402    1.0230 N.3        1 <1>        0.000
     11 C6         -0.2985    0.2168    2.0132 C.3        1 <1>        0.000
     12 C7         -0.6755   -0.3656    3.3140 C.3        1 <1>        0.000
     13 N3         -1.2575    0.2459    4.4239 N.3        1 <1>        0.000
     14 C8         -0.7313    1.2717    5.2233 C.3        1 <1>        0.000
     15 C9          0.5376    1.0202    5.9429 C.3        1 <1>        0.000
     16 N4          0.9167    1.4061    7.2302 N.3        1 <1>        0.000
     17 C10         0.5307    2.6003    7.8668 C.3        1 <1>        0.000
     18 N5         -0.4417    4.7853    6.7993 N.3        1 <1>        0.000
     19 C12        -0.2162    6.0887    6.2041 C.3        1 <1>        0.000
     20 C13        -1.3021    7.1418    6.5220 C.3        1 <1>        0.000
     21 H          -3.1731    5.3567    2.8274 H.spc      1 <1>        0.000
     22 H          -2.5277    5.3667    4.5583 H.spc      1 <1>        0.000
     23 H          -0.6678    4.5397    3.8197 H.spc      1 <1>        0.000
     24 H          -0.4390    5.9990    2.8130 H.spc      1 <1>        0.000
     25 H          -2.1931    4.8113    1.3821 H.spc      1 <1>        0.000
     26 H          -0.3252    4.3792    1.3578 H.spc      1 <1>        0.000
     27 H          -0.7210    2.5382    1.7265 H.spc      1 <1>        0.000
     28 H          -3.4662    2.4733    1.2649 H.spc      1 <1>        0.000
     29 H          -2.2220    2.9108   -0.0524 H.spc      1 <1>        0.000
     30 H          -3.1142    0.5590    1.1150 H.spc      1 <1>        0.000
     31 H          -1.9668    1.0314   -0.4522 H.spc      1 <1>        0.000
     32 H           1.3087    4.3776    7.4924 H.spc      1 <1>        0.000
     33 H           0.5196    3.3081    6.0220 H.spc      1 <1>        0.000
     34 H          -1.8733   -0.6732    1.4535 H.spc      1 <1>        0.000
     35 H           0.6061   -0.2877    1.6737 H.spc      1 <1>        0.000
     36 H          -0.1612    1.2885    2.1570 H.spc      1 <1>        0.000
     37 H          -1.4831   -1.0303    3.0073 H.spc      1 <1>        0.000
     38 H           0.3083   -0.6095    3.7149 H.spc      1 <1>        0.000
     39 H          -2.0490    0.7222    3.9914 H.spc      1 <1>        0.000
     40 H          -0.5133    2.0882    4.5349 H.spc      1 <1>        0.000
     41 H          -1.4748    1.4374    6.0029 H.spc      1 <1>        0.000
     42 H           0.4861   -0.0616    6.0660 H.spc      1 <1>        0.000
     43 H           1.2275    1.6156    5.3448 H.spc      1 <1>        0.000
     44 H           0.4660    0.6976    7.8093 H.spc      1 <1>        0.000
     45 H          -0.4950    2.4605    8.2080 H.spc      1 <1>        0.000
     46 H           1.2542    2.7844    8.6610 H.spc      1 <1>        0.000
     47 H          -1.0558    4.3441    6.1147 H.spc      1 <1>        0.000
     48 H           0.7208    6.4662    6.6135 H.spc      1 <1>        0.000
     49 H          -0.2180    5.9480    5.1232 H.spc      1 <1>        0.000
     50 H          -2.2001    6.5648    6.7427 H.spc      1 <1>        0.000
     51 H          -0.8725    7.7631    7.3078 H.spc      1 <1>        0.000
@<TRIPOS>BOND
     1    1   20 1  
     2    1    2 1  
     3    2    3 1  
     4    3    4 1  
     5   19   20 1  
     6   18   19 1  
     7    9   18 1  
     8   17    9 1  
     9   16   17 1  
    10   15   16 1  
    11   14   15 1  
    12   13   14 1  
    13   12   13 1  
    14   11   12 1  
    15   10   11 1  
    16    8   10 1  
    17    7    8 1  
    18    6    7 1  
    19    5    6 1  
    20    4    5 1  
    21    3   21 1  
    22    3   22 1  
    23    4   23 1  
    24    4   24 1  
    25    5   25 1  
    26    5   26 1  
    27    6   27 1  
    28    7   28 1  
    29    7   29 1  
    30    8   30 1  
    31    8   31 1  
    32    9   32 1  
    33    9   33 1  
    34   10   34 1  
    35   11   35 1  
    36   11   36 1  
    37   12   37 1  
    38   12   38 1  
    39   13   39 1  
    40   14   40 1  
    41   14   41 1  
    42   15   42 1  
    43   15   43 1  
    44   16   44 1  
    45   17   45 1  
    46   17   46 1  
    47   18   47 1  
    48   19   48 1  
    49   19   49 1  
    50   20   50 1  
    51   20   51 1  
# Name:          frag4-424-48/48856
# Creation time: Sat Jun  5 12:52:19 2010


@<TRIPOS>MOLECULE
frag4-424-48/48856
   51    51     1     1     1
SMALL
USER_CHARGES


@<TRIPOS>ATOM
      1 S1         -0.0978    7.1671    4.7322 S.3        1 <1>        0.000
      2 S2         -1.9593    7.2247    3.9896 S.3        1 <1>        0.000
      3 C1         -2.1319    6.3117    2.4567 C.3        1 <1>        0.000
      4 C2         -3.5329    6.0163    1.9510 C.3        1 <1>        0.000
      5 C3         -4.0175    4.5986    1.9666 C.3        1 <1>        0.000
      6 N1         -3.4028    3.3485    2.0039 N.3        1 <1>        0.000
      7 C4         -2.0395    2.9688    1.9156 C.3        1 <1>        0.000
      8 C5         -1.7012    1.6265    1.4292 C.3        1 <1>        0.000
      9 C11        -1.7847    3.3972    7.1291 C.3        1 <1>        0.000
     10 N2         -1.0555    0.5958    2.1165 N.3        1 <1>        0.000
     11 C6          0.2875    0.1929    2.0800 C.3        1 <1>        0.000
     12 C7          1.1215    0.3406    3.2804 C.3        1 <1>        0.000
     13 N3          0.9507    1.2701    4.3012 N.3        1 <1>        0.000
     14 C8          1.6257    1.2608    5.5398 C.3        1 <1>        0.000
     15 C9          0.8122    0.9859    6.7370 C.3        1 <1>        0.000
     16 N4         -0.5719    1.2205    6.8953 N.3        1 <1>        0.000
     17 C10        -1.1469    2.2040    7.7540 C.3        1 <1>        0.000
     18 N5         -1.2445    4.5079    6.4584 N.3        1 <1>        0.000
     19 C12         0.1404    4.8267    6.3227 C.3        1 <1>        0.000
     20 C13         0.5630    5.5301    5.0369 C.3        1 <1>        0.000
     21 H          -1.6850    5.3367    2.6511 H.spc      1 <1>        0.000
     22 H          -1.6781    6.9436    1.6932 H.spc      1 <1>        0.000
     23 H          -3.5208    6.3007    0.8988 H.spc      1 <1>        0.000
     24 H          -4.1981    6.5512    2.6288 H.spc      1 <1>        0.000
     25 H          -4.4569    4.5907    2.9641 H.spc      1 <1>        0.000
     26 H          -4.4114    4.5530    0.9513 H.spc      1 <1>        0.000
     27 H          -3.5899    3.0936    2.9737 H.spc      1 <1>        0.000
     28 H          -1.6069    3.6491    1.1820 H.spc      1 <1>        0.000
     29 H          -1.6754    2.9938    2.9427 H.spc      1 <1>        0.000
     30 H          -2.6942    1.1973    1.2957 H.spc      1 <1>        0.000
     31 H          -0.9607    1.8627    0.6651 H.spc      1 <1>        0.000
     32 H          -2.2953    2.9138    6.2962 H.spc      1 <1>        0.000
     33 H          -2.1596    3.8919    8.0251 H.spc      1 <1>        0.000
     34 H          -1.1147    0.9481    3.0719 H.spc      1 <1>        0.000
     35 H           0.2486   -0.8817    1.9013 H.spc      1 <1>        0.000
     36 H           0.7513    0.8448    1.3397 H.spc      1 <1>        0.000
     37 H           0.9245   -0.5964    3.8013 H.spc      1 <1>        0.000
     38 H           2.0711    0.6588    2.8502 H.spc      1 <1>        0.000
     39 H           1.3033    2.1257    3.8722 H.spc      1 <1>        0.000
     40 H           2.3522    0.4505    5.4789 H.spc      1 <1>        0.000
     41 H           2.0226    2.2673    5.6721 H.spc      1 <1>        0.000
     42 H           0.8551   -0.1022    6.7838 H.spc      1 <1>        0.000
     43 H           1.2354    1.6897    7.4537 H.spc      1 <1>        0.000
     44 H          -0.8408    1.5573    5.9708 H.spc      1 <1>        0.000
     45 H          -1.9511    1.6908    8.2812 H.spc      1 <1>        0.000
     46 H          -0.3155    2.5959    8.3399 H.spc      1 <1>        0.000
     47 H          -1.5076    4.3140    5.4922 H.spc      1 <1>        0.000
     48 H           0.3678    5.5210    7.1316 H.spc      1 <1>        0.000
     49 H           0.6685    3.8732    6.3290 H.spc      1 <1>        0.000
     50 H           1.6424    5.6599    5.1152 H.spc      1 <1>        0.000
     51 H           0.1876    4.9070    4.2252 H.spc      1 <1>        0.000
@<TRIPOS>BOND
     1    1   20 1  
     2    1    2 1  
     3    2    3 1  
     4    3    4 1  
     5   19   20 1  
     6   18   19 1  
     7    9   18 1  
     8   17    9 1  
     9   16   17 1  
    10   15   16 1  
    11   14   15 1  
    12   13   14 1  
    13   12   13 1  
    14   11   12 1  
    15   10   11 1  
    16    8   10 1  
    17    7    8 1  
    18    6    7 1  
    19    5    6 1  
    20    4    5 1  
    21    3   21 1  
    22    3   22 1  
    23    4   23 1  
    24    4   24 1  
    25    5   25 1  
    26    5   26 1  
    27    6   27 1  
    28    7   28 1  
    29    7   29 1  
    30    8   30 1  
    31    8   31 1  
    32    9   32 1  
    33    9   33 1  
    34   10   34 1  
    35   11   35 1  
    36   11   36 1  
    37   12   37 1  
    38   12   38 1  
    39   13   39 1  
    40   14   40 1  
    41   14   41 1  
    42   15   42 1  
    43   15   43 1  
    44   16   44 1  
    45   17   45 1  
    46   17   46 1  
    47   18   47 1  
    48   19   48 1  
    49   19   49 1  
    50   20   50 1  
    51   20   51 1  
# Name:          frag4-424-48/48856
# Creation time: Sat Jun  5 12:52:19 2010


@<TRIPOS>MOLECULE
frag4-424-48/48856
   51    51     1     1     1
SMALL
USER_CHARGES


@<TRIPOS>ATOM
      1 S1         -0.6974    6.5427    4.1873 S.3        1 <1>        0.000
      2 S2         -2.0679    7.5858    3.1303 S.3        1 <1>        0.000
      3 C1         -3.5272    6.7213    2.4992 C.3        1 <1>        0.000
      4 C2         -3.4794    5.9164    1.2084 C.3        1 <1>        0.000
      5 C3         -2.2537    5.0717    1.0071 C.3        1 <1>        0.000
      6 N1         -2.1800    3.7475    0.4066 N.3        1 <1>        0.000
      7 C4         -1.1560    2.7888    0.7003 C.3        1 <1>        0.000
      8 C5         -1.7059    1.4131    0.8706 C.3        1 <1>        0.000
      9 C11         0.8493    3.4128    7.5110 C.3        1 <1>        0.000
     10 N2         -2.0759    0.7887    2.1036 N.3        1 <1>        0.000
     11 C6         -2.0028    1.2392    3.4469 C.3        1 <1>        0.000
     12 C7         -0.6523    1.2177    4.0787 C.3        1 <1>        0.000
     13 N3          0.2426    0.1894    4.3311 N.3        1 <1>        0.000
     14 C8          0.4268   -0.4312    5.6238 C.3        1 <1>        0.000
     15 C9          1.1525    0.3662    6.6422 C.3        1 <1>        0.000
     16 N4          0.5459    1.0016    7.7693 N.3        1 <1>        0.000
     17 C10         1.0360    2.2286    8.3570 C.3        1 <1>        0.000
     18 N5         -0.1748    4.3952    7.5821 N.3        1 <1>        0.000
     19 C12        -0.2343    5.6458    6.9062 C.3        1 <1>        0.000
     20 C13        -1.2309    5.7535    5.7340 C.3        1 <1>        0.000
     21 H          -4.2301    7.5247    2.2787 H.spc      1 <1>        0.000
     22 H          -3.7375    5.9737    3.2641 H.spc      1 <1>        0.000
     23 H          -3.4900    6.6410    0.3942 H.spc      1 <1>        0.000
     24 H          -4.3240    5.2283    1.2442 H.spc      1 <1>        0.000
     25 H          -1.7011    5.6669    0.2802 H.spc      1 <1>        0.000
     26 H          -1.9721    4.8549    2.0375 H.spc      1 <1>        0.000
     27 H          -3.0213    3.2930    0.7616 H.spc      1 <1>        0.000
     28 H          -0.4556    2.7735   -0.1348 H.spc      1 <1>        0.000
     29 H          -0.6756    3.0805    1.6343 H.spc      1 <1>        0.000
     30 H          -2.6699    1.4979    0.3690 H.spc      1 <1>        0.000
     31 H          -0.8620    0.7985    0.5574 H.spc      1 <1>        0.000
     32 H           1.7223    4.0040    7.7875 H.spc      1 <1>        0.000
     33 H           0.6232    2.9477    6.5515 H.spc      1 <1>        0.000
     34 H          -3.0888    0.7641    1.9860 H.spc      1 <1>        0.000
     35 H          -2.3152    2.2834    3.4342 H.spc      1 <1>        0.000
     36 H          -2.6214    0.5569    4.0299 H.spc      1 <1>        0.000
     37 H          -0.0908    1.7604    3.3182 H.spc      1 <1>        0.000
     38 H          -0.9302    1.4678    5.1026 H.spc      1 <1>        0.000
     39 H          -0.1318   -0.5747    3.7686 H.spc      1 <1>        0.000
     40 H          -0.5731   -0.5959    6.0252 H.spc      1 <1>        0.000
     41 H           1.0323   -1.3205    5.4486 H.spc      1 <1>        0.000
     42 H           1.7906   -0.3821    7.1124 H.spc      1 <1>        0.000
     43 H           1.5105    1.2159    6.0608 H.spc      1 <1>        0.000
     44 H          -0.3710    1.2706    7.4126 H.spc      1 <1>        0.000
     45 H           0.4719    2.3951    9.2747 H.spc      1 <1>        0.000
     46 H           2.1083    2.1073    8.5108 H.spc      1 <1>        0.000
     47 H          -0.9534    3.8996    7.1479 H.spc      1 <1>        0.000
     48 H          -0.5644    6.3726    7.6484 H.spc      1 <1>        0.000
     49 H           0.7545    5.8009    6.4746 H.spc      1 <1>        0.000
     50 H          -1.4516    4.7220    5.4595 H.spc      1 <1>        0.000
     51 H          -2.0346    6.3876    6.1082 H.spc      1 <1>        0.000
@<TRIPOS>BOND
     1    1   20 1  
     2    1    2 1  
     3    2    3 1  
     4    3    4 1  
     5   19   20 1  
     6   18   19 1  
     7    9   18 1  
     8   17    9 1  
     9   16   17 1  
    10   15   16 1  
    11   14   15 1  
    12   13   14 1  
    13   12   13 1  
    14   11   12 1  
    15   10   11 1  
    16    8   10 1  
    17    7    8 1  
    18    6    7 1  
    19    5    6 1  
    20    4    5 1  
    21    3   21 1  
    22    3   22 1  
    23    4   23 1  
    24    4   24 1  
    25    5   25 1  
    26    5   26 1  
    27    6   27 1  
    28    7   28 1  
    29    7   29 1  
    30    8   30 1  
    31    8   31 1  
    32    9   32 1  
    33    9   33 1  
    34   10   34 1  
    35   11   35 1  
    36   11   36 1  
    37   12   37 1  
    38   12   38 1  
    39   13   39 1  
    40   14   40 1  
    41   14   41 1  
    42   15   42 1  
    43   15   43 1  
    44   16   44 1  
    45   17   45 1  
    46   17   46 1  
    47   18   47 1  
    48   19   48 1  
    49   19   49 1  
    50   20   50 1  
    51   20   51 1  
# Name:          frag4-424-48/48856
# Creation time: Sat Jun  5 12:52:19 2010


@<TRIPOS>MOLECULE
frag4-424-48/48856
   51    51     1     1     1
SMALL
USER_CHARGES


@<TRIPOS>ATOM
      1 S1         -2.2576    8.1963    5.7823 S.3        1 <1>        0.000
      2 S2         -1.7908    8.1550    3.8265 S.3        1 <1>        0.000
      3 C1         -2.5370    6.8141    2.8927 C.3        1 <1>        0.000
      4 C2         -1.8529    5.4556    2.9610 C.3        1 <1>        0.000
      5 C3         -1.9703    4.4785    1.8386 C.3        1 <1>        0.000
      6 N1         -1.6411    3.1006    1.8259 N.3        1 <1>        0.000
      7 C4         -1.9940    2.0956    0.8805 C.3        1 <1>        0.000
      8 C5         -1.3334    0.7649    0.7726 C.3        1 <1>        0.000
      9 C11         0.0539    4.2820    7.7125 C.3        1 <1>        0.000
     10 N2         -1.6843   -0.5010    1.2841 N.3        1 <1>        0.000
     11 C6         -1.6796   -0.9438    2.6183 C.3        1 <1>        0.000
     12 C7         -0.3539   -1.3061    3.1436 C.3        1 <1>        0.000
     13 N3          0.5130   -0.5585    3.9457 N.3        1 <1>        0.000
     14 C8          0.3011    0.7626    4.4002 C.3        1 <1>        0.000
     15 C9          0.2549    1.0195    5.8563 C.3        1 <1>        0.000
     16 N4         -0.1809    2.1707    6.5222 N.3        1 <1>        0.000
     17 C10         0.4418    2.8624    7.5791 C.3        1 <1>        0.000
     18 N5          0.3627    5.3247    6.8372 N.3        1 <1>        0.000
     19 C12        -0.1587    6.6392    6.7218 C.3        1 <1>        0.000
     20 C13        -1.6784    6.7826    6.6949 C.3        1 <1>        0.000
     21 H          -2.4886    7.1182    1.8471 H.spc      1 <1>        0.000
     22 H          -3.5280    6.6689    3.3228 H.spc      1 <1>        0.000
     23 H          -2.3401    4.9561    3.7984 H.spc      1 <1>        0.000
     24 H          -0.7902    5.6960    2.9921 H.spc      1 <1>        0.000
     25 H          -3.0529    4.4310    1.7214 H.spc      1 <1>        0.000
     26 H          -1.2267    4.8726    1.1460 H.spc      1 <1>        0.000
     27 H          -0.6334    3.1512    1.6766 H.spc      1 <1>        0.000
     28 H          -3.0066    1.8314    1.1852 H.spc      1 <1>        0.000
     29 H          -1.7348    2.5644   -0.0688 H.spc      1 <1>        0.000
     30 H          -1.4747    0.5770   -0.2917 H.spc      1 <1>        0.000
     31 H          -0.4374    0.9579    1.3625 H.spc      1 <1>        0.000
     32 H          -1.0290    4.2216    7.6037 H.spc      1 <1>        0.000
     33 H           0.6095    4.5754    8.6032 H.spc      1 <1>        0.000
     34 H          -2.6838   -0.5181    1.0812 H.spc      1 <1>        0.000
     35 H          -2.0462   -0.1174    3.2272 H.spc      1 <1>        0.000
     36 H          -2.2915   -1.8451    2.6547 H.spc      1 <1>        0.000
     37 H          -0.6230   -2.1074    3.8318 H.spc      1 <1>        0.000
     38 H           0.2213   -1.3562    2.2191 H.spc      1 <1>        0.000
     39 H           0.4944   -1.0848    4.8192 H.spc      1 <1>        0.000
     40 H           1.1635    1.3250    4.0424 H.spc      1 <1>        0.000
     41 H          -0.6907    1.0299    4.0357 H.spc      1 <1>        0.000
     42 H          -0.5025    0.3007    6.1690 H.spc      1 <1>        0.000
     43 H           1.3177    1.0309    6.0979 H.spc      1 <1>        0.000
     44 H          -0.1143    2.8617    5.7749 H.spc      1 <1>        0.000
     45 H           0.1389    2.3660    8.5010 H.spc      1 <1>        0.000
     46 H           1.5128    2.8470    7.3768 H.spc      1 <1>        0.000
     47 H           1.3080    5.5412    7.1534 H.spc      1 <1>        0.000
     48 H           0.1745    7.1706    7.6132 H.spc      1 <1>        0.000
     49 H           0.1926    7.0152    5.7609 H.spc      1 <1>        0.000
     50 H          -2.0777    5.8954    6.2035 H.spc      1 <1>        0.000
     51 H          -2.0093    6.9063    7.7261 H.spc      1 <1>        0.000
@<TRIPOS>BOND
     1    1   20 1  
     2    1    2 1  
     3    2    3 1  
     4    3    4 1  
     5   19   20 1  
     6   18   19 1  
     7    9   18 1  
     8   17    9 1  
     9   16   17 1  
    10   15   16 1  
    11   14   15 1  
    12   13   14 1  
    13   12   13 1  
    14   11   12 1  
    15   10   11 1  
    16    8   10 1  
    17    7    8 1  
    18    6    7 1  
    19    5    6 1  
    20    4    5 1  
    21    3   21 1  
    22    3   22 1  
    23    4   23 1  
    24    4   24 1  
    25    5   25 1  
    26    5   26 1  
    27    6   27 1  
    28    7   28 1  
    29    7   29 1  
    30    8   30 1  
    31    8   31 1  
    32    9   32 1  
    33    9   33 1  
    34   10   34 1  
    35   11   35 1  
    36   11   36 1  
    37   12   37 1  
    38   12   38 1  
    39   13   39 1  
    40   14   40 1  
    41   14   41 1  
    42   15   42 1  
    43   15   43 1  
    44   16   44 1  
    45   17   45 1  
    46   17   46 1  
    47   18   47 1  
    48   19   48 1  
    49   19   49 1  
    50   20   50 1  
    51   20   51 1  
# Name:          frag4-424-48/48856
# Creation time: Sat Jun  5 12:52:19 2010


@<TRIPOS>MOLECULE
frag4-424-48/48856
   51    51     1     1     1
SMALL
USER_CHARGES


@<TRIPOS>ATOM
      1 S1         -2.2486    6.9903    5.2206 S.3        1 <1>        0.000
      2 S2         -2.5543    6.7924    3.2463 S.3        1 <1>        0.000
      3 C1         -1.1267    6.8529    2.1501 C.3        1 <1>        0.000
      4 C2         -1.0479    5.7838    1.0746 C.3        1 <1>        0.000
      5 C3         -1.5233    4.4250    1.5342 C.3        1 <1>        0.000
      6 N1         -2.8360    3.8832    1.3119 N.3        1 <1>        0.000
      7 C4         -3.4552    2.9203    2.1658 C.3        1 <1>        0.000
      8 C5         -2.6731    1.7281    2.6565 C.3        1 <1>        0.000
      9 C11        -1.1287    2.6879    6.9478 C.3        1 <1>        0.000
     10 N2         -1.6196    1.1167    1.9468 N.3        1 <1>        0.000
     11 C6         -0.4194    0.6402    2.5885 C.3        1 <1>        0.000
     12 C7         -0.6049   -0.0025    3.9253 C.3        1 <1>        0.000
     13 N3          0.3188   -0.1927    4.9431 N.3        1 <1>        0.000
     14 C8          1.6379    0.3198    4.9517 C.3        1 <1>        0.000
     15 C9          1.8985    1.6578    5.5854 C.3        1 <1>        0.000
     16 N4          1.2943    2.3582    6.6244 N.3        1 <1>        0.000
     17 C10         0.1533    2.1209    7.4225 C.3        1 <1>        0.000
     18 N5         -1.5407    4.0202    6.7136 N.3        1 <1>        0.000
     19 C12        -0.9345    5.2535    7.1369 C.3        1 <1>        0.000
     20 C13        -0.7754    6.2385    5.9502 C.3        1 <1>        0.000
     21 H          -0.2535    6.7050    2.7854 H.spc      1 <1>        0.000
     22 H          -1.1925    7.8049    1.6233 H.spc      1 <1>        0.000
     23 H          -0.0005    5.6839    0.7900 H.spc      1 <1>        0.000
     24 H          -1.6959    6.0964    0.2557 H.spc      1 <1>        0.000
     25 H          -0.8956    3.7526    0.9495 H.spc      1 <1>        0.000
     26 H          -1.4985    4.5282    2.6190 H.spc      1 <1>        0.000
     27 H          -3.4381    4.6996    1.4186 H.spc      1 <1>        0.000
     28 H          -3.6973    3.4769    3.0712 H.spc      1 <1>        0.000
     29 H          -4.2510    2.4906    1.5574 H.spc      1 <1>        0.000
     30 H          -2.1664    2.1240    3.5366 H.spc      1 <1>        0.000
     31 H          -3.4290    0.9431    2.6798 H.spc      1 <1>        0.000
     32 H          -1.1234    2.3165    5.9231 H.spc      1 <1>        0.000
     33 H          -1.7606    2.4500    7.8035 H.spc      1 <1>        0.000
     34 H          -2.0456    0.2637    1.5845 H.spc      1 <1>        0.000
     35 H          -0.0051   -0.1267    1.9340 H.spc      1 <1>        0.000
     36 H           0.2088    1.5156    2.7533 H.spc      1 <1>        0.000
     37 H          -1.2804    0.7103    4.3983 H.spc      1 <1>        0.000
     38 H          -0.7903   -1.0345    3.6275 H.spc      1 <1>        0.000
     39 H          -0.1120    0.3049    5.7223 H.spc      1 <1>        0.000
     40 H           2.2098   -0.3894    5.5501 H.spc      1 <1>        0.000
     41 H           1.8930    0.4536    3.9005 H.spc      1 <1>        0.000
     42 H           2.8538    1.4374    6.0617 H.spc      1 <1>        0.000
     43 H           1.6055    2.2996    4.7545 H.spc      1 <1>        0.000
     44 H           2.0144    2.2383    7.3368 H.spc      1 <1>        0.000
     45 H           0.0155    1.0397    7.4306 H.spc      1 <1>        0.000
     46 H           0.3548    2.6014    8.3799 H.spc      1 <1>        0.000
     47 H          -1.4026    4.0824    5.7049 H.spc      1 <1>        0.000
     48 H          -1.5751    5.7154    7.8881 H.spc      1 <1>        0.000
     49 H           0.0538    5.0340    7.5409 H.spc      1 <1>        0.000
     50 H          -0.2085    7.0757    6.3576 H.spc      1 <1>        0.000
     51 H          -0.3421    5.6405    5.1485 H.spc      1 <1>        0.000
@<TRIPOS>BOND
     1    1   20 1  
     2    1    2 1  
     3    2    3 1  
     4    3    4 1  
     5   19   20 1  
     6   18   19 1  
     7    9   18 1  
     8   17    9 1  
     9   16   17 1  
    10   15   16 1  
    11   14   15 1  
    12   13   14 1  
    13   12   13 1  
    14   11   12 1  
    15   10   11 1  
    16    8   10 1  
    17    7    8 1  
    18    6    7 1  
    19    5    6 1  
    20    4    5 1  
    21    3   21 1  
    22    3   22 1  
    23    4   23 1  
    24    4   24 1  
    25    5   25 1  
    26    5   26 1  
    27    6   27 1  
    28    7   28 1  
    29    7   29 1  
    30    8   30 1  
    31    8   31 1  
    32    9   32 1  
    33    9   33 1  
    34   10   34 1  
    35   11   35 1  
    36   11   36 1  
    37   12   37 1  
    38   12   38 1  
    39   13   39 1  
    40   14   40 1  
    41   14   41 1  
    42   15   42 1  
    43   15   43 1  
    44   16   44 1  
    45   17   45 1  
    46   17   46 1  
    47   18   47 1  
    48   19   48 1  
    49   19   49 1  
    50   20   50 1  
    51   20   51 1  
# Name:          frag4-424-48/48856
# Creation time: Sat Jun  5 12:52:19 2010


@<TRIPOS>MOLECULE
frag4-424-48/48856
   51    51     1     1     1
SMALL
USER_CHARGES


@<TRIPOS>ATOM
      1 S1         -2.2769    6.9825    6.1396 S.3        1 <1>        0.000
      2 S2         -3.2348    6.9710    4.3918 S.3        1 <1>        0.000
      3 C1         -2.9283    5.5165    3.4188 C.3        1 <1>        0.000
      4 C2         -1.6263    5.3239    2.6537 C.3        1 <1>        0.000
      5 C3         -1.6099    4.0095    1.9134 C.3        1 <1>        0.000
      6 N1         -0.5143    3.4042    1.2919 N.3        1 <1>        0.000
      7 C4         -0.4767    2.1010    0.6679 C.3        1 <1>        0.000
      8 C5         -0.6501    0.9722    1.5941 C.3        1 <1>        0.000
      9 C11         0.7597    4.3669    6.2172 C.3        1 <1>        0.000
     10 N2         -1.6159   -0.0371    1.8000 N.3        1 <1>        0.000
     11 C6         -2.8901    0.0426    2.4227 C.3        1 <1>        0.000
     12 C7         -2.7976    0.1517    3.8962 C.3        1 <1>        0.000
     13 N3         -1.6499   -0.2043    4.6138 N.3        1 <1>        0.000
     14 C8         -0.9109    0.7893    5.2688 C.3        1 <1>        0.000
     15 C9          0.5394    0.7956    5.5203 C.3        1 <1>        0.000
     16 N4          1.2313    1.9285    6.0462 N.3        1 <1>        0.000
     17 C10         0.4799    2.9754    6.6641 C.3        1 <1>        0.000
     18 N5          0.9410    5.5041    7.0343 N.3        1 <1>        0.000
     19 C12         0.5892    6.8517    6.7565 C.3        1 <1>        0.000
     20 C13        -0.5441    7.1495    5.7846 C.3        1 <1>        0.000
     21 H          -3.6836    5.5667    2.6345 H.spc      1 <1>        0.000
     22 H          -2.9172    4.7118    4.1539 H.spc      1 <1>        0.000
     23 H          -0.8023    5.3288    3.3673 H.spc      1 <1>        0.000
     24 H          -1.5299    6.1308    1.9272 H.spc      1 <1>        0.000
     25 H          -1.8170    3.3054    2.7193 H.spc      1 <1>        0.000
     26 H          -2.2455    4.2361    1.0574 H.spc      1 <1>        0.000
     27 H          -0.3727    4.0173    0.4891 H.spc      1 <1>        0.000
     28 H          -1.3062    2.0629   -0.0382 H.spc      1 <1>        0.000
     29 H           0.5097    1.9931    0.2168 H.spc      1 <1>        0.000
     30 H           0.1522    0.3396    1.2145 H.spc      1 <1>        0.000
     31 H          -0.8354    1.5472    2.5014 H.spc      1 <1>        0.000
     32 H           1.7506    4.2572    5.7765 H.spc      1 <1>        0.000
     33 H          -0.1662    4.6180    5.6997 H.spc      1 <1>        0.000
     34 H          -1.8923   -0.2278    0.8369 H.spc      1 <1>        0.000
     35 H          -3.3899    0.9370    2.0508 H.spc      1 <1>        0.000
     36 H          -3.4362   -0.8710    2.1876 H.spc      1 <1>        0.000
     37 H          -2.8788    1.2243    4.0722 H.spc      1 <1>        0.000
     38 H          -3.5421   -0.5633    4.2462 H.spc      1 <1>        0.000
     39 H          -1.9890   -0.8100    5.3611 H.spc      1 <1>        0.000
     40 H          -1.0146    1.6266    4.5787 H.spc      1 <1>        0.000
     41 H          -1.3061    0.7204    6.2823 H.spc      1 <1>        0.000
     42 H           0.6594    0.0459    6.3024 H.spc      1 <1>        0.000
     43 H           0.9652    0.6851    4.5230 H.spc      1 <1>        0.000
     44 H           1.8202    1.5541    6.7901 H.spc      1 <1>        0.000
     45 H          -0.5617    2.7849    6.4055 H.spc      1 <1>        0.000
     46 H           0.7435    2.9451    7.7213 H.spc      1 <1>        0.000
     47 H           0.3069    5.2927    7.8048 H.spc      1 <1>        0.000
     48 H           0.2445    7.2486    7.7113 H.spc      1 <1>        0.000
     49 H           1.4754    7.2758    6.2843 H.spc      1 <1>        0.000
     50 H          -0.4432    8.2249    5.6379 H.spc      1 <1>        0.000
     51 H          -0.3934    6.3898    5.0176 H.spc      1 <1>        0.000
@<TRIPOS>BOND
     1    1   20 1  
     2    1    2 1  
     3    2    3 1  
     4    3    4 1  
     5   19   20 1  
     6   18   19 1  
     7    9   18 1  
     8   17    9 1  
     9   16   17 1  
    10   15   16 1  
    11   14   15 1  
    12   13   14 1  
    13   12   13 1  
    14   11   12 1  
    15   10   11 1  
    16    8   10 1  
    17    7    8 1  
    18    6    7 1  
    19    5    6 1  
    20    4    5 1  
    21    3   21 1  
    22    3   22 1  
    23    4   23 1  
    24    4   24 1  
    25    5   25 1  
    26    5   26 1  
    27    6   27 1  
    28    7   28 1  
    29    7   29 1  
    30    8   30 1  
    31    8   31 1  
    32    9   32 1  
    33    9   33 1  
    34   10   34 1  
    35   11   35 1  
    36   11   36 1  
    37   12   37 1  
    38   12   38 1  
    39   13   39 1  
    40   14   40 1  
    41   14   41 1  
    42   15   42 1  
    43   15   43 1  
    44   16   44 1  
    45   17   45 1  
    46   17   46 1  
    47   18   47 1  
    48   19   48 1  
    49   19   49 1  
    50   20   50 1  
    51   20   51 1  
# Name:          frag4-424-48/48856
# Creation time: Sat Jun  5 12:52:20 2010


@<TRIPOS>MOLECULE
frag4-424-48/48856
   51    51     1     1     1
SMALL
USER_CHARGES


@<TRIPOS>ATOM
      1 S1         -1.7769    6.4226    5.5977 S.3        1 <1>        0.000
      2 S2         -2.9195    5.7315    4.1027 S.3        1 <1>        0.000
      3 C1         -2.4728    6.4843    2.5501 C.3        1 <1>        0.000
      4 C2         -3.1588    6.1840    1.2584 C.3        1 <1>        0.000
      5 C3         -2.9784    4.7802    0.6738 C.3        1 <1>        0.000
      6 N1         -3.2692    3.5481    1.2425 N.3        1 <1>        0.000
      7 C4         -2.8638    2.2646    0.7772 C.3        1 <1>        0.000
      8 C5         -2.1045    1.3904    1.7137 C.3        1 <1>        0.000
      9 C11         1.0721    3.8603    7.4528 C.3        1 <1>        0.000
     10 N2         -0.9919    1.7405    2.4723 N.3        1 <1>        0.000
     11 C6          0.2910    1.0951    2.4586 C.3        1 <1>        0.000
     12 C7          0.6622    0.0294    3.4145 C.3        1 <1>        0.000
     13 N3          0.2980   -0.3094    4.7303 N.3        1 <1>        0.000
     14 C8         -0.7884    0.1164    5.5130 C.3        1 <1>        0.000
     15 C9         -0.5052    0.4084    6.9653 C.3        1 <1>        0.000
     16 N4          0.1478    1.5287    7.5127 N.3        1 <1>        0.000
     17 C10         0.5934    2.6437    6.7513 C.3        1 <1>        0.000
     18 N5          0.5898    5.1712    7.3211 N.3        1 <1>        0.000
     19 C12         0.9918    6.1466    6.3639 C.3        1 <1>        0.000
     20 C13        -0.0022    6.3581    5.2240 C.3        1 <1>        0.000
     21 H          -1.4622    6.1124    2.3812 H.spc      1 <1>        0.000
     22 H          -2.7094    7.5358    2.7125 H.spc      1 <1>        0.000
     23 H          -2.7217    6.8650    0.5281 H.spc      1 <1>        0.000
     24 H          -4.2251    6.2830    1.4618 H.spc      1 <1>        0.000
     25 H          -3.7088    4.8048   -0.1349 H.spc      1 <1>        0.000
     26 H          -1.8912    4.7241    0.6197 H.spc      1 <1>        0.000
     27 H          -2.7630    3.6104    2.1259 H.spc      1 <1>        0.000
     28 H          -3.7886    1.7279    0.5656 H.spc      1 <1>        0.000
     29 H          -2.1844    2.4588   -0.0528 H.spc      1 <1>        0.000
     30 H          -2.8474    1.2084    2.4903 H.spc      1 <1>        0.000
     31 H          -1.6775    0.6583    1.0283 H.spc      1 <1>        0.000
     32 H           0.7944    3.6346    8.4824 H.spc      1 <1>        0.000
     33 H           2.0762    3.9614    7.0409 H.spc      1 <1>        0.000
     34 H          -0.7643    2.6593    2.0924 H.spc      1 <1>        0.000
     35 H           0.3025    0.5827    1.4966 H.spc      1 <1>        0.000
     36 H           0.9796    1.9031    2.7057 H.spc      1 <1>        0.000
     37 H           0.1941   -0.8107    2.9015 H.spc      1 <1>        0.000
     38 H           1.6861    0.3466    3.6124 H.spc      1 <1>        0.000
     39 H           0.0524   -1.2910    4.6014 H.spc      1 <1>        0.000
     40 H          -1.1210    1.0585    5.0771 H.spc      1 <1>        0.000
     41 H          -1.5033   -0.7064    5.5065 H.spc      1 <1>        0.000
     42 H          -1.5150    0.5448    7.3523 H.spc      1 <1>        0.000
     43 H           0.2036   -0.3845    7.2040 H.spc      1 <1>        0.000
     44 H          -0.5717    1.9380    8.1087 H.spc      1 <1>        0.000
     45 H           1.4633    2.2775    6.2060 H.spc      1 <1>        0.000
     46 H          -0.2865    2.9709    6.1975 H.spc      1 <1>        0.000
     47 H          -0.3769    5.0027    7.0426 H.spc      1 <1>        0.000
     48 H           1.0799    7.0960    6.8920 H.spc      1 <1>        0.000
     49 H           1.9208    5.7926    5.9169 H.spc      1 <1>        0.000
     50 H           0.2353    7.3446    4.8259 H.spc      1 <1>        0.000
     51 H           0.1168    5.4838    4.5840 H.spc      1 <1>        0.000
@<TRIPOS>BOND
     1    1   20 1  
     2    1    2 1  
     3    2    3 1  
     4    3    4 1  
     5   19   20 1  
     6   18   19 1  
     7    9   18 1  
     8   17    9 1  
     9   16   17 1  
    10   15   16 1  
    11   14   15 1  
    12   13   14 1  
    13   12   13 1  
    14   11   12 1  
    15   10   11 1  
    16    8   10 1  
    17    7    8 1  
    18    6    7 1  
    19    5    6 1  
    20    4    5 1  
    21    3   21 1  
    22    3   22 1  
    23    4   23 1  
    24    4   24 1  
    25    5   25 1  
    26    5   26 1  
    27    6   27 1  
    28    7   28 1  
    29    7   29 1  
    30    8   30 1  
    31    8   31 1  
    32    9   32 1  
    33    9   33 1  
    34   10   34 1  
    35   11   35 1  
    36   11   36 1  
    37   12   37 1  
    38   12   38 1  
    39   13   39 1  
    40   14   40 1  
    41   14   41 1  
    42   15   42 1  
    43   15   43 1  
    44   16   44 1  
    45   17   45 1  
    46   17   46 1  
    47   18   47 1  
    48   19   48 1  
    49   19   49 1  
    50   20   50 1  
    51   20   51 1  
# Name:          frag4-424-48/48856
# Creation time: Sat Jun  5 12:52:20 2010


@<TRIPOS>MOLECULE
frag4-424-48/48856
   51    51     1     1     1
SMALL
USER_CHARGES


@<TRIPOS>ATOM
      1 S1         -0.1568    5.8081    5.2247 S.3        1 <1>        0.000
      2 S2         -1.7307    5.0213    4.2775 S.3        1 <1>        0.000
      3 C1         -2.2136    5.9543    2.8664 C.3        1 <1>        0.000
      4 C2         -1.3558    5.5272    1.7103 C.3        1 <1>        0.000
      5 C3         -2.0647    4.5784    0.8080 C.3        1 <1>        0.000
      6 N1         -3.1530    3.7348    1.0186 N.3        1 <1>        0.000
      7 C4         -3.3499    2.5107    0.3090 C.3        1 <1>        0.000
      8 C5         -2.2991    1.5013    0.4993 C.3        1 <1>        0.000
      9 C11        -0.4155    3.5640    7.9606 C.3        1 <1>        0.000
     10 N2         -1.4976    1.2777    1.6272 N.3        1 <1>        0.000
     11 C6         -1.3360    0.0738    2.3323 C.3        1 <1>        0.000
     12 C7         -0.7833    0.1563    3.6966 C.3        1 <1>        0.000
     13 N3          0.5196    0.5520    4.0689 N.3        1 <1>        0.000
     14 C8          1.1009    0.5138    5.3449 C.3        1 <1>        0.000
     15 C9          0.8097    1.7470    6.1042 C.3        1 <1>        0.000
     16 N4          1.5715    2.7986    6.6328 N.3        1 <1>        0.000
     17 C10         1.0105    3.7263    7.5693 C.3        1 <1>        0.000
     18 N5         -1.5766    4.3539    7.7535 N.3        1 <1>        0.000
     19 C12        -1.7163    5.7249    7.4671 C.3        1 <1>        0.000
     20 C13        -0.5486    6.4705    6.8249 C.3        1 <1>        0.000
     21 H          -2.0840    7.0196    3.0575 H.spc      1 <1>        0.000
     22 H          -3.2651    5.7771    2.6402 H.spc      1 <1>        0.000
     23 H          -0.4745    5.0241    2.1082 H.spc      1 <1>        0.000
     24 H          -1.0955    6.4148    1.1337 H.spc      1 <1>        0.000
     25 H          -2.5166    5.2889    0.1158 H.spc      1 <1>        0.000
     26 H          -1.2802    3.8335    0.6749 H.spc      1 <1>        0.000
     27 H          -3.0176    3.4225    1.9801 H.spc      1 <1>        0.000
     28 H          -4.2747    2.0749    0.6872 H.spc      1 <1>        0.000
     29 H          -3.3548    2.7612   -0.7518 H.spc      1 <1>        0.000
     30 H          -2.8887    0.5847    0.4811 H.spc      1 <1>        0.000
     31 H          -1.5533    1.8430   -0.2184 H.spc      1 <1>        0.000
     32 H          -0.6713    2.7137    7.3284 H.spc      1 <1>        0.000
     33 H          -0.3130    3.6888    9.0386 H.spc      1 <1>        0.000
     34 H          -0.5636    1.4099    1.2391 H.spc      1 <1>        0.000
     35 H          -2.3388   -0.3382    2.4453 H.spc      1 <1>        0.000
     36 H          -0.6164   -0.5096    1.7579 H.spc      1 <1>        0.000
     37 H          -1.3823    0.9611    4.1228 H.spc      1 <1>        0.000
     38 H          -0.7817   -0.8930    3.9916 H.spc      1 <1>        0.000
     39 H           1.0836   -0.1398    3.5753 H.spc      1 <1>        0.000
     40 H           0.6872   -0.3350    5.8895 H.spc      1 <1>        0.000
     41 H           2.1812    0.4229    5.2316 H.spc      1 <1>        0.000
     42 H           0.3043    2.3018    5.3137 H.spc      1 <1>        0.000
     43 H           0.5080    1.2846    7.0440 H.spc      1 <1>        0.000
     44 H           2.3044    2.3277    7.1634 H.spc      1 <1>        0.000
     45 H           1.5770    3.5808    8.4891 H.spc      1 <1>        0.000
     46 H           1.0620    4.6966    7.0753 H.spc      1 <1>        0.000
     47 H          -1.9078    3.9549    6.8751 H.spc      1 <1>        0.000
     48 H          -2.5205    5.7777    6.7332 H.spc      1 <1>        0.000
     49 H          -1.8538    6.2016    8.4376 H.spc      1 <1>        0.000
     50 H          -0.8297    7.5170    6.7066 H.spc      1 <1>        0.000
     51 H           0.3255    6.3629    7.4671 H.spc      1 <1>        0.000
@<TRIPOS>BOND
     1    1   20 1  
     2    1    2 1  
     3    2    3 1  
     4    3    4 1  
     5   19   20 1  
     6   18   19 1  
     7    9   18 1  
     8   17    9 1  
     9   16   17 1  
    10   15   16 1  
    11   14   15 1  
    12   13   14 1  
    13   12   13 1  
    14   11   12 1  
    15   10   11 1  
    16    8   10 1  
    17    7    8 1  
    18    6    7 1  
    19    5    6 1  
    20    4    5 1  
    21    3   21 1  
    22    3   22 1  
    23    4   23 1  
    24    4   24 1  
    25    5   25 1  
    26    5   26 1  
    27    6   27 1  
    28    7   28 1  
    29    7   29 1  
    30    8   30 1  
    31    8   31 1  
    32    9   32 1  
    33    9   33 1  
    34   10   34 1  
    35   11   35 1  
    36   11   36 1  
    37   12   37 1  
    38   12   38 1  
    39   13   39 1  
    40   14   40 1  
    41   14   41 1  
    42   15   42 1  
    43   15   43 1  
    44   16   44 1  
    45   17   45 1  
    46   17   46 1  
    47   18   47 1  
    48   19   48 1  
    49   19   49 1  
    50   20   50 1  
    51   20   51 1  
# Name:          frag4-424-48/48856
# Creation time: Sat Jun  5 12:52:20 2010


@<TRIPOS>MOLECULE
frag4-424-48/48856
   51    51     1     1     1
SMALL
USER_CHARGES


@<TRIPOS>ATOM
      1 S1          0.1926    6.6604    4.4751 S.3        1 <1>        0.000
      2 S2         -1.0772    7.0135    2.9223 S.3        1 <1>        0.000
      3 C1         -2.3076    5.7177    2.9021 C.3        1 <1>        0.000
      4 C2         -3.2998    5.6584    1.7687 C.3        1 <1>        0.000
      5 C3         -3.5703    4.2486    1.4287 C.3        1 <1>        0.000
      6 N1         -2.8042    3.4080    0.6094 N.3        1 <1>        0.000
      7 C4         -2.7850    2.0004    0.5866 C.3        1 <1>        0.000
      8 C5         -2.6450    1.2746    1.8997 C.3        1 <1>        0.000
      9 C11        -0.6752    3.5998    7.1839 C.3        1 <1>        0.000
     10 N2         -1.7882    1.3992    3.0050 N.3        1 <1>        0.000
     11 C6         -0.4741    1.9530    3.0503 C.3        1 <1>        0.000
     12 C7          0.6876    1.0297    3.0942 C.3        1 <1>        0.000
     13 N3          1.1226   -0.0205    3.9338 N.3        1 <1>        0.000
     14 C8          0.9155   -0.2107    5.3300 C.3        1 <1>        0.000
     15 C9          0.6562    0.9719    6.2008 C.3        1 <1>        0.000
     16 N4         -0.2317    1.1252    7.2830 N.3        1 <1>        0.000
     17 C10        -0.6399    2.3180    7.9383 C.3        1 <1>        0.000
     18 N5          0.2525    4.6635    7.2023 N.3        1 <1>        0.000
     19 C12         0.0002    6.0745    7.2418 C.3        1 <1>        0.000
     20 C13        -0.7146    6.7097    6.0399 C.3        1 <1>        0.000
     21 H          -2.9122    5.8947    3.7916 H.spc      1 <1>        0.000
     22 H          -1.7361    4.7932    2.8197 H.spc      1 <1>        0.000
     23 H          -2.8898    6.1708    0.8984 H.spc      1 <1>        0.000
     24 H          -4.2274    6.1447    2.0707 H.spc      1 <1>        0.000
     25 H          -3.4509    3.7678    2.3996 H.spc      1 <1>        0.000
     26 H          -4.4853    4.3415    0.8437 H.spc      1 <1>        0.000
     27 H          -3.2017    3.6131   -0.3073 H.spc      1 <1>        0.000
     28 H          -3.7577    1.7039    0.1941 H.spc      1 <1>        0.000
     29 H          -1.8987    1.7322    0.0116 H.spc      1 <1>        0.000
     30 H          -3.5693    1.6091    2.3708 H.spc      1 <1>        0.000
     31 H          -2.2846    0.3184    1.5204 H.spc      1 <1>        0.000
     32 H          -0.5499    3.2384    6.1632 H.spc      1 <1>        0.000
     33 H          -1.5428    4.0789    7.6377 H.spc      1 <1>        0.000
     34 H          -2.3016    2.0738    3.5722 H.spc      1 <1>        0.000
     35 H          -0.3652    2.5009    2.1143 H.spc      1 <1>        0.000
     36 H          -0.4320    2.5061    3.9886 H.spc      1 <1>        0.000
     37 H           0.4395    0.4311    2.2177 H.spc      1 <1>        0.000
     38 H           1.4531    1.7604    3.3553 H.spc      1 <1>        0.000
     39 H           0.5767   -0.7960    3.5583 H.spc      1 <1>        0.000
     40 H           0.0062   -0.8081    5.3963 H.spc      1 <1>        0.000
     41 H           1.8558   -0.6232    5.6958 H.spc      1 <1>        0.000
     42 H           1.6109    1.0415    6.7222 H.spc      1 <1>        0.000
     43 H           0.1993    1.6480    5.4782 H.spc      1 <1>        0.000
     44 H          -1.1093    0.8353    6.8516 H.spc      1 <1>        0.000
     45 H          -1.6773    2.1359    8.2189 H.spc      1 <1>        0.000
     46 H           0.1102    2.4760    8.7132 H.spc      1 <1>        0.000
     47 H           0.6868    4.5219    8.1143 H.spc      1 <1>        0.000
     48 H          -0.6672    6.2265    8.0901 H.spc      1 <1>        0.000
     49 H           0.9831    6.5443    7.2765 H.spc      1 <1>        0.000
     50 H          -1.6291    6.1370    5.8856 H.spc      1 <1>        0.000
     51 H          -0.8539    7.7629    6.2838 H.spc      1 <1>        0.000
@<TRIPOS>BOND
     1    1   20 1  
     2    1    2 1  
     3    2    3 1  
     4    3    4 1  
     5   19   20 1  
     6   18   19 1  
     7    9   18 1  
     8   17    9 1  
     9   16   17 1  
    10   15   16 1  
    11   14   15 1  
    12   13   14 1  
    13   12   13 1  
    14   11   12 1  
    15   10   11 1  
    16    8   10 1  
    17    7    8 1  
    18    6    7 1  
    19    5    6 1  
    20    4    5 1  
    21    3   21 1  
    22    3   22 1  
    23    4   23 1  
    24    4   24 1  
    25    5   25 1  
    26    5   26 1  
    27    6   27 1  
    28    7   28 1  
    29    7   29 1  
    30    8   30 1  
    31    8   31 1  
    32    9   32 1  
    33    9   33 1  
    34   10   34 1  
    35   11   35 1  
    36   11   36 1  
    37   12   37 1  
    38   12   38 1  
    39   13   39 1  
    40   14   40 1  
    41   14   41 1  
    42   15   42 1  
    43   15   43 1  
    44   16   44 1  
    45   17   45 1  
    46   17   46 1  
    47   18   47 1  
    48   19   48 1  
    49   19   49 1  
    50   20   50 1  
    51   20   51 1  
# Name:          frag4-424-48/48856
# Creation time: Sat Jun  5 12:52:20 2010


@<TRIPOS>MOLECULE
frag4-424-48/48856
   51    51     1     1     1
SMALL
USER_CHARGES


@<TRIPOS>ATOM
      1 S1          0.0467    7.2489    4.7694 S.3        1 <1>        0.000
      2 S2         -1.6026    6.9501    3.6794 S.3        1 <1>        0.000
      3 C1         -2.3697    5.3528    3.4114 C.3        1 <1>        0.000
      4 C2         -2.6271    4.8780    2.0038 C.3        1 <1>        0.000
      5 C3         -3.4942    3.6697    1.8748 C.3        1 <1>        0.000
      6 N1         -3.5310    2.6046    0.9566 N.3        1 <1>        0.000
      7 C4         -2.7342    2.3135   -0.1765 C.3        1 <1>        0.000
      8 C5         -1.4779    1.5621    0.0052 C.3        1 <1>        0.000
      9 C11        -0.1285    3.7644    8.6962 C.3        1 <1>        0.000
     10 N2         -1.1776    0.5060    0.8684 N.3        1 <1>        0.000
     11 C6         -0.2373    0.6150    1.9196 C.3        1 <1>        0.000
     12 C7         -0.5877    1.5738    2.9772 C.3        1 <1>        0.000
     13 N3         -0.3635    1.5145    4.3508 N.3        1 <1>        0.000
     14 C8          0.0999    0.4240    5.1055 C.3        1 <1>        0.000
     15 C9          0.4039    0.6904    6.5203 C.3        1 <1>        0.000
     16 N4         -0.1129    1.7297    7.2891 N.3        1 <1>        0.000
     17 C10         0.6029    2.6056    8.1299 C.3        1 <1>        0.000
     18 N5         -0.2178    5.0837    8.2168 N.3        1 <1>        0.000
     19 C12         0.2618    5.5249    6.9504 C.3        1 <1>        0.000
     20 C13         0.0611    6.9832    6.5477 C.3        1 <1>        0.000
     21 H          -3.3600    5.4438    3.8575 H.spc      1 <1>        0.000
     22 H          -1.6598    4.6336    3.8199 H.spc      1 <1>        0.000
     23 H          -1.6568    4.6067    1.5879 H.spc      1 <1>        0.000
     24 H          -3.1504    5.6883    1.4962 H.spc      1 <1>        0.000
     25 H          -3.1614    3.1241    2.7578 H.spc      1 <1>        0.000
     26 H          -4.4316    4.1583    1.6091 H.spc      1 <1>        0.000
     27 H          -3.2447    1.8405    1.5686 H.spc      1 <1>        0.000
     28 H          -3.3570    1.6719   -0.7998 H.spc      1 <1>        0.000
     29 H          -2.4261    3.2862   -0.5600 H.spc      1 <1>        0.000
     30 H          -1.4175    1.0505   -0.9554 H.spc      1 <1>        0.000
     31 H          -0.8444    2.3427    0.4263 H.spc      1 <1>        0.000
     32 H          -1.1587    3.4340    8.5637 H.spc      1 <1>        0.000
     33 H           0.4333    3.9243    9.6165 H.spc      1 <1>        0.000
     34 H          -2.0579    0.3492    1.3591 H.spc      1 <1>        0.000
     35 H          -0.1820   -0.3655    2.3924 H.spc      1 <1>        0.000
     36 H           0.6918    0.9685    1.4725 H.spc      1 <1>        0.000
     37 H           0.0643    2.4053    2.7095 H.spc      1 <1>        0.000
     38 H          -1.6749    1.4997    2.9543 H.spc      1 <1>        0.000
     39 H           0.4145    2.1666    4.4507 H.spc      1 <1>        0.000
     40 H          -0.7051   -0.3109    5.1018 H.spc      1 <1>        0.000
     41 H           1.0393    0.1154    4.6467 H.spc      1 <1>        0.000
     42 H          -0.0243   -0.1843    7.0097 H.spc      1 <1>        0.000
     43 H           1.4619    0.9488    6.4770 H.spc      1 <1>        0.000
     44 H          -0.4440    2.3693    6.5668 H.spc      1 <1>        0.000
     45 H           0.9078    2.0048    8.9868 H.spc      1 <1>        0.000
     46 H           1.3892    3.0319    7.5070 H.spc      1 <1>        0.000
     47 H          -1.2252    5.2153    8.1264 H.spc      1 <1>        0.000
     48 H           1.3428    5.3943    6.9995 H.spc      1 <1>        0.000
     49 H          -0.3088    4.9516    6.2198 H.spc      1 <1>        0.000
     50 H          -0.9102    7.2958    6.9311 H.spc      1 <1>        0.000
     51 H           0.8978    7.5511    6.9546 H.spc      1 <1>        0.000
@<TRIPOS>BOND
     1    1   20 1  
     2    1    2 1  
     3    2    3 1  
     4    3    4 1  
     5   19   20 1  
     6   18   19 1  
     7    9   18 1  
     8   17    9 1  
     9   16   17 1  
    10   15   16 1  
    11   14   15 1  
    12   13   14 1  
    13   12   13 1  
    14   11   12 1  
    15   10   11 1  
    16    8   10 1  
    17    7    8 1  
    18    6    7 1  
    19    5    6 1  
    20    4    5 1  
    21    3   21 1  
    22    3   22 1  
    23    4   23 1  
    24    4   24 1  
    25    5   25 1  
    26    5   26 1  
    27    6   27 1  
    28    7   28 1  
    29    7   29 1  
    30    8   30 1  
    31    8   31 1  
    32    9   32 1  
    33    9   33 1  
    34   10   34 1  
    35   11   35 1  
    36   11   36 1  
    37   12   37 1  
    38   12   38 1  
    39   13   39 1  
    40   14   40 1  
    41   14   41 1  
    42   15   42 1  
    43   15   43 1  
    44   16   44 1  
    45   17   45 1  
    46   17   46 1  
    47   18   47 1  
    48   19   48 1  
    49   19   49 1  
    50   20   50 1  
    51   20   51 1  
# Name:          frag4-424-48/48856
# Creation time: Sat Jun  5 12:52:20 2010


@<TRIPOS>MOLECULE
frag4-424-48/48856
   51    51     1     1     1
SMALL
USER_CHARGES


@<TRIPOS>ATOM
      1 S1         -1.0318    7.7937    5.1684 S.3        1 <1>        0.000
      2 S2         -1.2776    7.8642    3.1270 S.3        1 <1>        0.000
      3 C1         -2.9210    7.2093    2.6116 C.3        1 <1>        0.000
      4 C2         -2.7625    5.9910    1.7176 C.3        1 <1>        0.000
      5 C3         -2.1538    4.7278    2.2666 C.3        1 <1>        0.000
      6 N1         -2.7480    3.4687    2.5130 N.3        1 <1>        0.000
      7 C4         -2.1814    2.2928    3.0659 C.3        1 <1>        0.000
      8 C5         -1.6661    1.1511    2.2541 C.3        1 <1>        0.000
      9 C11        -1.3083    3.2992    7.0765 C.3        1 <1>        0.000
     10 N2         -0.3351    0.7573    1.9993 N.3        1 <1>        0.000
     11 C6          0.2556   -0.5361    1.9512 C.3        1 <1>        0.000
     12 C7          0.8824   -1.1742    3.1538 C.3        1 <1>        0.000
     13 N3          0.6902   -0.9550    4.5337 N.3        1 <1>        0.000
     14 C8          0.0460    0.1428    5.1577 C.3        1 <1>        0.000
     15 C9          0.6848    1.4703    4.8739 C.3        1 <1>        0.000
     16 N4          0.5515    2.7017    5.5251 N.3        1 <1>        0.000
     17 C10         0.1164    2.9506    6.8432 C.3        1 <1>        0.000
     18 N5         -1.8556    4.5493    7.4137 N.3        1 <1>        0.000
     19 C12        -1.2790    5.8294    7.1501 C.3        1 <1>        0.000
     20 C13        -0.8923    6.0608    5.6935 C.3        1 <1>        0.000
     21 H          -3.4494    7.9848    2.0571 H.spc      1 <1>        0.000
     22 H          -3.4785    6.9203    3.5026 H.spc      1 <1>        0.000
     23 H          -2.0691    6.3120    0.9403 H.spc      1 <1>        0.000
     24 H          -3.7828    5.7104    1.4562 H.spc      1 <1>        0.000
     25 H          -1.4750    4.4684    1.4542 H.spc      1 <1>        0.000
     26 H          -1.9339    5.0435    3.2864 H.spc      1 <1>        0.000
     27 H          -3.4095    3.7179    3.2484 H.spc      1 <1>        0.000
     28 H          -1.2805    2.6668    3.5524 H.spc      1 <1>        0.000
     29 H          -3.0229    1.8484    3.5974 H.spc      1 <1>        0.000
     30 H          -2.0095    0.3097    2.8560 H.spc      1 <1>        0.000
     31 H          -1.9745    1.4630    1.2562 H.spc      1 <1>        0.000
     32 H          -1.7232    3.1537    6.0791 H.spc      1 <1>        0.000
     33 H          -1.5147    2.7312    7.9837 H.spc      1 <1>        0.000
     34 H          -0.2548    1.0260    1.0186 H.spc      1 <1>        0.000
     35 H          -0.5855   -1.1915    1.7250 H.spc      1 <1>        0.000
     36 H           1.0934   -0.4076    1.2659 H.spc      1 <1>        0.000
     37 H           0.4671   -2.1783    3.0671 H.spc      1 <1>        0.000
     38 H           1.9021   -0.8036    3.0486 H.spc      1 <1>        0.000
     39 H           0.0533   -1.7166    4.7677 H.spc      1 <1>        0.000
     40 H          -0.9708    0.1843    4.7673 H.spc      1 <1>        0.000
     41 H           0.1034   -0.0191    6.2341 H.spc      1 <1>        0.000
     42 H           1.7221    1.2383    5.1152 H.spc      1 <1>        0.000
     43 H           0.2154    1.7076    3.9192 H.spc      1 <1>        0.000
     44 H           1.5262    2.9967    5.5836 H.spc      1 <1>        0.000
     45 H           0.2654    2.0086    7.3710 H.spc      1 <1>        0.000
     46 H           0.6768    3.8291    7.1630 H.spc      1 <1>        0.000
     47 H          -2.6899    4.5742    6.8274 H.spc      1 <1>        0.000
     48 H          -2.0315    6.5764    7.4029 H.spc      1 <1>        0.000
     49 H          -0.3630    5.8938    7.7374 H.spc      1 <1>        0.000
     50 H           0.1523    5.7696    5.5832 H.spc      1 <1>        0.000
     51 H          -1.5767    5.4773    5.0777 H.spc      1 <1>        0.000
@<TRIPOS>BOND
     1    1   20 1  
     2    1    2 1  
     3    2    3 1  
     4    3    4 1  
     5   19   20 1  
     6   18   19 1  
     7    9   18 1  
     8   17    9 1  
     9   16   17 1  
    10   15   16 1  
    11   14   15 1  
    12   13   14 1  
    13   12   13 1  
    14   11   12 1  
    15   10   11 1  
    16    8   10 1  
    17    7    8 1  
    18    6    7 1  
    19    5    6 1  
    20    4    5 1  
    21    3   21 1  
    22    3   22 1  
    23    4   23 1  
    24    4   24 1  
    25    5   25 1  
    26    5   26 1  
    27    6   27 1  
    28    7   28 1  
    29    7   29 1  
    30    8   30 1  
    31    8   31 1  
    32    9   32 1  
    33    9   33 1  
    34   10   34 1  
    35   11   35 1  
    36   11   36 1  
    37   12   37 1  
    38   12   38 1  
    39   13   39 1  
    40   14   40 1  
    41   14   41 1  
    42   15   42 1  
    43   15   43 1  
    44   16   44 1  
    45   17   45 1  
    46   17   46 1  
    47   18   47 1  
    48   19   48 1  
    49   19   49 1  
    50   20   50 1  
    51   20   51 1  
# Name:          frag4-424-48/48856 -- energy: -5.291563
# Creation time: Sat Jun  5 12:52:20 2010


@<TRIPOS>MOLECULE
frag4-424-48/48856 -- energy: -5.291563
   51    51     1     1     1
SMALL
USER_CHARGES


@<TRIPOS>ATOM
      1 S1         -0.4777    7.0931    4.5455 S.3        1 <1>        0.000
      2 S2         -2.4160    6.8885    4.0307 S.3        1 <1>        0.000
      3 C1         -2.5797    6.8950    2.2618 C.3        1 <1>        0.000
      4 C2         -3.4861    5.9145    1.5695 C.3        1 <1>        0.000
      5 C3         -3.0154    4.5061    1.5213 C.3        1 <1>        0.000
      6 N1         -3.4591    3.2988    2.0594 N.3        1 <1>        0.000
      7 C4         -3.0869    2.0075    1.5538 C.3        1 <1>        0.000
      8 C5         -1.6166    1.8331    1.3913 C.3        1 <1>        0.000
      9 C11        -0.5740    3.1109    7.1098 C.3        1 <1>        0.000
     10 N2         -0.5950    2.5473    2.0684 N.3        1 <1>        0.000
     11 C6          0.5207    1.9906    2.7478 C.3        1 <1>        0.000
     12 C7          0.1815    0.7994    3.5575 C.3        1 <1>        0.000
     13 N3          0.2234    0.5345    4.9297 N.3        1 <1>        0.000
     14 C8          1.2236    0.7395    5.9041 C.3        1 <1>        0.000
     15 C9          0.8616    0.4966    7.3252 C.3        1 <1>        0.000
     16 N4         -0.2974    0.9017    8.0003 N.3        1 <1>        0.000
     17 C10        -1.2152    1.8404    7.4930 C.3        1 <1>        0.000
     18 N5         -0.3490    3.7492    5.8827 N.3        1 <1>        0.000
     19 C12         0.5153    4.8537    5.7295 C.3        1 <1>        0.000
     20 C13         0.4566    5.5943    4.4148 C.3        1 <1>        0.000
     21 H          -1.5838    6.6373    1.9013 H.spc      1 <1>        0.000
     22 H          -3.0191    7.8672    2.0387 H.spc      1 <1>        0.000
     23 H          -3.5588    6.2465    0.5338 H.spc      1 <1>        0.000
     24 H          -4.4156    5.9052    2.1388 H.spc      1 <1>        0.000
     25 H          -3.2307    4.3019    0.4725 H.spc      1 <1>        0.000
     26 H          -2.1079    4.6209    2.1141 H.spc      1 <1>        0.000
     27 H          -3.0444    3.3028    2.9913 H.spc      1 <1>        0.000
     28 H          -3.4270    1.2636    2.2742 H.spc      1 <1>        0.000
     29 H          -3.5402    1.8988    0.5685 H.spc      1 <1>        0.000
     30 H          -1.4723    0.8250    1.7800 H.spc      1 <1>        0.000
     31 H          -1.4700    2.1647    0.3634 H.spc      1 <1>        0.000
     32 H          -1.3056    3.8022    7.5281 H.spc      1 <1>        0.000
     33 H           0.4568    2.8628    7.3626 H.spc      1 <1>        0.000
     34 H          -0.1422    3.0386    1.2977 H.spc      1 <1>        0.000
     35 H           1.2433    1.6799    1.9932 H.spc      1 <1>        0.000
     36 H           0.9044    2.7514    3.4275 H.spc      1 <1>        0.000
     37 H          -0.8989    0.7942    3.4133 H.spc      1 <1>        0.000
     38 H           0.9794    0.1337    3.2284 H.spc      1 <1>        0.000
     39 H          -0.4666    1.2128    5.2525 H.spc      1 <1>        0.000
     40 H           2.0075    0.0177    5.6747 H.spc      1 <1>        0.000
     41 H           1.4777    1.7978    5.8440 H.spc      1 <1>        0.000
     42 H           0.7386   -0.5864    7.3283 H.spc      1 <1>        0.000
     43 H           1.6208    1.0864    7.8390 H.spc      1 <1>        0.000
     44 H          -0.8487    0.0442    8.0356 H.spc      1 <1>        0.000
     45 H          -1.6728    1.4133    6.6006 H.spc      1 <1>        0.000
     46 H          -1.9426    2.0548    8.2759 H.spc      1 <1>        0.000
     47 H           0.1044    3.0242    5.3266 H.spc      1 <1>        0.000
     48 H           0.2146    5.5742    6.4902 H.spc      1 <1>        0.000
     49 H           1.5262    4.4520    5.7995 H.spc      1 <1>        0.000
     50 H           1.4743    5.8496    4.1196 H.spc      1 <1>        0.000
     51 H          -0.0285    4.9511    3.6806 H.spc      1 <1>        0.000
@<TRIPOS>BOND
     1    1   20 1  
     2    1    2 1  
     3    2    3 1  
     4    3    4 1  
     5   19   20 1  
     6   18   19 1  
     7    9   18 1  
     8   17    9 1  
     9   16   17 1  
    10   15   16 1  
    11   14   15 1  
    12   13   14 1  
    13   12   13 1  
    14   11   12 1  
    15   10   11 1  
    16    8   10 1  
    17    7    8 1  
    18    6    7 1  
    19    5    6 1  
    20    4    5 1  
    21    3   21 1  
    22    3   22 1  
    23    4   23 1  
    24    4   24 1  
    25    5   25 1  
    26    5   26 1  
    27    6   27 1  
    28    7   28 1  
    29    7   29 1  
    30    8   30 1  
    31    8   31 1  
    32    9   32 1  
    33    9   33 1  
    34   10   34 1  
    35   11   35 1  
    36   11   36 1  
    37   12   37 1  
    38   12   38 1  
    39   13   39 1  
    40   14   40 1  
    41   14   41 1  
    42   15   42 1  
    43   15   43 1  
    44   16   44 1  
    45   17   45 1  
    46   17   46 1  
    47   18   47 1  
    48   19   48 1  
    49   19   49 1  
    50   20   50 1  
    51   20   51 1  
# Name:          frag4-424-48/48856 -- energy: -3.347314
# Creation time: Sat Jun  5 12:52:20 2010


@<TRIPOS>MOLECULE
frag4-424-48/48856 -- energy: -3.347314
   51    51     1     1     1
SMALL
USER_CHARGES


@<TRIPOS>ATOM
      1 S1         -2.6263    5.8967    5.3733 S.3        1 <1>        0.000
      2 S2         -1.1835    6.6025    4.1449 S.3        1 <1>        0.000
      3 C1         -0.7758    5.5167    2.7917 C.3        1 <1>        0.000
      4 C2         -1.5825    5.7927    1.5473 C.3        1 <1>        0.000
      5 C3         -1.3572    4.7617    0.4929 C.3        1 <1>        0.000
      6 N1         -1.9782    3.5372    0.4926 N.3        1 <1>        0.000
      7 C4         -1.8826    2.2684   -0.1786 C.3        1 <1>        0.000
      8 C5         -2.7651    1.2293    0.4473 C.3        1 <1>        0.000
      9 C11         0.6373    3.4675    8.6447 C.3        1 <1>        0.000
     10 N2         -2.8777    0.9224    1.8202 N.3        1 <1>        0.000
     11 C6         -1.8701    1.2725    2.7493 C.3        1 <1>        0.000
     12 C7         -1.8578    1.0740    4.2146 C.3        1 <1>        0.000
     13 N3         -0.7445    1.2389    5.0791 N.3        1 <1>        0.000
     14 C8          0.5780    1.5006    4.6146 C.3        1 <1>        0.000
     15 C9          1.5663    2.2294    5.4737 C.3        1 <1>        0.000
     16 N4          1.7026    2.2185    6.8504 N.3        1 <1>        0.000
     17 C10         1.8006    3.3098    7.7376 C.3        1 <1>        0.000
     18 N5         -0.7064    3.7241    8.2777 N.3        1 <1>        0.000
     19 C12        -1.0373    4.6300    7.2240 C.3        1 <1>        0.000
     20 C13        -2.2253    4.4018    6.2990 C.3        1 <1>        0.000
     21 H          -0.9941    4.4968    3.1083 H.spc      1 <1>        0.000
     22 H           0.2747    5.6731    2.5467 H.spc      1 <1>        0.000
     23 H          -1.2739    6.7594    1.1493 H.spc      1 <1>        0.000
     24 H          -2.6386    5.7788    1.8165 H.spc      1 <1>        0.000
     25 H          -1.7510    5.2377   -0.4051 H.spc      1 <1>        0.000
     26 H          -0.3057    4.5045    0.6207 H.spc      1 <1>        0.000
     27 H          -1.6346    3.2236    1.4004 H.spc      1 <1>        0.000
     28 H          -2.2008    2.4062   -1.2120 H.spc      1 <1>        0.000
     29 H          -0.8507    1.9242   -0.1086 H.spc      1 <1>        0.000
     30 H          -3.7560    1.6300    0.2335 H.spc      1 <1>        0.000
     31 H          -2.3285    0.3106    0.0556 H.spc      1 <1>        0.000
     32 H           0.5574    2.4665    9.0686 H.spc      1 <1>        0.000
     33 H           0.8966    4.3869    9.1697 H.spc      1 <1>        0.000
     34 H          -3.6845    1.4680    2.1233 H.spc      1 <1>        0.000
     35 H          -1.0676    0.6008    2.4445 H.spc      1 <1>        0.000
     36 H          -1.9053    2.3603    2.6899 H.spc      1 <1>        0.000
     37 H          -2.5192    1.8723    4.5513 H.spc      1 <1>        0.000
     38 H          -2.0425    0.0027    4.2940 H.spc      1 <1>        0.000
     39 H          -0.9784    2.0872    5.5949 H.spc      1 <1>        0.000
     40 H           1.0156    0.5101    4.4895 H.spc      1 <1>        0.000
     41 H           0.4326    2.1610    3.7597 H.spc      1 <1>        0.000
     42 H           2.4922    1.7371    5.1764 H.spc      1 <1>        0.000
     43 H           1.2518    3.2603    5.3112 H.spc      1 <1>        0.000
     44 H           0.8019    1.8282    7.1277 H.spc      1 <1>        0.000
     45 H           2.6745    3.1348    8.3651 H.spc      1 <1>        0.000
     46 H           1.8572    4.2127    7.1295 H.spc      1 <1>        0.000
     47 H          -1.0400    2.8229    7.9355 H.spc      1 <1>        0.000
     48 H          -1.2980    5.5480    7.7506 H.spc      1 <1>        0.000
     49 H          -0.1788    4.5666    6.5554 H.spc      1 <1>        0.000
     50 H          -1.9696    3.6125    5.5921 H.spc      1 <1>        0.000
     51 H          -3.0889    4.1242    6.9033 H.spc      1 <1>        0.000
@<TRIPOS>BOND
     1    1   20 1  
     2    1    2 1  
     3    2    3 1  
     4    3    4 1  
     5   19   20 1  
     6   18   19 1  
     7    9   18 1  
     8   17    9 1  
     9   16   17 1  
    10   15   16 1  
    11   14   15 1  
    12   13   14 1  
    13   12   13 1  
    14   11   12 1  
    15   10   11 1  
    16    8   10 1  
    17    7    8 1  
    18    6    7 1  
    19    5    6 1  
    20    4    5 1  
    21    3   21 1  
    22    3   22 1  
    23    4   23 1  
    24    4   24 1  
    25    5   25 1  
    26    5   26 1  
    27    6   27 1  
    28    7   28 1  
    29    7   29 1  
    30    8   30 1  
    31    8   31 1  
    32    9   32 1  
    33    9   33 1  
    34   10   34 1  
    35   11   35 1  
    36   11   36 1  
    37   12   37 1  
    38   12   38 1  
    39   13   39 1  
    40   14   40 1  
    41   14   41 1  
    42   15   42 1  
    43   15   43 1  
    44   16   44 1  
    45   17   45 1  
    46   17   46 1  
    47   18   47 1  
    48   19   48 1  
    49   19   49 1  
    50   20   50 1  
    51   20   51 1  
# Name:          frag4-424-48/48856 -- energy: -7.438247
# Creation time: Sat Jun  5 12:52:20 2010


@<TRIPOS>MOLECULE
frag4-424-48/48856 -- energy: -7.438247
   51    51     1     1     1
SMALL
USER_CHARGES


@<TRIPOS>ATOM
      1 S1         -0.7652    7.2262    3.6668 S.3        1 <1>        0.000
      2 S2         -2.6630    7.7948    3.5021 S.3        1 <1>        0.000
      3 C1         -3.8263    6.6231    2.8165 C.3        1 <1>        0.000
      4 C2         -3.4115    5.2392    2.3728 C.3        1 <1>        0.000
      5 C3         -2.4158    5.0833    1.2518 C.3        1 <1>        0.000
      6 N1         -1.7678    3.8915    0.8077 N.3        1 <1>        0.000
      7 C4         -0.4891    3.4237    1.2383 C.3        1 <1>        0.000
      8 C5         -0.5595    2.0944    1.8698 C.3        1 <1>        0.000
      9 C11         0.1886    3.4716    6.6426 C.3        1 <1>        0.000
     10 N2         -1.7192    1.5756    2.4429 N.3        1 <1>        0.000
     11 C6         -1.9053    0.4535    3.2599 C.3        1 <1>        0.000
     12 C7         -1.0229    0.4052    4.4373 C.3        1 <1>        0.000
     13 N3          0.1172   -0.3612    4.6953 N.3        1 <1>        0.000
     14 C8          0.3824   -0.9966    5.9269 C.3        1 <1>        0.000
     15 C9          0.7227   -0.0755    7.0408 C.3        1 <1>        0.000
     16 N4          1.2000    1.2382    6.8847 N.3        1 <1>        0.000
     17 C10         0.8247    2.4430    7.5197 C.3        1 <1>        0.000
     18 N5         -0.6882    4.5429    6.8945 N.3        1 <1>        0.000
     19 C12        -1.0837    5.6442    6.0663 C.3        1 <1>        0.000
     20 C13        -0.3035    5.8775    4.7596 C.3        1 <1>        0.000
     21 H          -4.1513    7.0995    1.8916 H.spc      1 <1>        0.000
     22 H          -4.5098    6.4304    3.6434 H.spc      1 <1>        0.000
     23 H          -4.3270    4.7855    1.9933 H.spc      1 <1>        0.000
     24 H          -2.9168    4.8076    3.2429 H.spc      1 <1>        0.000
     25 H          -3.0370    5.3173    0.3872 H.spc      1 <1>        0.000
     26 H          -1.5695    5.6466    1.6449 H.spc      1 <1>        0.000
     27 H          -2.3895    3.1669    1.1667 H.spc      1 <1>        0.000
     28 H           0.1540    3.3465    0.3616 H.spc      1 <1>        0.000
     29 H          -0.1041    4.1273    1.9764 H.spc      1 <1>        0.000
     30 H          -0.3755    1.4176    1.0354 H.spc      1 <1>        0.000
     31 H           0.1114    2.1935    2.7231 H.spc      1 <1>        0.000
     32 H           1.0785    4.0384    6.3689 H.spc      1 <1>        0.000
     33 H          -0.4862    2.8254    6.0812 H.spc      1 <1>        0.000
     34 H          -1.9391    2.3186    3.1062 H.spc      1 <1>        0.000
     35 H          -2.9299    0.4935    3.6296 H.spc      1 <1>        0.000
     36 H          -1.6789   -0.4241    2.6543 H.spc      1 <1>        0.000
     37 H          -0.5737    1.3965    4.3767 H.spc      1 <1>        0.000
     38 H          -1.7078   -0.0242    5.1684 H.spc      1 <1>        0.000
     39 H           0.0067   -1.1487    4.0565 H.spc      1 <1>        0.000
     40 H          -0.5287   -1.5204    6.2159 H.spc      1 <1>        0.000
     41 H           1.2486   -1.6398    5.7716 H.spc      1 <1>        0.000
     42 H          -0.2460    0.0841    7.5143 H.spc      1 <1>        0.000
     43 H           1.5713   -0.5771    7.5059 H.spc      1 <1>        0.000
     44 H           2.1418    1.1282    7.2605 H.spc      1 <1>        0.000
     45 H           0.0802    2.1759    8.2697 H.spc      1 <1>        0.000
     46 H           1.7438    2.8892    7.8996 H.spc      1 <1>        0.000
     47 H          -1.5726    4.0379    6.9513 H.spc      1 <1>        0.000
     48 H          -2.1060    5.4241    5.7589 H.spc      1 <1>        0.000
     49 H          -0.9144    6.5365    6.6690 H.spc      1 <1>        0.000
     50 H           0.7068    6.1246    5.0858 H.spc      1 <1>        0.000
     51 H          -0.4813    4.9771    4.1715 H.spc      1 <1>        0.000
@<TRIPOS>BOND
     1    1   20 1  
     2    1    2 1  
     3    2    3 1  
     4    3    4 1  
     5   19   20 1  
     6   18   19 1  
     7    9   18 1  
     8   17    9 1  
     9   16   17 1  
    10   15   16 1  
    11   14   15 1  
    12   13   14 1  
    13   12   13 1  
    14   11   12 1  
    15   10   11 1  
    16    8   10 1  
    17    7    8 1  
    18    6    7 1  
    19    5    6 1  
    20    4    5 1  
    21    3   21 1  
    22    3   22 1  
    23    4   23 1  
    24    4   24 1  
    25    5   25 1  
    26    5   26 1  
    27    6   27 1  
    28    7   28 1  
    29    7   29 1  
    30    8   30 1  
    31    8   31 1  
    32    9   32 1  
    33    9   33 1  
    34   10   34 1  
    35   11   35 1  
    36   11   36 1  
    37   12   37 1  
    38   12   38 1  
    39   13   39 1  
    40   14   40 1  
    41   14   41 1  
    42   15   42 1  
    43   15   43 1  
    44   16   44 1  
    45   17   45 1  
    46   17   46 1  
    47   18   47 1  
    48   19   48 1  
    49   19   49 1  
    50   20   50 1  
    51   20   51 1  
# Name:          frag4-424-48/48856 -- energy: -5.685472
# Creation time: Sat Jun  5 12:52:20 2010


@<TRIPOS>MOLECULE
frag4-424-48/48856 -- energy: -5.685472
   51    51     1     1     1
SMALL
USER_CHARGES


@<TRIPOS>ATOM
      1 S1         -2.3569    6.9192    5.6479 S.3        1 <1>        0.000
      2 S2         -2.6760    6.0322    3.8695 S.3        1 <1>        0.000
      3 C1         -1.1453    5.9947    2.9540 C.3        1 <1>        0.000
      4 C2         -1.0395    5.4937    1.5402 C.3        1 <1>        0.000
      5 C3         -1.3493    4.0651    1.2305 C.3        1 <1>        0.000
      6 N1         -2.3121    3.6189    0.3114 N.3        1 <1>        0.000
      7 C4         -2.6733    2.3496   -0.1791 C.3        1 <1>        0.000
      8 C5         -3.1560    1.3095    0.7637 C.3        1 <1>        0.000
      9 C11         0.3256    3.8666    8.3785 C.3        1 <1>        0.000
     10 N2         -2.4196    0.3313    1.4564 N.3        1 <1>        0.000
     11 C6         -1.8145    0.7158    2.6713 C.3        1 <1>        0.000
     12 C7         -1.3815   -0.1401    3.7843 C.3        1 <1>        0.000
     13 N3         -0.2788    0.0776    4.6553 N.3        1 <1>        0.000
     14 C8          0.8691    0.8628    4.4748 C.3        1 <1>        0.000
     15 C9          1.3849    1.6083    5.6551 C.3        1 <1>        0.000
     16 N4          0.6832    2.0032    6.8002 N.3        1 <1>        0.000
     17 C10         1.1534    2.7296    7.9214 C.3        1 <1>        0.000
     18 N5          0.4267    5.2286    8.0542 N.3        1 <1>        0.000
     19 C12        -0.6334    6.1405    7.7953 C.3        1 <1>        0.000
     20 C13        -0.7922    6.3875    6.3111 C.3        1 <1>        0.000
     21 H          -0.5423    5.2795    3.5135 H.spc      1 <1>        0.000
     22 H          -0.8897    7.0501    2.8600 H.spc      1 <1>        0.000
     23 H           0.0153    5.6051    1.2892 H.spc      1 <1>        0.000
     24 H          -1.7917    6.0613    0.9923 H.spc      1 <1>        0.000
     25 H          -0.4211    3.7249    0.7714 H.spc      1 <1>        0.000
     26 H          -1.7560    3.7096    2.1773 H.spc      1 <1>        0.000
     27 H          -3.1528    3.8246    0.8512 H.spc      1 <1>        0.000
     28 H          -3.5207    2.5393   -0.8380 H.spc      1 <1>        0.000
     29 H          -1.7512    1.9409   -0.5923 H.spc      1 <1>        0.000
     30 H          -3.4961    1.9305    1.5924 H.spc      1 <1>        0.000
     31 H          -3.7409    0.6827    0.0905 H.spc      1 <1>        0.000
     32 H          -0.6273    3.6204    7.9101 H.spc      1 <1>        0.000
     33 H           0.5899    3.8933    9.4356 H.spc      1 <1>        0.000
     34 H          -3.0903   -0.3973    1.7007 H.spc      1 <1>        0.000
     35 H          -0.8559    1.0929    2.3150 H.spc      1 <1>        0.000
     36 H          -2.6268    1.2708    3.1407 H.spc      1 <1>        0.000
     37 H          -2.2221   -0.0430    4.4714 H.spc      1 <1>        0.000
     38 H          -1.0649   -1.0390    3.2553 H.spc      1 <1>        0.000
     39 H          -0.7377    0.5944    5.4055 H.spc      1 <1>        0.000
     40 H           1.6607    0.1659    4.1994 H.spc      1 <1>        0.000
     41 H           0.5919    1.6240    3.7455 H.spc      1 <1>        0.000
     42 H           2.0785    0.8801    6.0756 H.spc      1 <1>        0.000
     43 H           1.6155    2.5750    5.2074 H.spc      1 <1>        0.000
     44 H           0.0269    2.6736    6.4001 H.spc      1 <1>        0.000
     45 H           1.1702    2.0213    8.7497 H.spc      1 <1>        0.000
     46 H           2.1086    3.1590    7.6191 H.spc      1 <1>        0.000
     47 H           0.8107    5.6106    8.9185 H.spc      1 <1>        0.000
     48 H          -1.5605    5.7141    8.1783 H.spc      1 <1>        0.000
     49 H          -0.4044    7.0879    8.2832 H.spc      1 <1>        0.000
     50 H          -0.1159    7.2164    6.1024 H.spc      1 <1>        0.000
     51 H          -0.6251    5.4110    5.8565 H.spc      1 <1>        0.000
@<TRIPOS>BOND
     1    1   20 1  
     2    1    2 1  
     3    2    3 1  
     4    3    4 1  
     5   19   20 1  
     6   18   19 1  
     7    9   18 1  
     8   17    9 1  
     9   16   17 1  
    10   15   16 1  
    11   14   15 1  
    12   13   14 1  
    13   12   13 1  
    14   11   12 1  
    15   10   11 1  
    16    8   10 1  
    17    7    8 1  
    18    6    7 1  
    19    5    6 1  
    20    4    5 1  
    21    3   21 1  
    22    3   22 1  
    23    4   23 1  
    24    4   24 1  
    25    5   25 1  
    26    5   26 1  
    27    6   27 1  
    28    7   28 1  
    29    7   29 1  
    30    8   30 1  
    31    8   31 1  
    32    9   32 1  
    33    9   33 1  
    34   10   34 1  
    35   11   35 1  
    36   11   36 1  
    37   12   37 1  
    38   12   38 1  
    39   13   39 1  
    40   14   40 1  
    41   14   41 1  
    42   15   42 1  
    43   15   43 1  
    44   16   44 1  
    45   17   45 1  
    46   17   46 1  
    47   18   47 1  
    48   19   48 1  
    49   19   49 1  
    50   20   50 1  
    51   20   51 1  
# Name:          frag4-424-48/48856 -- energy: -7.181771
# Creation time: Sat Jun  5 12:52:20 2010


@<TRIPOS>MOLECULE
frag4-424-48/48856 -- energy: -7.181771
   51    51     1     1     1
SMALL
USER_CHARGES


@<TRIPOS>ATOM
      1 S1         -1.8170    8.5149    5.2334 S.3        1 <1>        0.000
      2 S2         -2.4778    7.6017    3.5772 S.3        1 <1>        0.000
      3 C1         -1.2190    6.7494    2.6535 C.3        1 <1>        0.000
      4 C2         -1.3884    5.2803    2.3837 C.3        1 <1>        0.000
      5 C3         -2.6265    4.7817    1.7424 C.3        1 <1>        0.000
      6 N1         -2.8187    3.4837    1.2214 N.3        1 <1>        0.000
      7 C4         -1.9672    2.4086    1.5043 C.3        1 <1>        0.000
      8 C5         -2.5443    1.0695    1.7945 C.3        1 <1>        0.000
      9 C11        -0.6694    3.7764    7.1201 C.3        1 <1>        0.000
     10 N2         -1.8694   -0.0712    2.2680 N.3        1 <1>        0.000
     11 C6         -0.4999   -0.3113    2.0142 C.3        1 <1>        0.000
     12 C7          0.3484   -1.1611    2.8801 C.3        1 <1>        0.000
     13 N3          0.8668   -0.8129    4.1361 N.3        1 <1>        0.000
     14 C8          0.2573    0.1787    4.9312 C.3        1 <1>        0.000
     15 C9          0.8284    0.6494    6.1976 C.3        1 <1>        0.000
     16 N4          0.9247    1.9815    6.6145 N.3        1 <1>        0.000
     17 C10         0.1464    2.6366    7.5880 C.3        1 <1>        0.000
     18 N5         -0.4317    5.1583    7.1201 N.3        1 <1>        0.000
     19 C12        -1.3818    6.1478    6.7346 C.3        1 <1>        0.000
     20 C13        -0.8463    7.5328    6.3812 C.3        1 <1>        0.000
     21 H          -0.3207    6.8223    3.2665 H.spc      1 <1>        0.000
     22 H          -1.2231    7.2195    1.6701 H.spc      1 <1>        0.000
     23 H          -1.3900    4.8207    3.3721 H.spc      1 <1>        0.000
     24 H          -0.5983    5.0417    1.6718 H.spc      1 <1>        0.000
     25 H          -3.3350    4.8013    2.5705 H.spc      1 <1>        0.000
     26 H          -2.6810    5.3972    0.8445 H.spc      1 <1>        0.000
     27 H          -3.7017    3.1950    1.6425 H.spc      1 <1>        0.000
     28 H          -1.3894    2.2673    0.5909 H.spc      1 <1>        0.000
     29 H          -1.4591    2.6948    2.4252 H.spc      1 <1>        0.000
     30 H          -3.1958    1.2969    2.6383 H.spc      1 <1>        0.000
     31 H          -2.8386    0.7438    0.7968 H.spc      1 <1>        0.000
     32 H          -0.6461    3.5880    6.0468 H.spc      1 <1>        0.000
     33 H          -1.4792    3.7313    7.8483 H.spc      1 <1>        0.000
     34 H          -1.9030    0.0412    3.2812 H.spc      1 <1>        0.000
     35 H          -0.5161   -0.8585    1.0717 H.spc      1 <1>        0.000
     36 H          -0.0521    0.6764    2.1235 H.spc      1 <1>        0.000
     37 H          -0.3372   -1.9680    3.1390 H.spc      1 <1>        0.000
     38 H           1.2557   -1.2505    2.2827 H.spc      1 <1>        0.000
     39 H           0.7659   -1.6651    4.6875 H.spc      1 <1>        0.000
     40 H           0.2963    1.0643    4.2969 H.spc      1 <1>        0.000
     41 H          -0.6774   -0.2899    5.2393 H.spc      1 <1>        0.000
     42 H           0.1292    0.2373    6.9252 H.spc      1 <1>        0.000
     43 H           1.8770    0.3735    6.0863 H.spc      1 <1>        0.000
     44 H           1.8425    1.9843    7.0594 H.spc      1 <1>        0.000
     45 H          -0.5582    1.8938    7.9620 H.spc      1 <1>        0.000
     46 H           0.8502    3.0458    8.3127 H.spc      1 <1>        0.000
     47 H          -0.2989    5.3573    8.1116 H.spc      1 <1>        0.000
     48 H          -1.8476    5.7706    5.8242 H.spc      1 <1>        0.000
     49 H          -2.0251    6.2929    7.6024 H.spc      1 <1>        0.000
     50 H          -0.8337    8.0939    7.3156 H.spc      1 <1>        0.000
     51 H           0.1127    7.3646    5.8912 H.spc      1 <1>        0.000
@<TRIPOS>BOND
     1    1   20 1  
     2    1    2 1  
     3    2    3 1  
     4    3    4 1  
     5   19   20 1  
     6   18   19 1  
     7    9   18 1  
     8   17    9 1  
     9   16   17 1  
    10   15   16 1  
    11   14   15 1  
    12   13   14 1  
    13   12   13 1  
    14   11   12 1  
    15   10   11 1  
    16    8   10 1  
    17    7    8 1  
    18    6    7 1  
    19    5    6 1  
    20    4    5 1  
    21    3   21 1  
    22    3   22 1  
    23    4   23 1  
    24    4   24 1  
    25    5   25 1  
    26    5   26 1  
    27    6   27 1  
    28    7   28 1  
    29    7   29 1  
    30    8   30 1  
    31    8   31 1  
    32    9   32 1  
    33    9   33 1  
    34   10   34 1  
    35   11   35 1  
    36   11   36 1  
    37   12   37 1  
    38   12   38 1  
    39   13   39 1  
    40   14   40 1  
    41   14   41 1  
    42   15   42 1  
    43   15   43 1  
    44   16   44 1  
    45   17   45 1  
    46   17   46 1  
    47   18   47 1  
    48   19   48 1  
    49   19   49 1  
    50   20   50 1  
    51   20   51 1  
# Name:          frag4-424-48/48856 -- energy: -4.203454
# Creation time: Sat Jun  5 12:52:20 2010


@<TRIPOS>MOLECULE
frag4-424-48/48856 -- energy: -4.203454
   51    51     1     1     1
SMALL
USER_CHARGES


@<TRIPOS>ATOM
      1 S1          0.1976    6.9933    4.2450 S.3        1 <1>        0.000
      2 S2         -1.5985    7.1051    3.3314 S.3        1 <1>        0.000
      3 C1         -2.3380    5.4898    3.1333 C.3        1 <1>        0.000
      4 C2         -3.7234    5.2618    2.5589 C.3        1 <1>        0.000
      5 C3         -4.0709    3.8078    2.5800 C.3        1 <1>        0.000
      6 N1         -3.2131    2.6944    2.6083 N.3        1 <1>        0.000
      7 C4         -2.4469    2.0949    1.5770 C.3        1 <1>        0.000
      8 C5         -0.9998    2.4335    1.4887 C.3        1 <1>        0.000
      9 C11        -0.0891    3.5206    7.2878 C.3        1 <1>        0.000
     10 N2          0.1497    1.8307    2.0396 N.3        1 <1>        0.000
     11 C6          0.3015    0.4931    2.5022 C.3        1 <1>        0.000
     12 C7          1.0709    0.1899    3.7370 C.3        1 <1>        0.000
     13 N3          0.5719   -0.2645    4.9813 N.3        1 <1>        0.000
     14 C8         -0.7939   -0.0868    5.3612 C.3        1 <1>        0.000
     15 C9         -1.2537    1.3299    5.3207 C.3        1 <1>        0.000
     16 N4         -0.4625    2.4625    5.0644 N.3        1 <1>        0.000
     17 C10         0.4711    3.0391    6.0093 C.3        1 <1>        0.000
     18 N5         -0.4986    4.8252    7.6321 N.3        1 <1>        0.000
     19 C12        -0.8183    5.8407    6.6717 C.3        1 <1>        0.000
     20 C13         0.3586    6.5336    5.9659 C.3        1 <1>        0.000
     21 H          -2.4421    5.1433    4.1615 H.spc      1 <1>        0.000
     22 H          -1.6894    5.0151    2.3970 H.spc      1 <1>        0.000
     23 H          -3.7395    5.6132    1.5272 H.spc      1 <1>        0.000
     24 H          -4.4494    5.8066    3.1625 H.spc      1 <1>        0.000
     25 H          -4.5407    3.7262    3.5601 H.spc      1 <1>        0.000
     26 H          -4.5195    3.6926    1.5933 H.spc      1 <1>        0.000
     27 H          -2.4648    3.0605    3.1968 H.spc      1 <1>        0.000
     28 H          -2.4800    1.0244    1.7794 H.spc      1 <1>        0.000
     29 H          -2.8842    2.4566    0.6464 H.spc      1 <1>        0.000
     30 H          -0.8289    2.2143    0.4347 H.spc      1 <1>        0.000
     31 H          -0.9998    3.3666    2.0522 H.spc      1 <1>        0.000
     32 H          -1.0436    2.9946    7.3047 H.spc      1 <1>        0.000
     33 H           0.7685    3.3935    7.9485 H.spc      1 <1>        0.000
     34 H           0.7766    1.8322    1.2350 H.spc      1 <1>        0.000
     35 H          -0.7148    0.1805    2.7419 H.spc      1 <1>        0.000
     36 H           0.8698    0.0038    1.7111 H.spc      1 <1>        0.000
     37 H           1.6535   -0.6735    3.4156 H.spc      1 <1>        0.000
     38 H           1.4369    1.1808    4.0059 H.spc      1 <1>        0.000
     39 H           0.6747   -1.2777    4.9247 H.spc      1 <1>        0.000
     40 H          -1.4029   -0.6452    4.6503 H.spc      1 <1>        0.000
     41 H          -0.8905   -0.4292    6.3915 H.spc      1 <1>        0.000
     42 H          -1.9128    1.3218    4.4526 H.spc      1 <1>        0.000
     43 H          -1.5447    1.4958    6.3580 H.spc      1 <1>        0.000
     44 H           0.1504    2.1401    4.3155 H.spc      1 <1>        0.000
     45 H           1.1664    2.2408    6.2686 H.spc      1 <1>        0.000
     46 H           0.8920    3.9160    5.5174 H.spc      1 <1>        0.000
     47 H          -1.3915    4.6662    8.0989 H.spc      1 <1>        0.000
     48 H          -1.3814    5.3382    5.8852 H.spc      1 <1>        0.000
     49 H          -1.3327    6.6239    7.2285 H.spc      1 <1>        0.000
     50 H           0.4846    7.4777    6.4959 H.spc      1 <1>        0.000
     51 H           1.1651    5.8006    5.9843 H.spc      1 <1>        0.000
@<TRIPOS>BOND
     1    1   20 1  
     2    1    2 1  
     3    2    3 1  
     4    3    4 1  
     5   19   20 1  
     6   18   19 1  
     7    9   18 1  
     8   17    9 1  
     9   16   17 1  
    10   15   16 1  
    11   14   15 1  
    12   13   14 1  
    13   12   13 1  
    14   11   12 1  
    15   10   11 1  
    16    8   10 1  
    17    7    8 1  
    18    6    7 1  
    19    5    6 1  
    20    4    5 1  
    21    3   21 1  
    22    3   22 1  
    23    4   23 1  
    24    4   24 1  
    25    5   25 1  
    26    5   26 1  
    27    6   27 1  
    28    7   28 1  
    29    7   29 1  
    30    8   30 1  
    31    8   31 1  
    32    9   32 1  
    33    9   33 1  
    34   10   34 1  
    35   11   35 1  
    36   11   36 1  
    37   12   37 1  
    38   12   38 1  
    39   13   39 1  
    40   14   40 1  
    41   14   41 1  
    42   15   42 1  
    43   15   43 1  
    44   16   44 1  
    45   17   45 1  
    46   17   46 1  
    47   18   47 1  
    48   19   48 1  
    49   19   49 1  
    50   20   50 1  
    51   20   51 1  
# Name:          frag4-424-48/48856 -- energy: -7.184692
# Creation time: Sat Jun  5 12:52:20 2010


@<TRIPOS>MOLECULE
frag4-424-48/48856 -- energy: -7.184692
   51    51     1     1     1
SMALL
USER_CHARGES


@<TRIPOS>ATOM
      1 S1         -0.0978    7.1671    4.7322 S.3        1 <1>        0.000
      2 S2         -1.9593    7.2247    3.9896 S.3        1 <1>        0.000
      3 C1         -2.1319    6.3117    2.4567 C.3        1 <1>        0.000
      4 C2         -3.5329    6.0163    1.9510 C.3        1 <1>        0.000
      5 C3         -4.0175    4.5986    1.9666 C.3        1 <1>        0.000
      6 N1         -3.4028    3.3485    2.0039 N.3        1 <1>        0.000
      7 C4         -2.0395    2.9688    1.9156 C.3        1 <1>        0.000
      8 C5         -1.7012    1.6265    1.4292 C.3        1 <1>        0.000
      9 C11        -1.7847    3.3972    7.1291 C.3        1 <1>        0.000
     10 N2         -1.0555    0.5958    2.1165 N.3        1 <1>        0.000
     11 C6          0.2875    0.1929    2.0800 C.3        1 <1>        0.000
     12 C7          1.1215    0.3406    3.2804 C.3        1 <1>        0.000
     13 N3          0.9507    1.2701    4.3012 N.3        1 <1>        0.000
     14 C8          1.6257    1.2608    5.5398 C.3        1 <1>        0.000
     15 C9          0.8122    0.9859    6.7370 C.3        1 <1>        0.000
     16 N4         -0.5719    1.2205    6.8953 N.3        1 <1>        0.000
     17 C10        -1.1469    2.2040    7.7540 C.3        1 <1>        0.000
     18 N5         -1.2445    4.5079    6.4584 N.3        1 <1>        0.000
     19 C12         0.1404    4.8267    6.3227 C.3        1 <1>        0.000
     20 C13         0.5630    5.5301    5.0369 C.3        1 <1>        0.000
     21 H          -1.6850    5.3367    2.6511 H.spc      1 <1>        0.000
     22 H          -1.6781    6.9436    1.6932 H.spc      1 <1>        0.000
     23 H          -3.5208    6.3007    0.8988 H.spc      1 <1>        0.000
     24 H          -4.1981    6.5512    2.6288 H.spc      1 <1>        0.000
     25 H          -4.4569    4.5907    2.9641 H.spc      1 <1>        0.000
     26 H          -4.4114    4.5530    0.9513 H.spc      1 <1>        0.000
     27 H          -3.5899    3.0936    2.9737 H.spc      1 <1>        0.000
     28 H          -1.6069    3.6491    1.1820 H.spc      1 <1>        0.000
     29 H          -1.6754    2.9938    2.9427 H.spc      1 <1>        0.000
     30 H          -2.6942    1.1973    1.2957 H.spc      1 <1>        0.000
     31 H          -0.9607    1.8627    0.6651 H.spc      1 <1>        0.000
     32 H          -2.2953    2.9138    6.2962 H.spc      1 <1>        0.000
     33 H          -2.1596    3.8919    8.0251 H.spc      1 <1>        0.000
     34 H          -1.1147    0.9481    3.0719 H.spc      1 <1>        0.000
     35 H           0.2486   -0.8817    1.9013 H.spc      1 <1>        0.000
     36 H           0.7513    0.8448    1.3397 H.spc      1 <1>        0.000
     37 H           0.9245   -0.5964    3.8013 H.spc      1 <1>        0.000
     38 H           2.0711    0.6588    2.8502 H.spc      1 <1>        0.000
     39 H           1.3033    2.1257    3.8722 H.spc      1 <1>        0.000
     40 H           2.3522    0.4505    5.4789 H.spc      1 <1>        0.000
     41 H           2.0226    2.2673    5.6721 H.spc      1 <1>        0.000
     42 H           0.8551   -0.1022    6.7838 H.spc      1 <1>        0.000
     43 H           1.2354    1.6897    7.4537 H.spc      1 <1>        0.000
     44 H          -0.8408    1.5573    5.9708 H.spc      1 <1>        0.000
     45 H          -1.9511    1.6908    8.2812 H.spc      1 <1>        0.000
     46 H          -0.3155    2.5959    8.3399 H.spc      1 <1>        0.000
     47 H          -1.5076    4.3140    5.4922 H.spc      1 <1>        0.000
     48 H           0.3678    5.5210    7.1316 H.spc      1 <1>        0.000
     49 H           0.6685    3.8732    6.3290 H.spc      1 <1>        0.000
     50 H           1.6424    5.6599    5.1152 H.spc      1 <1>        0.000
     51 H           0.1876    4.9070    4.2252 H.spc      1 <1>        0.000
@<TRIPOS>BOND
     1    1   20 1  
     2    1    2 1  
     3    2    3 1  
     4    3    4 1  
     5   19   20 1  
     6   18   19 1  
     7    9   18 1  
     8   17    9 1  
     9   16   17 1  
    10   15   16 1  
    11   14   15 1  
    12   13   14 1  
    13   12   13 1  
    14   11   12 1  
    15   10   11 1  
    16    8   10 1  
    17    7    8 1  
    18    6    7 1  
    19    5    6 1  
    20    4    5 1  
    21    3   21 1  
    22    3   22 1  
    23    4   23 1  
    24    4   24 1  
    25    5   25 1  
    26    5   26 1  
    27    6   27 1  
    28    7   28 1  
    29    7   29 1  
    30    8   30 1  
    31    8   31 1  
    32    9   32 1  
    33    9   33 1  
    34   10   34 1  
    35   11   35 1  
    36   11   36 1  
    37   12   37 1  
    38   12   38 1  
    39   13   39 1  
    40   14   40 1  
    41   14   41 1  
    42   15   42 1  
    43   15   43 1  
    44   16   44 1  
    45   17   45 1  
    46   17   46 1  
    47   18   47 1  
    48   19   48 1  
    49   19   49 1  
    50   20   50 1  
    51   20   51 1  
# Name:          frag4-424-48/48856 -- energy: -6.811116
# Creation time: Sat Jun  5 12:52:20 2010


@<TRIPOS>MOLECULE
frag4-424-48/48856 -- energy: -6.811116
   51    51     1     1     1
SMALL
USER_CHARGES


@<TRIPOS>ATOM
      1 S1         -0.6974    6.5427    4.1873 S.3        1 <1>        0.000
      2 S2         -2.0679    7.5858    3.1303 S.3        1 <1>        0.000
      3 C1         -3.5272    6.7213    2.4992 C.3        1 <1>        0.000
      4 C2         -3.4794    5.9164    1.2084 C.3        1 <1>        0.000
      5 C3         -2.2537    5.0717    1.0071 C.3        1 <1>        0.000
      6 N1         -2.1800    3.7475    0.4066 N.3        1 <1>        0.000
      7 C4         -1.1560    2.7888    0.7003 C.3        1 <1>        0.000
      8 C5         -1.7059    1.4131    0.8706 C.3        1 <1>        0.000
      9 C11         0.8493    3.4128    7.5110 C.3        1 <1>        0.000
     10 N2         -2.0759    0.7887    2.1036 N.3        1 <1>        0.000
     11 C6         -2.0028    1.2392    3.4469 C.3        1 <1>        0.000
     12 C7         -0.6523    1.2177    4.0787 C.3        1 <1>        0.000
     13 N3          0.2426    0.1894    4.3311 N.3        1 <1>        0.000
     14 C8          0.4268   -0.4312    5.6238 C.3        1 <1>        0.000
     15 C9          1.1525    0.3662    6.6422 C.3        1 <1>        0.000
     16 N4          0.5459    1.0016    7.7693 N.3        1 <1>        0.000
     17 C10         1.0360    2.2286    8.3570 C.3        1 <1>        0.000
     18 N5         -0.1748    4.3952    7.5821 N.3        1 <1>        0.000
     19 C12        -0.2343    5.6458    6.9062 C.3        1 <1>        0.000
     20 C13        -1.2309    5.7535    5.7340 C.3        1 <1>        0.000
     21 H          -4.2301    7.5247    2.2787 H.spc      1 <1>        0.000
     22 H          -3.7375    5.9737    3.2641 H.spc      1 <1>        0.000
     23 H          -3.4900    6.6410    0.3942 H.spc      1 <1>        0.000
     24 H          -4.3240    5.2283    1.2442 H.spc      1 <1>        0.000
     25 H          -1.7011    5.6669    0.2802 H.spc      1 <1>        0.000
     26 H          -1.9721    4.8549    2.0375 H.spc      1 <1>        0.000
     27 H          -3.0213    3.2930    0.7616 H.spc      1 <1>        0.000
     28 H          -0.4556    2.7735   -0.1348 H.spc      1 <1>        0.000
     29 H          -0.6756    3.0805    1.6343 H.spc      1 <1>        0.000
     30 H          -2.6699    1.4979    0.3690 H.spc      1 <1>        0.000
     31 H          -0.8620    0.7985    0.5574 H.spc      1 <1>        0.000
     32 H           1.7223    4.0040    7.7875 H.spc      1 <1>        0.000
     33 H           0.6232    2.9477    6.5515 H.spc      1 <1>        0.000
     34 H          -3.0888    0.7641    1.9860 H.spc      1 <1>        0.000
     35 H          -2.3152    2.2834    3.4342 H.spc      1 <1>        0.000
     36 H          -2.6214    0.5569    4.0299 H.spc      1 <1>        0.000
     37 H          -0.0908    1.7604    3.3182 H.spc      1 <1>        0.000
     38 H          -0.9302    1.4678    5.1026 H.spc      1 <1>        0.000
     39 H          -0.1318   -0.5747    3.7686 H.spc      1 <1>        0.000
     40 H          -0.5731   -0.5959    6.0252 H.spc      1 <1>        0.000
     41 H           1.0323   -1.3205    5.4486 H.spc      1 <1>        0.000
     42 H           1.7906   -0.3821    7.1124 H.spc      1 <1>        0.000
     43 H           1.5105    1.2159    6.0608 H.spc      1 <1>        0.000
     44 H          -0.3710    1.2706    7.4126 H.spc      1 <1>        0.000
     45 H           0.4719    2.3951    9.2747 H.spc      1 <1>        0.000
     46 H           2.1083    2.1073    8.5108 H.spc      1 <1>        0.000
     47 H          -0.9534    3.8996    7.1479 H.spc      1 <1>        0.000
     48 H          -0.5644    6.3726    7.6484 H.spc      1 <1>        0.000
     49 H           0.7545    5.8009    6.4746 H.spc      1 <1>        0.000
     50 H          -1.4516    4.7220    5.4595 H.spc      1 <1>        0.000
     51 H          -2.0346    6.3876    6.1082 H.spc      1 <1>        0.000
@<TRIPOS>BOND
     1    1   20 1  
     2    1    2 1  
     3    2    3 1  
     4    3    4 1  
     5   19   20 1  
     6   18   19 1  
     7    9   18 1  
     8   17    9 1  
     9   16   17 1  
    10   15   16 1  
    11   14   15 1  
    12   13   14 1  
    13   12   13 1  
    14   11   12 1  
    15   10   11 1  
    16    8   10 1  
    17    7    8 1  
    18    6    7 1  
    19    5    6 1  
    20    4    5 1  
    21    3   21 1  
    22    3   22 1  
    23    4   23 1  
    24    4   24 1  
    25    5   25 1  
    26    5   26 1  
    27    6   27 1  
    28    7   28 1  
    29    7   29 1  
    30    8   30 1  
    31    8   31 1  
    32    9   32 1  
    33    9   33 1  
    34   10   34 1  
    35   11   35 1  
    36   11   36 1  
    37   12   37 1  
    38   12   38 1  
    39   13   39 1  
    40   14   40 1  
    41   14   41 1  
    42   15   42 1  
    43   15   43 1  
    44   16   44 1  
    45   17   45 1  
    46   17   46 1  
    47   18   47 1  
    48   19   48 1  
    49   19   49 1  
    50   20   50 1  
    51   20   51 1  
# Name:          frag4-424-48/48856 -- energy: -7.055873
# Creation time: Sat Jun  5 12:52:20 2010


@<TRIPOS>MOLECULE
frag4-424-48/48856 -- energy: -7.055873
   51    51     1     1     1
SMALL
USER_CHARGES


@<TRIPOS>ATOM
      1 S1         -2.2576    8.1963    5.7823 S.3        1 <1>        0.000
      2 S2         -1.7908    8.1550    3.8265 S.3        1 <1>        0.000
      3 C1         -2.5370    6.8141    2.8927 C.3        1 <1>        0.000
      4 C2         -1.8529    5.4556    2.9610 C.3        1 <1>        0.000
      5 C3         -1.9703    4.4785    1.8386 C.3        1 <1>        0.000
      6 N1         -1.6411    3.1006    1.8259 N.3        1 <1>        0.000
      7 C4         -1.9940    2.0956    0.8805 C.3        1 <1>        0.000
      8 C5         -1.3334    0.7649    0.7726 C.3        1 <1>        0.000
      9 C11         0.0539    4.2820    7.7125 C.3        1 <1>        0.000
     10 N2         -1.6843   -0.5010    1.2841 N.3        1 <1>        0.000
     11 C6         -1.6796   -0.9438    2.6183 C.3        1 <1>        0.000
     12 C7         -0.3539   -1.3061    3.1436 C.3        1 <1>        0.000
     13 N3          0.5130   -0.5585    3.9457 N.3        1 <1>        0.000
     14 C8          0.3011    0.7626    4.4002 C.3        1 <1>        0.000
     15 C9          0.2549    1.0195    5.8563 C.3        1 <1>        0.000
     16 N4         -0.1809    2.1707    6.5222 N.3        1 <1>        0.000
     17 C10         0.4418    2.8624    7.5791 C.3        1 <1>        0.000
     18 N5          0.3627    5.3247    6.8372 N.3        1 <1>        0.000
     19 C12        -0.1587    6.6392    6.7218 C.3        1 <1>        0.000
     20 C13        -1.6784    6.7826    6.6949 C.3        1 <1>        0.000
     21 H          -2.4886    7.1182    1.8471 H.spc      1 <1>        0.000
     22 H          -3.5280    6.6689    3.3228 H.spc      1 <1>        0.000
     23 H          -2.3401    4.9561    3.7984 H.spc      1 <1>        0.000
     24 H          -0.7902    5.6960    2.9921 H.spc      1 <1>        0.000
     25 H          -3.0529    4.4310    1.7214 H.spc      1 <1>        0.000
     26 H          -1.2267    4.8726    1.1460 H.spc      1 <1>        0.000
     27 H          -0.6334    3.1512    1.6766 H.spc      1 <1>        0.000
     28 H          -3.0066    1.8314    1.1852 H.spc      1 <1>        0.000
     29 H          -1.7348    2.5644   -0.0688 H.spc      1 <1>        0.000
     30 H          -1.4747    0.5770   -0.2917 H.spc      1 <1>        0.000
     31 H          -0.4374    0.9579    1.3625 H.spc      1 <1>        0.000
     32 H          -1.0290    4.2216    7.6037 H.spc      1 <1>        0.000
     33 H           0.6095    4.5754    8.6032 H.spc      1 <1>        0.000
     34 H          -2.6838   -0.5181    1.0812 H.spc      1 <1>        0.000
     35 H          -2.0462   -0.1174    3.2272 H.spc      1 <1>        0.000
     36 H          -2.2915   -1.8451    2.6547 H.spc      1 <1>        0.000
     37 H          -0.6230   -2.1074    3.8318 H.spc      1 <1>        0.000
     38 H           0.2213   -1.3562    2.2191 H.spc      1 <1>        0.000
     39 H           0.4944   -1.0848    4.8192 H.spc      1 <1>        0.000
     40 H           1.1635    1.3250    4.0424 H.spc      1 <1>        0.000
     41 H          -0.6907    1.0299    4.0357 H.spc      1 <1>        0.000
     42 H          -0.5025    0.3007    6.1690 H.spc      1 <1>        0.000
     43 H           1.3177    1.0309    6.0979 H.spc      1 <1>        0.000
     44 H          -0.1143    2.8617    5.7749 H.spc      1 <1>        0.000
     45 H           0.1389    2.3660    8.5010 H.spc      1 <1>        0.000
     46 H           1.5128    2.8470    7.3768 H.spc      1 <1>        0.000
     47 H           1.3080    5.5412    7.1534 H.spc      1 <1>        0.000
     48 H           0.1745    7.1706    7.6132 H.spc      1 <1>        0.000
     49 H           0.1926    7.0152    5.7609 H.spc      1 <1>        0.000
     50 H          -2.0777    5.8954    6.2035 H.spc      1 <1>        0.000
     51 H          -2.0093    6.9063    7.7261 H.spc      1 <1>        0.000
@<TRIPOS>BOND
     1    1   20 1  
     2    1    2 1  
     3    2    3 1  
     4    3    4 1  
     5   19   20 1  
     6   18   19 1  
     7    9   18 1  
     8   17    9 1  
     9   16   17 1  
    10   15   16 1  
    11   14   15 1  
    12   13   14 1  
    13   12   13 1  
    14   11   12 1  
    15   10   11 1  
    16    8   10 1  
    17    7    8 1  
    18    6    7 1  
    19    5    6 1  
    20    4    5 1  
    21    3   21 1  
    22    3   22 1  
    23    4   23 1  
    24    4   24 1  
    25    5   25 1  
    26    5   26 1  
    27    6   27 1  
    28    7   28 1  
    29    7   29 1  
    30    8   30 1  
    31    8   31 1  
    32    9   32 1  
    33    9   33 1  
    34   10   34 1  
    35   11   35 1  
    36   11   36 1  
    37   12   37 1  
    38   12   38 1  
    39   13   39 1  
    40   14   40 1  
    41   14   41 1  
    42   15   42 1  
    43   15   43 1  
    44   16   44 1  
    45   17   45 1  
    46   17   46 1  
    47   18   47 1  
    48   19   48 1  
    49   19   49 1  
    50   20   50 1  
    51   20   51 1  
# Name:          frag4-424-48/48856 -- energy: -6.509787
# Creation time: Sat Jun  5 12:52:20 2010


@<TRIPOS>MOLECULE
frag4-424-48/48856 -- energy: -6.509787
   51    51     1     1     1
SMALL
USER_CHARGES


@<TRIPOS>ATOM
      1 S1         -2.2486    6.9903    5.2206 S.3        1 <1>        0.000
      2 S2         -2.5543    6.7924    3.2463 S.3        1 <1>        0.000
      3 C1         -1.1267    6.8529    2.1501 C.3        1 <1>        0.000
      4 C2         -1.0479    5.7838    1.0746 C.3        1 <1>        0.000
      5 C3         -1.5233    4.4250    1.5342 C.3        1 <1>        0.000
      6 N1         -2.8360    3.8832    1.3119 N.3        1 <1>        0.000
      7 C4         -3.4552    2.9203    2.1658 C.3        1 <1>        0.000
      8 C5         -2.6731    1.7281    2.6565 C.3        1 <1>        0.000
      9 C11        -1.1287    2.6879    6.9478 C.3        1 <1>        0.000
     10 N2         -1.6196    1.1167    1.9468 N.3        1 <1>        0.000
     11 C6         -0.4194    0.6402    2.5885 C.3        1 <1>        0.000
     12 C7         -0.6049   -0.0025    3.9253 C.3        1 <1>        0.000
     13 N3          0.3188   -0.1927    4.9431 N.3        1 <1>        0.000
     14 C8          1.6379    0.3198    4.9517 C.3        1 <1>        0.000
     15 C9          1.8985    1.6578    5.5854 C.3        1 <1>        0.000
     16 N4          1.2943    2.3582    6.6244 N.3        1 <1>        0.000
     17 C10         0.1533    2.1209    7.4225 C.3        1 <1>        0.000
     18 N5         -1.5407    4.0202    6.7136 N.3        1 <1>        0.000
     19 C12        -0.9345    5.2535    7.1369 C.3        1 <1>        0.000
     20 C13        -0.7754    6.2385    5.9502 C.3        1 <1>        0.000
     21 H          -0.2535    6.7050    2.7854 H.spc      1 <1>        0.000
     22 H          -1.1925    7.8049    1.6233 H.spc      1 <1>        0.000
     23 H          -0.0005    5.6839    0.7900 H.spc      1 <1>        0.000
     24 H          -1.6959    6.0964    0.2557 H.spc      1 <1>        0.000
     25 H          -0.8956    3.7526    0.9495 H.spc      1 <1>        0.000
     26 H          -1.4985    4.5282    2.6190 H.spc      1 <1>        0.000
     27 H          -3.4381    4.6996    1.4186 H.spc      1 <1>        0.000
     28 H          -3.6973    3.4769    3.0712 H.spc      1 <1>        0.000
     29 H          -4.2510    2.4906    1.5574 H.spc      1 <1>        0.000
     30 H          -2.1664    2.1240    3.5366 H.spc      1 <1>        0.000
     31 H          -3.4290    0.9431    2.6798 H.spc      1 <1>        0.000
     32 H          -1.1234    2.3165    5.9231 H.spc      1 <1>        0.000
     33 H          -1.7606    2.4500    7.8035 H.spc      1 <1>        0.000
     34 H          -2.0456    0.2637    1.5845 H.spc      1 <1>        0.000
     35 H          -0.0051   -0.1267    1.9340 H.spc      1 <1>        0.000
     36 H           0.2088    1.5156    2.7533 H.spc      1 <1>        0.000
     37 H          -1.2804    0.7103    4.3983 H.spc      1 <1>        0.000
     38 H          -0.7903   -1.0345    3.6275 H.spc      1 <1>        0.000
     39 H          -0.1120    0.3049    5.7223 H.spc      1 <1>        0.000
     40 H           2.2098   -0.3894    5.5501 H.spc      1 <1>        0.000
     41 H           1.8930    0.4536    3.9005 H.spc      1 <1>        0.000
     42 H           2.8538    1.4374    6.0617 H.spc      1 <1>        0.000
     43 H           1.6055    2.2996    4.7545 H.spc      1 <1>        0.000
     44 H           2.0144    2.2383    7.3368 H.spc      1 <1>        0.000
     45 H           0.0155    1.0397    7.4306 H.spc      1 <1>        0.000
     46 H           0.3548    2.6014    8.3799 H.spc      1 <1>        0.000
     47 H          -1.4026    4.0824    5.7049 H.spc      1 <1>        0.000
     48 H          -1.5751    5.7154    7.8881 H.spc      1 <1>        0.000
     49 H           0.0538    5.0340    7.5409 H.spc      1 <1>        0.000
     50 H          -0.2085    7.0757    6.3576 H.spc      1 <1>        0.000
     51 H          -0.3421    5.6405    5.1485 H.spc      1 <1>        0.000
@<TRIPOS>BOND
     1    1   20 1  
     2    1    2 1  
     3    2    3 1  
     4    3    4 1  
     5   19   20 1  
     6   18   19 1  
     7    9   18 1  
     8   17    9 1  
     9   16   17 1  
    10   15   16 1  
    11   14   15 1  
    12   13   14 1  
    13   12   13 1  
    14   11   12 1  
    15   10   11 1  
    16    8   10 1  
    17    7    8 1  
    18    6    7 1  
    19    5    6 1  
    20    4    5 1  
    21    3   21 1  
    22    3   22 1  
    23    4   23 1  
    24    4   24 1  
    25    5   25 1  
    26    5   26 1  
    27    6   27 1  
    28    7   28 1  
    29    7   29 1  
    30    8   30 1  
    31    8   31 1  
    32    9   32 1  
    33    9   33 1  
    34   10   34 1  
    35   11   35 1  
    36   11   36 1  
    37   12   37 1  
    38   12   38 1  
    39   13   39 1  
    40   14   40 1  
    41   14   41 1  
    42   15   42 1  
    43   15   43 1  
    44   16   44 1  
    45   17   45 1  
    46   17   46 1  
    47   18   47 1  
    48   19   48 1  
    49   19   49 1  
    50   20   50 1  
    51   20   51 1  
# Name:          frag4-424-48/48856 -- energy: -7.336011
# Creation time: Sat Jun  5 12:52:20 2010


@<TRIPOS>MOLECULE
frag4-424-48/48856 -- energy: -7.336011
   51    51     1     1     1
SMALL
USER_CHARGES


@<TRIPOS>ATOM
      1 S1         -2.2769    6.9825    6.1396 S.3        1 <1>        0.000
      2 S2         -3.2348    6.9710    4.3918 S.3        1 <1>        0.000
      3 C1         -2.9283    5.5165    3.4188 C.3        1 <1>        0.000
      4 C2         -1.6263    5.3239    2.6537 C.3        1 <1>        0.000
      5 C3         -1.6099    4.0095    1.9134 C.3        1 <1>        0.000
      6 N1         -0.5143    3.4042    1.2919 N.3        1 <1>        0.000
      7 C4         -0.4767    2.1010    0.6679 C.3        1 <1>        0.000
      8 C5         -0.6501    0.9722    1.5941 C.3        1 <1>        0.000
      9 C11         0.7597    4.3669    6.2172 C.3        1 <1>        0.000
     10 N2         -1.6159   -0.0371    1.8000 N.3        1 <1>        0.000
     11 C6         -2.8901    0.0426    2.4227 C.3        1 <1>        0.000
     12 C7         -2.7976    0.1517    3.8962 C.3        1 <1>        0.000
     13 N3         -1.6499   -0.2043    4.6138 N.3        1 <1>        0.000
     14 C8         -0.9109    0.7893    5.2688 C.3        1 <1>        0.000
     15 C9          0.5394    0.7956    5.5203 C.3        1 <1>        0.000
     16 N4          1.2313    1.9285    6.0462 N.3        1 <1>        0.000
     17 C10         0.4799    2.9754    6.6641 C.3        1 <1>        0.000
     18 N5          0.9410    5.5041    7.0343 N.3        1 <1>        0.000
     19 C12         0.5892    6.8517    6.7565 C.3        1 <1>        0.000
     20 C13        -0.5441    7.1495    5.7846 C.3        1 <1>        0.000
     21 H          -3.6836    5.5667    2.6345 H.spc      1 <1>        0.000
     22 H          -2.9172    4.7118    4.1539 H.spc      1 <1>        0.000
     23 H          -0.8023    5.3288    3.3673 H.spc      1 <1>        0.000
     24 H          -1.5299    6.1308    1.9272 H.spc      1 <1>        0.000
     25 H          -1.8170    3.3054    2.7193 H.spc      1 <1>        0.000
     26 H          -2.2455    4.2361    1.0574 H.spc      1 <1>        0.000
     27 H          -0.3727    4.0173    0.4891 H.spc      1 <1>        0.000
     28 H          -1.3062    2.0629   -0.0382 H.spc      1 <1>        0.000
     29 H           0.5097    1.9931    0.2168 H.spc      1 <1>        0.000
     30 H           0.1522    0.3396    1.2145 H.spc      1 <1>        0.000
     31 H          -0.8354    1.5472    2.5014 H.spc      1 <1>        0.000
     32 H           1.7506    4.2572    5.7765 H.spc      1 <1>        0.000
     33 H          -0.1662    4.6180    5.6997 H.spc      1 <1>        0.000
     34 H          -1.8923   -0.2278    0.8369 H.spc      1 <1>        0.000
     35 H          -3.3899    0.9370    2.0508 H.spc      1 <1>        0.000
     36 H          -3.4362   -0.8710    2.1876 H.spc      1 <1>        0.000
     37 H          -2.8788    1.2243    4.0722 H.spc      1 <1>        0.000
     38 H          -3.5421   -0.5633    4.2462 H.spc      1 <1>        0.000
     39 H          -1.9890   -0.8100    5.3611 H.spc      1 <1>        0.000
     40 H          -1.0146    1.6266    4.5787 H.spc      1 <1>        0.000
     41 H          -1.3061    0.7204    6.2823 H.spc      1 <1>        0.000
     42 H           0.6594    0.0459    6.3024 H.spc      1 <1>        0.000
     43 H           0.9652    0.6851    4.5230 H.spc      1 <1>        0.000
     44 H           1.8202    1.5541    6.7901 H.spc      1 <1>        0.000
     45 H          -0.5617    2.7849    6.4055 H.spc      1 <1>        0.000
     46 H           0.7435    2.9451    7.7213 H.spc      1 <1>        0.000
     47 H           0.3069    5.2927    7.8048 H.spc      1 <1>        0.000
     48 H           0.2445    7.2486    7.7113 H.spc      1 <1>        0.000
     49 H           1.4754    7.2758    6.2843 H.spc      1 <1>        0.000
     50 H          -0.4432    8.2249    5.6379 H.spc      1 <1>        0.000
     51 H          -0.3934    6.3898    5.0176 H.spc      1 <1>        0.000
@<TRIPOS>BOND
     1    1   20 1  
     2    1    2 1  
     3    2    3 1  
     4    3    4 1  
     5   19   20 1  
     6   18   19 1  
     7    9   18 1  
     8   17    9 1  
     9   16   17 1  
    10   15   16 1  
    11   14   15 1  
    12   13   14 1  
    13   12   13 1  
    14   11   12 1  
    15   10   11 1  
    16    8   10 1  
    17    7    8 1  
    18    6    7 1  
    19    5    6 1  
    20    4    5 1  
    21    3   21 1  
    22    3   22 1  
    23    4   23 1  
    24    4   24 1  
    25    5   25 1  
    26    5   26 1  
    27    6   27 1  
    28    7   28 1  
    29    7   29 1  
    30    8   30 1  
    31    8   31 1  
    32    9   32 1  
    33    9   33 1  
    34   10   34 1  
    35   11   35 1  
    36   11   36 1  
    37   12   37 1  
    38   12   38 1  
    39   13   39 1  
    40   14   40 1  
    41   14   41 1  
    42   15   42 1  
    43   15   43 1  
    44   16   44 1  
    45   17   45 1  
    46   17   46 1  
    47   18   47 1  
    48   19   48 1  
    49   19   49 1  
    50   20   50 1  
    51   20   51 1  
# Name:          frag4-424-48/48856 -- energy: -6.556371
# Creation time: Sat Jun  5 12:52:20 2010


@<TRIPOS>MOLECULE
frag4-424-48/48856 -- energy: -6.556371
   51    51     1     1     1
SMALL
USER_CHARGES


@<TRIPOS>ATOM
      1 S1         -1.7769    6.4226    5.5977 S.3        1 <1>        0.000
      2 S2         -2.9195    5.7315    4.1027 S.3        1 <1>        0.000
      3 C1         -2.4728    6.4843    2.5501 C.3        1 <1>        0.000
      4 C2         -3.1588    6.1840    1.2584 C.3        1 <1>        0.000
      5 C3         -2.9784    4.7802    0.6738 C.3        1 <1>        0.000
      6 N1         -3.2692    3.5481    1.2425 N.3        1 <1>        0.000
      7 C4         -2.8638    2.2646    0.7772 C.3        1 <1>        0.000
      8 C5         -2.1045    1.3904    1.7137 C.3        1 <1>        0.000
      9 C11         1.0721    3.8603    7.4528 C.3        1 <1>        0.000
     10 N2         -0.9919    1.7405    2.4723 N.3        1 <1>        0.000
     11 C6          0.2910    1.0951    2.4586 C.3        1 <1>        0.000
     12 C7          0.6622    0.0294    3.4145 C.3        1 <1>        0.000
     13 N3          0.2980   -0.3094    4.7303 N.3        1 <1>        0.000
     14 C8         -0.7884    0.1164    5.5130 C.3        1 <1>        0.000
     15 C9         -0.5052    0.4084    6.9653 C.3        1 <1>        0.000
     16 N4          0.1478    1.5287    7.5127 N.3        1 <1>        0.000
     17 C10         0.5934    2.6437    6.7513 C.3        1 <1>        0.000
     18 N5          0.5898    5.1712    7.3211 N.3        1 <1>        0.000
     19 C12         0.9918    6.1466    6.3639 C.3        1 <1>        0.000
     20 C13        -0.0022    6.3581    5.2240 C.3        1 <1>        0.000
     21 H          -1.4622    6.1124    2.3812 H.spc      1 <1>        0.000
     22 H          -2.7094    7.5358    2.7125 H.spc      1 <1>        0.000
     23 H          -2.7217    6.8650    0.5281 H.spc      1 <1>        0.000
     24 H          -4.2251    6.2830    1.4618 H.spc      1 <1>        0.000
     25 H          -3.7088    4.8048   -0.1349 H.spc      1 <1>        0.000
     26 H          -1.8912    4.7241    0.6197 H.spc      1 <1>        0.000
     27 H          -2.7630    3.6104    2.1259 H.spc      1 <1>        0.000
     28 H          -3.7886    1.7279    0.5656 H.spc      1 <1>        0.000
     29 H          -2.1844    2.4588   -0.0528 H.spc      1 <1>        0.000
     30 H          -2.8474    1.2084    2.4903 H.spc      1 <1>        0.000
     31 H          -1.6775    0.6583    1.0283 H.spc      1 <1>        0.000
     32 H           0.7944    3.6346    8.4824 H.spc      1 <1>        0.000
     33 H           2.0762    3.9614    7.0409 H.spc      1 <1>        0.000
     34 H          -0.7643    2.6593    2.0924 H.spc      1 <1>        0.000
     35 H           0.3025    0.5827    1.4966 H.spc      1 <1>        0.000
     36 H           0.9796    1.9031    2.7057 H.spc      1 <1>        0.000
     37 H           0.1941   -0.8107    2.9015 H.spc      1 <1>        0.000
     38 H           1.6861    0.3466    3.6124 H.spc      1 <1>        0.000
     39 H           0.0524   -1.2910    4.6014 H.spc      1 <1>        0.000
     40 H          -1.1210    1.0585    5.0771 H.spc      1 <1>        0.000
     41 H          -1.5033   -0.7064    5.5065 H.spc      1 <1>        0.000
     42 H          -1.5150    0.5448    7.3523 H.spc      1 <1>        0.000
     43 H           0.2036   -0.3845    7.2040 H.spc      1 <1>        0.000
     44 H          -0.5717    1.9380    8.1087 H.spc      1 <1>        0.000
     45 H           1.4633    2.2775    6.2060 H.spc      1 <1>        0.000
     46 H          -0.2865    2.9709    6.1975 H.spc      1 <1>        0.000
     47 H          -0.3769    5.0027    7.0426 H.spc      1 <1>        0.000
     48 H           1.0799    7.0960    6.8920 H.spc      1 <1>        0.000
     49 H           1.9208    5.7926    5.9169 H.spc      1 <1>        0.000
     50 H           0.2353    7.3446    4.8259 H.spc      1 <1>        0.000
     51 H           0.1168    5.4838    4.5840 H.spc      1 <1>        0.000
@<TRIPOS>BOND
     1    1   20 1  
     2    1    2 1  
     3    2    3 1  
     4    3    4 1  
     5   19   20 1  
     6   18   19 1  
     7    9   18 1  
     8   17    9 1  
     9   16   17 1  
    10   15   16 1  
    11   14   15 1  
    12   13   14 1  
    13   12   13 1  
    14   11   12 1  
    15   10   11 1  
    16    8   10 1  
    17    7    8 1  
    18    6    7 1  
    19    5    6 1  
    20    4    5 1  
    21    3   21 1  
    22    3   22 1  
    23    4   23 1  
    24    4   24 1  
    25    5   25 1  
    26    5   26 1  
    27    6   27 1  
    28    7   28 1  
    29    7   29 1  
    30    8   30 1  
    31    8   31 1  
    32    9   32 1  
    33    9   33 1  
    34   10   34 1  
    35   11   35 1  
    36   11   36 1  
    37   12   37 1  
    38   12   38 1  
    39   13   39 1  
    40   14   40 1  
    41   14   41 1  
    42   15   42 1  
    43   15   43 1  
    44   16   44 1  
    45   17   45 1  
    46   17   46 1  
    47   18   47 1  
    48   19   48 1  
    49   19   49 1  
    50   20   50 1  
    51   20   51 1  
# Name:          frag4-424-48/48856 -- energy: -4.768913
# Creation time: Sat Jun  5 12:52:20 2010


@<TRIPOS>MOLECULE
frag4-424-48/48856 -- energy: -4.768913
   51    51     1     1     1
SMALL
USER_CHARGES


@<TRIPOS>ATOM
      1 S1         -0.1568    5.8081    5.2247 S.3        1 <1>        0.000
      2 S2         -1.7307    5.0213    4.2775 S.3        1 <1>        0.000
      3 C1         -2.2136    5.9543    2.8664 C.3        1 <1>        0.000
      4 C2         -1.3558    5.5272    1.7103 C.3        1 <1>        0.000
      5 C3         -2.0647    4.5784    0.8080 C.3        1 <1>        0.000
      6 N1         -3.1530    3.7348    1.0186 N.3        1 <1>        0.000
      7 C4         -3.3499    2.5107    0.3090 C.3        1 <1>        0.000
      8 C5         -2.2991    1.5013    0.4993 C.3        1 <1>        0.000
      9 C11        -0.4155    3.5640    7.9606 C.3        1 <1>        0.000
     10 N2         -1.4976    1.2777    1.6272 N.3        1 <1>        0.000
     11 C6         -1.3360    0.0738    2.3323 C.3        1 <1>        0.000
     12 C7         -0.7833    0.1563    3.6966 C.3        1 <1>        0.000
     13 N3          0.5196    0.5520    4.0689 N.3        1 <1>        0.000
     14 C8          1.1009    0.5138    5.3449 C.3        1 <1>        0.000
     15 C9          0.8097    1.7470    6.1042 C.3        1 <1>        0.000
     16 N4          1.5715    2.7986    6.6328 N.3        1 <1>        0.000
     17 C10         1.0105    3.7263    7.5693 C.3        1 <1>        0.000
     18 N5         -1.5766    4.3539    7.7535 N.3        1 <1>        0.000
     19 C12        -1.7163    5.7249    7.4671 C.3        1 <1>        0.000
     20 C13        -0.5486    6.4705    6.8249 C.3        1 <1>        0.000
     21 H          -2.0840    7.0196    3.0575 H.spc      1 <1>        0.000
     22 H          -3.2651    5.7771    2.6402 H.spc      1 <1>        0.000
     23 H          -0.4745    5.0241    2.1082 H.spc      1 <1>        0.000
     24 H          -1.0955    6.4148    1.1337 H.spc      1 <1>        0.000
     25 H          -2.5166    5.2889    0.1158 H.spc      1 <1>        0.000
     26 H          -1.2802    3.8335    0.6749 H.spc      1 <1>        0.000
     27 H          -3.0176    3.4225    1.9801 H.spc      1 <1>        0.000
     28 H          -4.2747    2.0749    0.6872 H.spc      1 <1>        0.000
     29 H          -3.3548    2.7612   -0.7518 H.spc      1 <1>        0.000
     30 H          -2.8887    0.5847    0.4811 H.spc      1 <1>        0.000
     31 H          -1.5533    1.8430   -0.2184 H.spc      1 <1>        0.000
     32 H          -0.6713    2.7137    7.3284 H.spc      1 <1>        0.000
     33 H          -0.3130    3.6888    9.0386 H.spc      1 <1>        0.000
     34 H          -0.5636    1.4099    1.2391 H.spc      1 <1>        0.000
     35 H          -2.3388   -0.3382    2.4453 H.spc      1 <1>        0.000
     36 H          -0.6164   -0.5096    1.7579 H.spc      1 <1>        0.000
     37 H          -1.3823    0.9611    4.1228 H.spc      1 <1>        0.000
     38 H          -0.7817   -0.8930    3.9916 H.spc      1 <1>        0.000
     39 H           1.0836   -0.1398    3.5753 H.spc      1 <1>        0.000
     40 H           0.6872   -0.3350    5.8895 H.spc      1 <1>        0.000
     41 H           2.1812    0.4229    5.2316 H.spc      1 <1>        0.000
     42 H           0.3043    2.3018    5.3137 H.spc      1 <1>        0.000
     43 H           0.5080    1.2846    7.0440 H.spc      1 <1>        0.000
     44 H           2.3044    2.3277    7.1634 H.spc      1 <1>        0.000
     45 H           1.5770    3.5808    8.4891 H.spc      1 <1>        0.000
     46 H           1.0620    4.6966    7.0753 H.spc      1 <1>        0.000
     47 H          -1.9078    3.9549    6.8751 H.spc      1 <1>        0.000
     48 H          -2.5205    5.7777    6.7332 H.spc      1 <1>        0.000
     49 H          -1.8538    6.2016    8.4376 H.spc      1 <1>        0.000
     50 H          -0.8297    7.5170    6.7066 H.spc      1 <1>        0.000
     51 H           0.3255    6.3629    7.4671 H.spc      1 <1>        0.000
@<TRIPOS>BOND
     1    1   20 1  
     2    1    2 1  
     3    2    3 1  
     4    3    4 1  
     5   19   20 1  
     6   18   19 1  
     7    9   18 1  
     8   17    9 1  
     9   16   17 1  
    10   15   16 1  
    11   14   15 1  
    12   13   14 1  
    13   12   13 1  
    14   11   12 1  
    15   10   11 1  
    16    8   10 1  
    17    7    8 1  
    18    6    7 1  
    19    5    6 1  
    20    4    5 1  
    21    3   21 1  
    22    3   22 1  
    23    4   23 1  
    24    4   24 1  
    25    5   25 1  
    26    5   26 1  
    27    6   27 1  
    28    7   28 1  
    29    7   29 1  
    30    8   30 1  
    31    8   31 1  
    32    9   32 1  
    33    9   33 1  
    34   10   34 1  
    35   11   35 1  
    36   11   36 1  
    37   12   37 1  
    38   12   38 1  
    39   13   39 1  
    40   14   40 1  
    41   14   41 1  
    42   15   42 1  
    43   15   43 1  
    44   16   44 1  
    45   17   45 1  
    46   17   46 1  
    47   18   47 1  
    48   19   48 1  
    49   19   49 1  
    50   20   50 1  
    51   20   51 1  
# Name:          frag4-424-48/48856 -- energy: -6.583745
# Creation time: Sat Jun  5 12:52:20 2010


@<TRIPOS>MOLECULE
frag4-424-48/48856 -- energy: -6.583745
   51    51     1     1     1
SMALL
USER_CHARGES


@<TRIPOS>ATOM
      1 S1          0.1926    6.6604    4.4751 S.3        1 <1>        0.000
      2 S2         -1.0772    7.0135    2.9223 S.3        1 <1>        0.000
      3 C1         -2.3076    5.7177    2.9021 C.3        1 <1>        0.000
      4 C2         -3.2998    5.6584    1.7687 C.3        1 <1>        0.000
      5 C3         -3.5703    4.2486    1.4287 C.3        1 <1>        0.000
      6 N1         -2.8042    3.4080    0.6094 N.3        1 <1>        0.000
      7 C4         -2.7850    2.0004    0.5866 C.3        1 <1>        0.000
      8 C5         -2.6450    1.2746    1.8997 C.3        1 <1>        0.000
      9 C11        -0.6752    3.5998    7.1839 C.3        1 <1>        0.000
     10 N2         -1.7882    1.3992    3.0050 N.3        1 <1>        0.000
     11 C6         -0.4741    1.9530    3.0503 C.3        1 <1>        0.000
     12 C7          0.6876    1.0297    3.0942 C.3        1 <1>        0.000
     13 N3          1.1226   -0.0205    3.9338 N.3        1 <1>        0.000
     14 C8          0.9155   -0.2107    5.3300 C.3        1 <1>        0.000
     15 C9          0.6562    0.9719    6.2008 C.3        1 <1>        0.000
     16 N4         -0.2317    1.1252    7.2830 N.3        1 <1>        0.000
     17 C10        -0.6399    2.3180    7.9383 C.3        1 <1>        0.000
     18 N5          0.2525    4.6635    7.2023 N.3        1 <1>        0.000
     19 C12         0.0002    6.0745    7.2418 C.3        1 <1>        0.000
     20 C13        -0.7146    6.7097    6.0399 C.3        1 <1>        0.000
     21 H          -2.9122    5.8947    3.7916 H.spc      1 <1>        0.000
     22 H          -1.7361    4.7932    2.8197 H.spc      1 <1>        0.000
     23 H          -2.8898    6.1708    0.8984 H.spc      1 <1>        0.000
     24 H          -4.2274    6.1447    2.0707 H.spc      1 <1>        0.000
     25 H          -3.4509    3.7678    2.3996 H.spc      1 <1>        0.000
     26 H          -4.4853    4.3415    0.8437 H.spc      1 <1>        0.000
     27 H          -3.2017    3.6131   -0.3073 H.spc      1 <1>        0.000
     28 H          -3.7577    1.7039    0.1941 H.spc      1 <1>        0.000
     29 H          -1.8987    1.7322    0.0116 H.spc      1 <1>        0.000
     30 H          -3.5693    1.6091    2.3708 H.spc      1 <1>        0.000
     31 H          -2.2846    0.3184    1.5204 H.spc      1 <1>        0.000
     32 H          -0.5499    3.2384    6.1632 H.spc      1 <1>        0.000
     33 H          -1.5428    4.0789    7.6377 H.spc      1 <1>        0.000
     34 H          -2.3016    2.0738    3.5722 H.spc      1 <1>        0.000
     35 H          -0.3652    2.5009    2.1143 H.spc      1 <1>        0.000
     36 H          -0.4320    2.5061    3.9886 H.spc      1 <1>        0.000
     37 H           0.4395    0.4311    2.2177 H.spc      1 <1>        0.000
     38 H           1.4531    1.7604    3.3553 H.spc      1 <1>        0.000
     39 H           0.5767   -0.7960    3.5583 H.spc      1 <1>        0.000
     40 H           0.0062   -0.8081    5.3963 H.spc      1 <1>        0.000
     41 H           1.8558   -0.6232    5.6958 H.spc      1 <1>        0.000
     42 H           1.6109    1.0415    6.7222 H.spc      1 <1>        0.000
     43 H           0.1993    1.6480    5.4782 H.spc      1 <1>        0.000
     44 H          -1.1093    0.8353    6.8516 H.spc      1 <1>        0.000
     45 H          -1.6773    2.1359    8.2189 H.spc      1 <1>        0.000
     46 H           0.1102    2.4760    8.7132 H.spc      1 <1>        0.000
     47 H           0.6868    4.5219    8.1143 H.spc      1 <1>        0.000
     48 H          -0.6672    6.2265    8.0901 H.spc      1 <1>        0.000
     49 H           0.9831    6.5443    7.2765 H.spc      1 <1>        0.000
     50 H          -1.6291    6.1370    5.8856 H.spc      1 <1>        0.000
     51 H          -0.8539    7.7629    6.2838 H.spc      1 <1>        0.000
@<TRIPOS>BOND
     1    1   20 1  
     2    1    2 1  
     3    2    3 1  
     4    3    4 1  
     5   19   20 1  
     6   18   19 1  
     7    9   18 1  
     8   17    9 1  
     9   16   17 1  
    10   15   16 1  
    11   14   15 1  
    12   13   14 1  
    13   12   13 1  
    14   11   12 1  
    15   10   11 1  
    16    8   10 1  
    17    7    8 1  
    18    6    7 1  
    19    5    6 1  
    20    4    5 1  
    21    3   21 1  
    22    3   22 1  
    23    4   23 1  
    24    4   24 1  
    25    5   25 1  
    26    5   26 1  
    27    6   27 1  
    28    7   28 1  
    29    7   29 1  
    30    8   30 1  
    31    8   31 1  
    32    9   32 1  
    33    9   33 1  
    34   10   34 1  
    35   11   35 1  
    36   11   36 1  
    37   12   37 1  
    38   12   38 1  
    39   13   39 1  
    40   14   40 1  
    41   14   41 1  
    42   15   42 1  
    43   15   43 1  
    44   16   44 1  
    45   17   45 1  
    46   17   46 1  
    47   18   47 1  
    48   19   48 1  
    49   19   49 1  
    50   20   50 1  
    51   20   51 1  
# Name:          frag4-424-48/48856 -- energy: -6.881020
# Creation time: Sat Jun  5 12:52:20 2010


@<TRIPOS>MOLECULE
frag4-424-48/48856 -- energy: -6.881020
   51    51     1     1     1
SMALL
USER_CHARGES


@<TRIPOS>ATOM
      1 S1          0.0467    7.2489    4.7694 S.3        1 <1>        0.000
      2 S2         -1.6026    6.9501    3.6794 S.3        1 <1>        0.000
      3 C1         -2.3697    5.3528    3.4114 C.3        1 <1>        0.000
      4 C2         -2.6271    4.8780    2.0038 C.3        1 <1>        0.000
      5 C3         -3.4942    3.6697    1.8748 C.3        1 <1>        0.000
      6 N1         -3.5310    2.6046    0.9566 N.3        1 <1>        0.000
      7 C4         -2.7342    2.3135   -0.1765 C.3        1 <1>        0.000
      8 C5         -1.4779    1.5621    0.0052 C.3        1 <1>        0.000
      9 C11        -0.1285    3.7644    8.6962 C.3        1 <1>        0.000
     10 N2         -1.1776    0.5060    0.8684 N.3        1 <1>        0.000
     11 C6         -0.2373    0.6150    1.9196 C.3        1 <1>        0.000
     12 C7         -0.5877    1.5738    2.9772 C.3        1 <1>        0.000
     13 N3         -0.3635    1.5145    4.3508 N.3        1 <1>        0.000
     14 C8          0.0999    0.4240    5.1055 C.3        1 <1>        0.000
     15 C9          0.4039    0.6904    6.5203 C.3        1 <1>        0.000
     16 N4         -0.1129    1.7297    7.2891 N.3        1 <1>        0.000
     17 C10         0.6029    2.6056    8.1299 C.3        1 <1>        0.000
     18 N5         -0.2178    5.0837    8.2168 N.3        1 <1>        0.000
     19 C12         0.2618    5.5249    6.9504 C.3        1 <1>        0.000
     20 C13         0.0611    6.9832    6.5477 C.3        1 <1>        0.000
     21 H          -3.3600    5.4438    3.8575 H.spc      1 <1>        0.000
     22 H          -1.6598    4.6336    3.8199 H.spc      1 <1>        0.000
     23 H          -1.6568    4.6067    1.5879 H.spc      1 <1>        0.000
     24 H          -3.1504    5.6883    1.4962 H.spc      1 <1>        0.000
     25 H          -3.1614    3.1241    2.7578 H.spc      1 <1>        0.000
     26 H          -4.4316    4.1583    1.6091 H.spc      1 <1>        0.000
     27 H          -3.2447    1.8405    1.5686 H.spc      1 <1>        0.000
     28 H          -3.3570    1.6719   -0.7998 H.spc      1 <1>        0.000
     29 H          -2.4261    3.2862   -0.5600 H.spc      1 <1>        0.000
     30 H          -1.4175    1.0505   -0.9554 H.spc      1 <1>        0.000
     31 H          -0.8444    2.3427    0.4263 H.spc      1 <1>        0.000
     32 H          -1.1587    3.4340    8.5637 H.spc      1 <1>        0.000
     33 H           0.4333    3.9243    9.6165 H.spc      1 <1>        0.000
     34 H          -2.0579    0.3492    1.3591 H.spc      1 <1>        0.000
     35 H          -0.1820   -0.3655    2.3924 H.spc      1 <1>        0.000
     36 H           0.6918    0.9685    1.4725 H.spc      1 <1>        0.000
     37 H           0.0643    2.4053    2.7095 H.spc      1 <1>        0.000
     38 H          -1.6749    1.4997    2.9543 H.spc      1 <1>        0.000
     39 H           0.4145    2.1666    4.4507 H.spc      1 <1>        0.000
     40 H          -0.7051   -0.3109    5.1018 H.spc      1 <1>        0.000
     41 H           1.0393    0.1154    4.6467 H.spc      1 <1>        0.000
     42 H          -0.0243   -0.1843    7.0097 H.spc      1 <1>        0.000
     43 H           1.4619    0.9488    6.4770 H.spc      1 <1>        0.000
     44 H          -0.4440    2.3693    6.5668 H.spc      1 <1>        0.000
     45 H           0.9078    2.0048    8.9868 H.spc      1 <1>        0.000
     46 H           1.3892    3.0319    7.5070 H.spc      1 <1>        0.000
     47 H          -1.2252    5.2153    8.1264 H.spc      1 <1>        0.000
     48 H           1.3428    5.3943    6.9995 H.spc      1 <1>        0.000
     49 H          -0.3088    4.9516    6.2198 H.spc      1 <1>        0.000
     50 H          -0.9102    7.2958    6.9311 H.spc      1 <1>        0.000
     51 H           0.8978    7.5511    6.9546 H.spc      1 <1>        0.000
@<TRIPOS>BOND
     1    1   20 1  
     2    1    2 1  
     3    2    3 1  
     4    3    4 1  
     5   19   20 1  
     6   18   19 1  
     7    9   18 1  
     8   17    9 1  
     9   16   17 1  
    10   15   16 1  
    11   14   15 1  
    12   13   14 1  
    13   12   13 1  
    14   11   12 1  
    15   10   11 1  
    16    8   10 1  
    17    7    8 1  
    18    6    7 1  
    19    5    6 1  
    20    4    5 1  
    21    3   21 1  
    22    3   22 1  
    23    4   23 1  
    24    4   24 1  
    25    5   25 1  
    26    5   26 1  
    27    6   27 1  
    28    7   28 1  
    29    7   29 1  
    30    8   30 1  
    31    8   31 1  
    32    9   32 1  
    33    9   33 1  
    34   10   34 1  
    35   11   35 1  
    36   11   36 1  
    37   12   37 1  
    38   12   38 1  
    39   13   39 1  
    40   14   40 1  
    41   14   41 1  
    42   15   42 1  
    43   15   43 1  
    44   16   44 1  
    45   17   45 1  
    46   17   46 1  
    47   18   47 1  
    48   19   48 1  
    49   19   49 1  
    50   20   50 1  
    51   20   51 1  
# Name:          frag4-424-48/48856 -- energy: -7.473528
# Creation time: Sat Jun  5 12:52:20 2010


@<TRIPOS>MOLECULE
frag4-424-48/48856 -- energy: -7.473528
   51    51     1     1     1
SMALL
USER_CHARGES


@<TRIPOS>ATOM
      1 S1         -1.0318    7.7937    5.1684 S.3        1 <1>        0.000
      2 S2         -1.2776    7.8642    3.1270 S.3        1 <1>        0.000
      3 C1         -2.9210    7.2093    2.6116 C.3        1 <1>        0.000
      4 C2         -2.7625    5.9910    1.7176 C.3        1 <1>        0.000
      5 C3         -2.1538    4.7278    2.2666 C.3        1 <1>        0.000
      6 N1         -2.7480    3.4687    2.5130 N.3        1 <1>        0.000
      7 C4         -2.1814    2.2928    3.0659 C.3        1 <1>        0.000
      8 C5         -1.6661    1.1511    2.2541 C.3        1 <1>        0.000
      9 C11        -1.3083    3.2992    7.0765 C.3        1 <1>        0.000
     10 N2         -0.3351    0.7573    1.9993 N.3        1 <1>        0.000
     11 C6          0.2556   -0.5361    1.9512 C.3        1 <1>        0.000
     12 C7          0.8824   -1.1742    3.1538 C.3        1 <1>        0.000
     13 N3          0.6902   -0.9550    4.5337 N.3        1 <1>        0.000
     14 C8          0.0460    0.1428    5.1577 C.3        1 <1>        0.000
     15 C9          0.6848    1.4703    4.8739 C.3        1 <1>        0.000
     16 N4          0.5515    2.7017    5.5251 N.3        1 <1>        0.000
     17 C10         0.1164    2.9506    6.8432 C.3        1 <1>        0.000
     18 N5         -1.8556    4.5493    7.4137 N.3        1 <1>        0.000
     19 C12        -1.2790    5.8294    7.1501 C.3        1 <1>        0.000
     20 C13        -0.8923    6.0608    5.6935 C.3        1 <1>        0.000
     21 H          -3.4494    7.9848    2.0571 H.spc      1 <1>        0.000
     22 H          -3.4785    6.9203    3.5026 H.spc      1 <1>        0.000
     23 H          -2.0691    6.3120    0.9403 H.spc      1 <1>        0.000
     24 H          -3.7828    5.7104    1.4562 H.spc      1 <1>        0.000
     25 H          -1.4750    4.4684    1.4542 H.spc      1 <1>        0.000
     26 H          -1.9339    5.0435    3.2864 H.spc      1 <1>        0.000
     27 H          -3.4095    3.7179    3.2484 H.spc      1 <1>        0.000
     28 H          -1.2805    2.6668    3.5524 H.spc      1 <1>        0.000
     29 H          -3.0229    1.8484    3.5974 H.spc      1 <1>        0.000
     30 H          -2.0095    0.3097    2.8560 H.spc      1 <1>        0.000
     31 H          -1.9745    1.4630    1.2562 H.spc      1 <1>        0.000
     32 H          -1.7232    3.1537    6.0791 H.spc      1 <1>        0.000
     33 H          -1.5147    2.7312    7.9837 H.spc      1 <1>        0.000
     34 H          -0.2548    1.0260    1.0186 H.spc      1 <1>        0.000
     35 H          -0.5855   -1.1915    1.7250 H.spc      1 <1>        0.000
     36 H           1.0934   -0.4076    1.2659 H.spc      1 <1>        0.000
     37 H           0.4671   -2.1783    3.0671 H.spc      1 <1>        0.000
     38 H           1.9021   -0.8036    3.0486 H.spc      1 <1>        0.000
     39 H           0.0533   -1.7166    4.7677 H.spc      1 <1>        0.000
     40 H          -0.9708    0.1843    4.7673 H.spc      1 <1>        0.000
     41 H           0.1034   -0.0191    6.2341 H.spc      1 <1>        0.000
     42 H           1.7221    1.2383    5.1152 H.spc      1 <1>        0.000
     43 H           0.2154    1.7076    3.9192 H.spc      1 <1>        0.000
     44 H           1.5262    2.9967    5.5836 H.spc      1 <1>        0.000
     45 H           0.2654    2.0086    7.3710 H.spc      1 <1>        0.000
     46 H           0.6768    3.8291    7.1630 H.spc      1 <1>        0.000
     47 H          -2.6899    4.5742    6.8274 H.spc      1 <1>        0.000
     48 H          -2.0315    6.5764    7.4029 H.spc      1 <1>        0.000
     49 H          -0.3630    5.8938    7.7374 H.spc      1 <1>        0.000
     50 H           0.1523    5.7696    5.5832 H.spc      1 <1>        0.000
     51 H          -1.5767    5.4773    5.0777 H.spc      1 <1>        0.000
@<TRIPOS>BOND
     1    1   20 1  
     2    1    2 1  
     3    2    3 1  
     4    3    4 1  
     5   19   20 1  
     6   18   19 1  
     7    9   18 1  
     8   17    9 1  
     9   16   17 1  
    10   15   16 1  
    11   14   15 1  
    12   13   14 1  
    13   12   13 1  
    14   11   12 1  
    15   10   11 1  
    16    8   10 1  
    17    7    8 1  
    18    6    7 1  
    19    5    6 1  
    20    4    5 1  
    21    3   21 1  
    22    3   22 1  
    23    4   23 1  
    24    4   24 1  
    25    5   25 1  
    26    5   26 1  
    27    6   27 1  
    28    7   28 1  
    29    7   29 1  
    30    8   30 1  
    31    8   31 1  
    32    9   32 1  
    33    9   33 1  
    34   10   34 1  
    35   11   35 1  
    36   11   36 1  
    37   12   37 1  
    38   12   38 1  
    39   13   39 1  
    40   14   40 1  
    41   14   41 1  
    42   15   42 1  
    43   15   43 1  
    44   16   44 1  
    45   17   45 1  
    46   17   46 1  
    47   18   47 1  
    48   19   48 1  
    49   19   49 1  
    50   20   50 1  
    51   20   51 1  
