#      Rotatable Fragment
#      Build by yxyuan
#
# Name:          frag2-069-8/319335
# Creation time: Sat Jun  5 12:51:56 2010


@<TRIPOS>MOLECULE
frag2-069-8/319335
   22    24     1     1     1
SMALL
USER_CHARGES


@<TRIPOS>ATOM
      1 C1          1.1620   -0.7151   -0.0576 C.ar       1 <1>        0.000
      2 C2          1.1839    0.6606    0.1779 C.ar       1 <1>        0.000
      3 C3          2.3596   -1.4308   -0.1110 C.ar       1 <1>        0.000
      4 N1         -0.0214   -1.3426   -0.2322 N.ar       1 <1>        0.000
      5 N2          0.0215    1.3465    0.2270 N.ar       1 <1>        0.000
      6 C4          2.4062    1.3153    0.3591 C.ar       1 <1>        0.000
      7 C6          3.5757   -0.7751    0.0704 C.ar       1 <1>        0.000
      8 C7         -1.1832   -0.6572   -0.1800 C.ar       1 <1>        0.000
      9 C8         -1.1627    0.7187    0.0549 C.ar       1 <1>        0.000
     10 C9          3.5995    0.5970    0.3052 C.ar       1 <1>        0.000
     11 C11        -2.4019   -1.3141   -0.3587 C.ar       1 <1>        0.000
     12 C12        -2.3638    1.4330    0.1101 C.ar       1 <1>        0.000
     13 C14        -3.5971   -0.5996   -0.3028 C.ar       1 <1>        0.000
     14 C15        -3.5779    0.7733   -0.0685 C.ar       1 <1>        0.000
     15 H           2.3433   -2.5050   -0.2950 H.spc      1 <1>        0.000
     16 H           2.4258    2.3895    0.5429 H.spc      1 <1>        0.000
     17 H           4.5089   -1.3368    0.0284 H.spc      1 <1>        0.000
     18 H           4.5511    1.1094    0.4468 H.spc      1 <1>        0.000
     19 H          -2.4187   -2.3884   -0.5424 H.spc      1 <1>        0.000
     20 H          -2.3501    2.5074    0.2931 H.spc      1 <1>        0.000
     21 H          -4.5472   -1.1153   -0.4425 H.spc      1 <1>        0.000
     22 H          -4.5130    1.3317   -0.0249 H.spc      1 <1>        0.000
@<TRIPOS>BOND
     1    1    4 ar 
     2   12   14 ar 
     3   11   13 ar 
     4    6   10 ar 
     5   13   14 ar 
     6    7   10 ar 
     7    3    7 ar 
     8    9   12 ar 
     9    2    5 ar 
    10    5    9 ar 
    11    4    8 ar 
    12    8    9 ar 
    13    2    6 ar 
    14    1    2 ar 
    15    1    3 ar 
    16    8   11 ar 
    17    3   15 1  
    18    6   16 1  
    19    7   17 1  
    20   10   18 1  
    21   11   19 1  
    22   12   20 1  
    23   13   21 1  
    24   14   22 1  
# Name:          frag2-069-8/319335 -- energy: -0.145202
# Creation time: Sat Jun  5 12:51:56 2010


@<TRIPOS>MOLECULE
frag2-069-8/319335 -- energy: -0.145202
   22    24     1     1     1
SMALL
USER_CHARGES


@<TRIPOS>ATOM
      1 C1          1.1620   -0.7151   -0.0576 C.ar       1 <1>        0.000
      2 C2          1.1839    0.6606    0.1779 C.ar       1 <1>        0.000
      3 C3          2.3596   -1.4308   -0.1110 C.ar       1 <1>        0.000
      4 N1         -0.0214   -1.3426   -0.2322 N.ar       1 <1>        0.000
      5 N2          0.0215    1.3465    0.2270 N.ar       1 <1>        0.000
      6 C4          2.4062    1.3153    0.3591 C.ar       1 <1>        0.000
      7 C6          3.5757   -0.7751    0.0704 C.ar       1 <1>        0.000
      8 C7         -1.1832   -0.6572   -0.1800 C.ar       1 <1>        0.000
      9 C8         -1.1627    0.7187    0.0549 C.ar       1 <1>        0.000
     10 C9          3.5995    0.5970    0.3052 C.ar       1 <1>        0.000
     11 C11        -2.4019   -1.3141   -0.3587 C.ar       1 <1>        0.000
     12 C12        -2.3638    1.4330    0.1101 C.ar       1 <1>        0.000
     13 C14        -3.5971   -0.5996   -0.3028 C.ar       1 <1>        0.000
     14 C15        -3.5779    0.7733   -0.0685 C.ar       1 <1>        0.000
     15 H           2.3433   -2.5050   -0.2950 H.spc      1 <1>        0.000
     16 H           2.4258    2.3895    0.5429 H.spc      1 <1>        0.000
     17 H           4.5089   -1.3368    0.0284 H.spc      1 <1>        0.000
     18 H           4.5511    1.1094    0.4468 H.spc      1 <1>        0.000
     19 H          -2.4187   -2.3884   -0.5424 H.spc      1 <1>        0.000
     20 H          -2.3501    2.5074    0.2931 H.spc      1 <1>        0.000
     21 H          -4.5472   -1.1153   -0.4425 H.spc      1 <1>        0.000
     22 H          -4.5130    1.3317   -0.0249 H.spc      1 <1>        0.000
@<TRIPOS>BOND
     1    1    4 ar 
     2   12   14 ar 
     3   11   13 ar 
     4    6   10 ar 
     5   13   14 ar 
     6    7   10 ar 
     7    3    7 ar 
     8    9   12 ar 
     9    2    5 ar 
    10    5    9 ar 
    11    4    8 ar 
    12    8    9 ar 
    13    2    6 ar 
    14    1    2 ar 
    15    1    3 ar 
    16    8   11 ar 
    17    3   15 1  
    18    6   16 1  
    19    7   17 1  
    20   10   18 1  
    21   11   19 1  
    22   12   20 1  
    23   13   21 1  
    24   14   22 1  
