#      Rotatable Fragment
#      Build by yxyuan
#
# Name:          frag3-244-3/31924
# Creation time: Sat Jun  5 12:52:37 2010


@<TRIPOS>MOLECULE
frag3-244-3/31924
   16    15     1     1     1
SMALL
USER_CHARGES


@<TRIPOS>ATOM
      1 C12         0.6090   -0.2464   -0.2680 C.2        1 <1>        0.000
      2 C13         1.8484    0.0534    0.1396 C.2        1 <1>        0.000
      3 O2          2.9589   -0.2051   -0.6323 O.3        1 <1>        0.000
      4 C14         3.9392   -0.9058   -0.0488 C.2        1 <1>        0.000
      5 O3          3.8850   -1.5272    1.0013 O.2        1 <1>        0.000
      6 C16        -0.6127   -0.0072    0.3924 C.2        1 <1>        0.000
      7 C17        -1.8444   -0.0349   -0.1361 C.2        1 <1>        0.000
      8 O4         -2.9616    0.2779    0.6116 O.3        1 <1>        0.000
      9 C18        -3.9481   -0.6256    0.6119 C.2        1 <1>        0.000
     10 O5         -3.9518   -1.7353    0.1025 O.2        1 <1>        0.000
     11 H           0.5352   -0.7399   -1.2371 H.spc      1 <1>        0.000
     12 H           1.9831    0.5182    1.1163 H.spc      1 <1>        0.000
     13 H           4.8958   -0.9238   -0.5710 H.spc      1 <1>        0.000
     14 H          -0.5489    0.2273    1.4550 H.spc      1 <1>        0.000
     15 H          -1.9667   -0.3116   -1.1833 H.spc      1 <1>        0.000
     16 H          -4.8615   -0.3353    1.1310 H.spc      1 <1>        0.000
@<TRIPOS>BOND
     1    8    9 1  
     2    9   10 2  
     3    1    2 2  
     4    2    3 1  
     5    1    6 1  
     6    3    4 1  
     7    4    5 2  
     8    6    7 2  
     9    7    8 1  
    10    1   11 1  
    11    2   12 1  
    12    4   13 1  
    13    6   14 1  
    14    7   15 1  
    15    9   16 1  
# Name:          frag3-244-3/31924
# Creation time: Sat Jun  5 12:52:37 2010


@<TRIPOS>MOLECULE
frag3-244-3/31924
   16    15     1     1     1
SMALL
USER_CHARGES


@<TRIPOS>ATOM
      1 C12         0.7212    0.2829   -0.0705 C.2        1 <1>        0.000
      2 C13         1.8527   -0.3211   -0.4566 C.2        1 <1>        0.000
      3 O2          3.0944    0.1499   -0.0929 O.3        1 <1>        0.000
      4 C14         3.9173   -0.7287    0.4945 C.2        1 <1>        0.000
      5 O3          3.7662   -1.9363    0.5921 O.2        1 <1>        0.000
      6 C16        -0.6091   -0.0922   -0.3435 C.2        1 <1>        0.000
      7 C17        -1.7213    0.3508    0.2573 C.2        1 <1>        0.000
      8 O4         -2.9688   -0.1264   -0.0776 O.3        1 <1>        0.000
      9 C18        -3.5214   -0.9870    0.7918 C.2        1 <1>        0.000
     10 O5         -4.6093   -1.5481    0.6793 O.2        1 <1>        0.000
     11 H           0.8459    1.1816    0.5335 H.spc      1 <1>        0.000
     12 H           1.7885   -1.2139   -1.0785 H.spc      1 <1>        0.000
     13 H           4.8257   -0.3187    0.9358 H.spc      1 <1>        0.000
     14 H          -0.7495   -0.8281   -1.1353 H.spc      1 <1>        0.000
     15 H          -1.6364    1.1110    1.0338 H.spc      1 <1>        0.000
     16 H          -2.9462   -1.2114    1.6901 H.spc      1 <1>        0.000
@<TRIPOS>BOND
     1    8    9 1  
     2    9   10 2  
     3    1    2 2  
     4    2    3 1  
     5    1    6 1  
     6    3    4 1  
     7    4    5 2  
     8    6    7 2  
     9    7    8 1  
    10    1   11 1  
    11    2   12 1  
    12    4   13 1  
    13    6   14 1  
    14    7   15 1  
    15    9   16 1  
# Name:          frag3-244-3/31924
# Creation time: Sat Jun  5 12:52:37 2010


@<TRIPOS>MOLECULE
frag3-244-3/31924
   16    15     1     1     1
SMALL
USER_CHARGES


@<TRIPOS>ATOM
      1 C12         0.7648    0.7558    0.2812 C.2        1 <1>        0.000
      2 C13         1.5759   -0.0741   -0.3907 C.2        1 <1>        0.000
      3 O2          2.9461   -0.0281   -0.2734 O.3        1 <1>        0.000
      4 C14         3.5071   -1.1076    0.2979 C.2        1 <1>        0.000
      5 O3          3.0325   -2.2244    0.4445 O.2        1 <1>        0.000
      6 C16        -0.6425    0.8269    0.2578 C.2        1 <1>        0.000
      7 C17        -1.5031   -0.1655   -0.0333 C.2        1 <1>        0.000
      8 O4         -2.8657    0.0431   -0.0767 O.3        1 <1>        0.000
      9 C18        -3.6212   -0.9693    0.3681 C.2        1 <1>        0.000
     10 O5         -3.2721   -2.0130    0.8986 O.2        1 <1>        0.000
     11 H           1.2616    1.4731    0.9344 H.spc      1 <1>        0.000
     12 H           1.1322   -0.8146   -1.0562 H.spc      1 <1>        0.000
     13 H           4.5182   -0.9689    0.6808 H.spc      1 <1>        0.000
     14 H          -1.0828    1.7935    0.5028 H.spc      1 <1>        0.000
     15 H          -1.1126   -1.1618   -0.2405 H.spc      1 <1>        0.000
     16 H          -4.6963   -0.8449    0.2389 H.spc      1 <1>        0.000
@<TRIPOS>BOND
     1    8    9 1  
     2    9   10 2  
     3    1    2 2  
     4    2    3 1  
     5    1    6 1  
     6    3    4 1  
     7    4    5 2  
     8    6    7 2  
     9    7    8 1  
    10    1   11 1  
    11    2   12 1  
    12    4   13 1  
    13    6   14 1  
    14    7   15 1  
    15    9   16 1  
# Name:          frag3-244-3/31924
# Creation time: Sat Jun  5 12:52:37 2010


@<TRIPOS>MOLECULE
frag3-244-3/31924
   16    15     1     1     1
SMALL
USER_CHARGES


@<TRIPOS>ATOM
      1 C12         0.6103   -0.4409   -0.2631 C.2        1 <1>        0.000
      2 C13         1.8808   -0.2618    0.1225 C.2        1 <1>        0.000
      3 O2          2.9417   -0.5524   -0.7054 O.3        1 <1>        0.000
      4 C14         4.1191   -0.7858   -0.1155 C.2        1 <1>        0.000
      5 O3          4.3692   -0.7398    1.0792 O.2        1 <1>        0.000
      6 C16        -0.5693   -0.1629    0.4566 C.2        1 <1>        0.000
      7 C17        -1.8327   -0.4086    0.0751 C.2        1 <1>        0.000
      8 O4         -2.9048   -0.0391    0.8605 O.3        1 <1>        0.000
      9 C18        -4.0494   -0.7001    0.6595 C.2        1 <1>        0.000
     10 O5         -4.6429   -0.8648   -0.3953 O.2        1 <1>        0.000
     11 H           0.4709   -0.8548   -1.2618 H.spc      1 <1>        0.000
     12 H           2.0805    0.1256    1.1216 H.spc      1 <1>        0.000
     13 H           4.9477   -1.0460   -0.7741 H.spc      1 <1>        0.000
     14 H          -0.4412    0.3043    1.4330 H.spc      1 <1>        0.000
     15 H          -2.0152   -0.9105   -0.8751 H.spc      1 <1>        0.000
     16 H          -4.5078   -1.1453    1.5425 H.spc      1 <1>        0.000
@<TRIPOS>BOND
     1    8    9 1  
     2    9   10 2  
     3    1    2 2  
     4    2    3 1  
     5    1    6 1  
     6    3    4 1  
     7    4    5 2  
     8    6    7 2  
     9    7    8 1  
    10    1   11 1  
    11    2   12 1  
    12    4   13 1  
    13    6   14 1  
    14    7   15 1  
    15    9   16 1  
# Name:          frag3-244-3/31924
# Creation time: Sat Jun  5 12:52:37 2010


@<TRIPOS>MOLECULE
frag3-244-3/31924
   16    15     1     1     1
SMALL
USER_CHARGES


@<TRIPOS>ATOM
      1 C12        -0.6595    0.5890    0.1569 C.2        1 <1>        0.000
      2 C13        -1.6030   -0.3556    0.0381 C.2        1 <1>        0.000
      3 O2         -2.9104   -0.1268    0.3931 O.3        1 <1>        0.000
      4 C14        -3.7508   -1.1633    0.3090 C.2        1 <1>        0.000
      5 O3         -4.9711   -1.1214    0.4109 O.2        1 <1>        0.000
      6 C16         0.7050    0.5079   -0.1870 C.2        1 <1>        0.000
      7 C17         1.5496   -0.5014    0.0827 C.2        1 <1>        0.000
      8 O4          2.8797   -0.4393   -0.2710 O.3        1 <1>        0.000
      9 C18         3.7309   -1.1573    0.4702 C.2        1 <1>        0.000
     10 O5          4.9516   -1.1882    0.3712 O.2        1 <1>        0.000
     11 H          -0.9895    1.5412    0.5724 H.spc      1 <1>        0.000
     12 H          -1.3247   -1.3347   -0.3519 H.spc      1 <1>        0.000
     13 H          -3.3062   -2.1427    0.1323 H.spc      1 <1>        0.000
     14 H           1.1201    1.3564   -0.7309 H.spc      1 <1>        0.000
     15 H           1.1744   -1.3888    0.5925 H.spc      1 <1>        0.000
     16 H           3.2905   -1.7829    1.2466 H.spc      1 <1>        0.000
@<TRIPOS>BOND
     1    8    9 1  
     2    9   10 2  
     3    1    2 2  
     4    2    3 1  
     5    1    6 1  
     6    3    4 1  
     7    4    5 2  
     8    6    7 2  
     9    7    8 1  
    10    1   11 1  
    11    2   12 1  
    12    4   13 1  
    13    6   14 1  
    14    7   15 1  
    15    9   16 1  
# Name:          frag3-244-3/31924
# Creation time: Sat Jun  5 12:52:37 2010


@<TRIPOS>MOLECULE
frag3-244-3/31924
   16    15     1     1     1
SMALL
USER_CHARGES


@<TRIPOS>ATOM
      1 C12        -0.6528    0.5908   -0.3722 C.2        1 <1>        0.000
      2 C13        -1.4987   -0.4440   -0.2863 C.2        1 <1>        0.000
      3 O2         -2.8554   -0.3012   -0.4649 O.3        1 <1>        0.000
      4 C14        -3.6203   -0.7156    0.5570 C.2        1 <1>        0.000
      5 O3         -3.3483   -1.5359    1.4206 O.2        1 <1>        0.000
      6 C16         0.7501    0.6038   -0.2464 C.2        1 <1>        0.000
      7 C17         1.4999   -0.1162    0.6023 C.2        1 <1>        0.000
      8 O4          2.8707    0.0193    0.6748 O.3        1 <1>        0.000
      9 C18         3.5799   -1.0372    0.2526 C.2        1 <1>        0.000
     10 O5          3.1968   -2.0200   -0.3635 O.2        1 <1>        0.000
     11 H          -1.1148    1.5587   -0.5668 H.spc      1 <1>        0.000
     12 H          -1.0983   -1.4339   -0.0672 H.spc      1 <1>        0.000
     13 H          -4.6095   -0.2630    0.6251 H.spc      1 <1>        0.000
     14 H           1.2883    1.2756   -0.9150 H.spc      1 <1>        0.000
     15 H           1.0078   -0.8343    1.2583 H.spc      1 <1>        0.000
     16 H           4.6432   -1.0164    0.4916 H.spc      1 <1>        0.000
@<TRIPOS>BOND
     1    8    9 1  
     2    9   10 2  
     3    1    2 2  
     4    2    3 1  
     5    1    6 1  
     6    3    4 1  
     7    4    5 2  
     8    6    7 2  
     9    7    8 1  
    10    1   11 1  
    11    2   12 1  
    12    4   13 1  
    13    6   14 1  
    14    7   15 1  
    15    9   16 1  
# Name:          frag3-244-3/31924
# Creation time: Sat Jun  5 12:52:37 2010


@<TRIPOS>MOLECULE
frag3-244-3/31924
   16    15     1     1     1
SMALL
USER_CHARGES


@<TRIPOS>ATOM
      1 C12         0.6242   -0.5837   -0.1174 C.2        1 <1>        0.000
      2 C13         1.8373   -0.2457    0.3408 C.2        1 <1>        0.000
      3 O2          2.9906   -0.6248   -0.3053 O.3        1 <1>        0.000
      4 C14         4.0941   -0.7420    0.4398 C.2        1 <1>        0.000
      5 O3          5.2453   -0.5502    0.0730 O.2        1 <1>        0.000
      6 C16        -0.6343   -0.2449    0.4197 C.2        1 <1>        0.000
      7 C17        -1.8357   -0.6715    0.0003 C.2        1 <1>        0.000
      8 O4         -3.0018   -0.2211    0.5825 O.3        1 <1>        0.000
      9 C18        -4.1401   -0.7848    0.1668 C.2        1 <1>        0.000
     10 O5         -5.2575   -0.2876    0.1737 O.2        1 <1>        0.000
     11 H           0.6087   -1.1974   -1.0181 H.spc      1 <1>        0.000
     12 H           1.9121    0.3471    1.2524 H.spc      1 <1>        0.000
     13 H           3.9541   -1.0384    1.4793 H.spc      1 <1>        0.000
     14 H          -0.6314    0.4385    1.2688 H.spc      1 <1>        0.000
     15 H          -1.8909   -1.3894   -0.8181 H.spc      1 <1>        0.000
     16 H          -4.0642   -1.8005   -0.2215 H.spc      1 <1>        0.000
@<TRIPOS>BOND
     1    8    9 1  
     2    9   10 2  
     3    1    2 2  
     4    2    3 1  
     5    1    6 1  
     6    3    4 1  
     7    4    5 2  
     8    6    7 2  
     9    7    8 1  
    10    1   11 1  
    11    2   12 1  
    12    4   13 1  
    13    6   14 1  
    14    7   15 1  
    15    9   16 1  
# Name:          frag3-244-3/31924
# Creation time: Sat Jun  5 12:52:37 2010


@<TRIPOS>MOLECULE
frag3-244-3/31924
   16    15     1     1     1
SMALL
USER_CHARGES


@<TRIPOS>ATOM
      1 C12         0.5333   -0.5208    0.6971 C.2        1 <1>        0.000
      2 C13         1.6822   -0.2623    0.0561 C.2        1 <1>        0.000
      3 O2          2.8194   -1.0032    0.2740 O.3        1 <1>        0.000
      4 C14         3.9863   -0.4240   -0.0268 C.2        1 <1>        0.000
      5 O3          5.0416   -0.9956   -0.2707 O.2        1 <1>        0.000
      6 C16        -0.7087    0.1301    0.5538 C.2        1 <1>        0.000
      7 C17        -1.8729   -0.4198    0.1745 C.2        1 <1>        0.000
      8 O4         -3.0124    0.3434    0.0197 O.3        1 <1>        0.000
      9 C18        -4.1792   -0.3088    0.0388 C.2        1 <1>        0.000
     10 O5         -4.3677   -1.4953    0.2574 O.2        1 <1>        0.000
     11 H           0.5635   -1.3365    1.4195 H.spc      1 <1>        0.000
     12 H           1.7155    0.5597   -0.6590 H.spc      1 <1>        0.000
     13 H           3.9997    0.6655   -0.0581 H.spc      1 <1>        0.000
     14 H          -0.7256    1.1972    0.7753 H.spc      1 <1>        0.000
     15 H          -1.9194   -1.4921   -0.0153 H.spc      1 <1>        0.000
     16 H          -5.0674    0.2893   -0.1649 H.spc      1 <1>        0.000
@<TRIPOS>BOND
     1    8    9 1  
     2    9   10 2  
     3    1    2 2  
     4    2    3 1  
     5    1    6 1  
     6    3    4 1  
     7    4    5 2  
     8    6    7 2  
     9    7    8 1  
    10    1   11 1  
    11    2   12 1  
    12    4   13 1  
    13    6   14 1  
    14    7   15 1  
    15    9   16 1  
# Name:          frag3-244-3/31924
# Creation time: Sat Jun  5 12:52:37 2010


@<TRIPOS>MOLECULE
frag3-244-3/31924
   16    15     1     1     1
SMALL
USER_CHARGES


@<TRIPOS>ATOM
      1 C12        -0.4812    0.6242    0.5623 C.2        1 <1>        0.000
      2 C13        -1.5302   -0.1532    0.2544 C.2        1 <1>        0.000
      3 O2         -2.7896    0.0804    0.7532 O.3        1 <1>        0.000
      4 C14        -3.7445   -0.7484    0.3055 C.2        1 <1>        0.000
      5 O3         -3.6475   -1.9164   -0.0440 O.2        1 <1>        0.000
      6 C16         0.8533    0.5441    0.1185 C.2        1 <1>        0.000
      7 C17         1.4553   -0.4950   -0.4797 C.2        1 <1>        0.000
      8 O4          2.7731   -0.4817   -0.8847 O.3        1 <1>        0.000
      9 C18         3.6210   -1.0182    0.0207 C.2        1 <1>        0.000
     10 O5          3.4121   -1.3920    1.1678 O.2        1 <1>        0.000
     11 H          -0.6924    1.4367    1.2576 H.spc      1 <1>        0.000
     12 H          -1.3785   -1.0000   -0.4149 H.spc      1 <1>        0.000
     13 H          -4.7457   -0.3218    0.2448 H.spc      1 <1>        0.000
     14 H           1.4684    1.4294    0.2799 H.spc      1 <1>        0.000
     15 H           0.8711   -1.3984   -0.6549 H.spc      1 <1>        0.000
     16 H           4.6486   -1.1363   -0.3230 H.spc      1 <1>        0.000
@<TRIPOS>BOND
     1    8    9 1  
     2    9   10 2  
     3    1    2 2  
     4    2    3 1  
     5    1    6 1  
     6    3    4 1  
     7    4    5 2  
     8    6    7 2  
     9    7    8 1  
    10    1   11 1  
    11    2   12 1  
    12    4   13 1  
    13    6   14 1  
    14    7   15 1  
    15    9   16 1  
# Name:          frag3-244-3/31924
# Creation time: Sat Jun  5 12:52:37 2010


@<TRIPOS>MOLECULE
frag3-244-3/31924
   16    15     1     1     1
SMALL
USER_CHARGES


@<TRIPOS>ATOM
      1 C12         0.7628    0.7663   -0.2989 C.2        1 <1>        0.000
      2 C13         1.6613   -0.1810    0.0059 C.2        1 <1>        0.000
      3 O2          2.9958   -0.0511   -0.3029 O.3        1 <1>        0.000
      4 C14         3.7879   -1.0625    0.0770 C.2        1 <1>        0.000
      5 O3          3.5204   -1.9893    0.8276 O.2        1 <1>        0.000
      6 C16        -0.6226    0.7875   -0.0388 C.2        1 <1>        0.000
      7 C17        -1.4394   -0.2716    0.1123 C.2        1 <1>        0.000
      8 O4         -2.7859   -0.1168    0.3362 O.3        1 <1>        0.000
      9 C18        -3.5410   -1.2097    0.1520 C.2        1 <1>        0.000
     10 O5         -4.4173   -1.6279    0.9035 O.2        1 <1>        0.000
     11 H           1.1574    1.6393   -0.8188 H.spc      1 <1>        0.000
     12 H           1.3235   -1.0836    0.5150 H.spc      1 <1>        0.000
     13 H           4.7971   -1.0584   -0.3348 H.spc      1 <1>        0.000
     14 H          -1.0837    1.7712    0.0498 H.spc      1 <1>        0.000
     15 H          -1.0221   -1.2770    0.0556 H.spc      1 <1>        0.000
     16 H          -3.3585   -1.7844   -0.7560 H.spc      1 <1>        0.000
@<TRIPOS>BOND
     1    8    9 1  
     2    9   10 2  
     3    1    2 2  
     4    2    3 1  
     5    1    6 1  
     6    3    4 1  
     7    4    5 2  
     8    6    7 2  
     9    7    8 1  
    10    1   11 1  
    11    2   12 1  
    12    4   13 1  
    13    6   14 1  
    14    7   15 1  
    15    9   16 1  
# Name:          frag3-244-3/31924
# Creation time: Sat Jun  5 12:52:37 2010


@<TRIPOS>MOLECULE
frag3-244-3/31924
   16    15     1     1     1
SMALL
USER_CHARGES


@<TRIPOS>ATOM
      1 C12        -0.3911    0.3436    0.6667 C.2        1 <1>        0.000
      2 C13        -1.4081   -0.3421    0.1242 C.2        1 <1>        0.000
      3 O2         -2.6837   -0.2676    0.6143 O.3        1 <1>        0.000
      4 C14        -3.5782   -1.1081    0.0763 C.2        1 <1>        0.000
      5 O3         -4.7884   -1.1116    0.2948 O.2        1 <1>        0.000
      6 C16         0.9574    0.3893    0.2647 C.2        1 <1>        0.000
      7 C17         1.5872   -0.4516   -0.5697 C.2        1 <1>        0.000
      8 O4          2.9237   -0.3284   -0.8860 O.3        1 <1>        0.000
      9 C18         3.7700   -0.7113    0.0926 C.2        1 <1>        0.000
     10 O5          3.5331   -1.3684    1.0961 O.2        1 <1>        0.000
     11 H          -0.6430    0.9482    1.5380 H.spc      1 <1>        0.000
     12 H          -1.2118   -0.9809   -0.7369 H.spc      1 <1>        0.000
     13 H          -3.1983   -1.8571   -0.6185 H.spc      1 <1>        0.000
     14 H           1.5578    1.1997    0.6782 H.spc      1 <1>        0.000
     15 H           1.0182   -1.2669   -1.0166 H.spc      1 <1>        0.000
     16 H           4.8051   -0.3915   -0.0277 H.spc      1 <1>        0.000
@<TRIPOS>BOND
     1    8    9 1  
     2    9   10 2  
     3    1    2 2  
     4    2    3 1  
     5    1    6 1  
     6    3    4 1  
     7    4    5 2  
     8    6    7 2  
     9    7    8 1  
    10    1   11 1  
    11    2   12 1  
    12    4   13 1  
    13    6   14 1  
    14    7   15 1  
    15    9   16 1  
# Name:          frag3-244-3/31924
# Creation time: Sat Jun  5 12:52:37 2010


@<TRIPOS>MOLECULE
frag3-244-3/31924
   16    15     1     1     1
SMALL
USER_CHARGES


@<TRIPOS>ATOM
      1 C12         0.7680    0.0668   -0.2531 C.2        1 <1>        0.000
      2 C13         1.8647    0.2388    0.4904 C.2        1 <1>        0.000
      3 O2          3.1349    0.2335   -0.0409 O.3        1 <1>        0.000
      4 C14         3.8232   -0.9100    0.0916 C.2        1 <1>        0.000
      5 O3          3.3830   -2.0229    0.3357 O.2        1 <1>        0.000
      6 C16        -0.5815    0.0907    0.1487 C.2        1 <1>        0.000
      7 C17        -1.6616   -0.1849   -0.5938 C.2        1 <1>        0.000
      8 O4         -2.9395   -0.0677   -0.0963 O.3        1 <1>        0.000
      9 C18        -3.4622   -1.1724    0.4541 C.2        1 <1>        0.000
     10 O5         -4.4069   -1.2281    1.2373 O.2        1 <1>        0.000
     11 H           0.9411   -0.1167   -1.3135 H.spc      1 <1>        0.000
     12 H           1.7489    0.3898    1.5637 H.spc      1 <1>        0.000
     13 H           4.9036   -0.8376   -0.0334 H.spc      1 <1>        0.000
     14 H          -0.7692    0.3660    1.1865 H.spc      1 <1>        0.000
     15 H          -1.5243   -0.5123   -1.6244 H.spc      1 <1>        0.000
     16 H          -3.0008   -2.1205    0.1779 H.spc      1 <1>        0.000
@<TRIPOS>BOND
     1    8    9 1  
     2    9   10 2  
     3    1    2 2  
     4    2    3 1  
     5    1    6 1  
     6    3    4 1  
     7    4    5 2  
     8    6    7 2  
     9    7    8 1  
    10    1   11 1  
    11    2   12 1  
    12    4   13 1  
    13    6   14 1  
    14    7   15 1  
    15    9   16 1  
# Name:          frag3-244-3/31924
# Creation time: Sat Jun  5 12:52:37 2010


@<TRIPOS>MOLECULE
frag3-244-3/31924
   16    15     1     1     1
SMALL
USER_CHARGES


@<TRIPOS>ATOM
      1 C12         0.6724   -1.1014    0.1401 C.2        1 <1>        0.000
      2 C13         1.4992   -0.1864   -0.3860 C.2        1 <1>        0.000
      3 O2          2.7164   -0.4854   -0.9530 O.3        1 <1>        0.000
      4 C14         3.6967   -0.7065   -0.0546 C.2        1 <1>        0.000
      5 O3          3.7438   -0.3949    1.1312 O.2        1 <1>        0.000
      6 C16        -0.6022   -0.9221    0.7086 C.2        1 <1>        0.000
      7 C17        -1.5083    0.0188    0.3995 C.2        1 <1>        0.000
      8 O4         -2.7158    0.1472    1.0537 O.3        1 <1>        0.000
      9 C18        -3.7714   -0.3444    0.3900 C.2        1 <1>        0.000
     10 O5         -3.8089   -0.9811   -0.6553 O.2        1 <1>        0.000
     11 H           1.0389   -2.1278    0.1254 H.spc      1 <1>        0.000
     12 H           1.1880    0.8580   -0.3631 H.spc      1 <1>        0.000
     13 H           4.5700   -1.2364   -0.4349 H.spc      1 <1>        0.000
     14 H          -0.8862   -1.6279    1.4892 H.spc      1 <1>        0.000
     15 H          -1.2788    0.7149   -0.4073 H.spc      1 <1>        0.000
     16 H          -4.7404   -0.1483    0.8489 H.spc      1 <1>        0.000
@<TRIPOS>BOND
     1    8    9 1  
     2    9   10 2  
     3    1    2 2  
     4    2    3 1  
     5    1    6 1  
     6    3    4 1  
     7    4    5 2  
     8    6    7 2  
     9    7    8 1  
    10    1   11 1  
    11    2   12 1  
    12    4   13 1  
    13    6   14 1  
    14    7   15 1  
    15    9   16 1  
# Name:          frag3-244-3/31924
# Creation time: Sat Jun  5 12:52:37 2010


@<TRIPOS>MOLECULE
frag3-244-3/31924
   16    15     1     1     1
SMALL
USER_CHARGES


@<TRIPOS>ATOM
      1 C12        -0.5926    0.3045    0.3161 C.2        1 <1>        0.000
      2 C13        -1.4787   -0.6302    0.6794 C.2        1 <1>        0.000
      3 O2         -2.6979   -0.3323    1.2423 O.3        1 <1>        0.000
      4 C14        -3.7425   -0.4203    0.3966 C.2        1 <1>        0.000
      5 O3         -3.8056   -0.9845   -0.6859 O.2        1 <1>        0.000
      6 C16         0.6833    0.1492   -0.2568 C.2        1 <1>        0.000
      7 C17         1.4533   -0.9506   -0.2510 C.2        1 <1>        0.000
      8 O4          2.6985   -0.9971   -0.8413 O.3        1 <1>        0.000
      9 C18         3.7089   -0.6423   -0.0168 C.2        1 <1>        0.000
     10 O5          3.6949   -0.4527    1.1913 O.2        1 <1>        0.000
     11 H          -0.9041    1.3347    0.4889 H.spc      1 <1>        0.000
     12 H          -1.2220   -1.6777    0.5217 H.spc      1 <1>        0.000
     13 H          -4.6552    0.0792    0.7215 H.spc      1 <1>        0.000
     14 H           1.0938    1.0225   -0.7637 H.spc      1 <1>        0.000
     15 H           1.0773   -1.8468    0.2424 H.spc      1 <1>        0.000
     16 H           4.6770   -0.5052   -0.4986 H.spc      1 <1>        0.000
@<TRIPOS>BOND
     1    8    9 1  
     2    9   10 2  
     3    1    2 2  
     4    2    3 1  
     5    1    6 1  
     6    3    4 1  
     7    4    5 2  
     8    6    7 2  
     9    7    8 1  
    10    1   11 1  
    11    2   12 1  
    12    4   13 1  
    13    6   14 1  
    14    7   15 1  
    15    9   16 1  
# Name:          frag3-244-3/31924
# Creation time: Sat Jun  5 12:52:37 2010


@<TRIPOS>MOLECULE
frag3-244-3/31924
   16    15     1     1     1
SMALL
USER_CHARGES


@<TRIPOS>ATOM
      1 C12        -0.4890    0.1147   -0.1588 C.2        1 <1>        0.000
      2 C13        -1.6082   -0.5692    0.1106 C.2        1 <1>        0.000
      3 O2         -2.8316   -0.2139   -0.4129 O.3        1 <1>        0.000
      4 C14        -3.8995   -0.6590    0.2652 C.2        1 <1>        0.000
      5 O3         -3.9311   -1.3618    1.2651 O.2        1 <1>        0.000
      6 C16         0.8281   -0.1333    0.2619 C.2        1 <1>        0.000
      7 C17         1.9272    0.5856    0.0300 C.2        1 <1>        0.000
      8 O4          3.1919    0.2479    0.4607 O.3        1 <1>        0.000
      9 C18         3.6357   -0.9332   -0.0298 C.2        1 <1>        0.000
     10 O5          3.0985   -2.0340   -0.0180 O.2        1 <1>        0.000
     11 H          -0.6185    0.9895   -0.7961 H.spc      1 <1>        0.000
     12 H          -1.5490   -1.4373    0.7671 H.spc      1 <1>        0.000
     13 H          -4.8692   -0.3533   -0.1277 H.spc      1 <1>        0.000
     14 H           0.9710   -1.0345    0.8581 H.spc      1 <1>        0.000
     15 H           1.8172    1.5071   -0.5417 H.spc      1 <1>        0.000
     16 H           4.6158   -0.8997   -0.5055 H.spc      1 <1>        0.000
@<TRIPOS>BOND
     1    8    9 1  
     2    9   10 2  
     3    1    2 2  
     4    2    3 1  
     5    1    6 1  
     6    3    4 1  
     7    4    5 2  
     8    6    7 2  
     9    7    8 1  
    10    1   11 1  
    11    2   12 1  
    12    4   13 1  
    13    6   14 1  
    14    7   15 1  
    15    9   16 1  
# Name:          frag3-244-3/31924
# Creation time: Sat Jun  5 12:52:37 2010


@<TRIPOS>MOLECULE
frag3-244-3/31924
   16    15     1     1     1
SMALL
USER_CHARGES


@<TRIPOS>ATOM
      1 C12        -0.6319   -0.8303    0.1520 C.2        1 <1>        0.000
      2 C13        -1.7460   -0.2118   -0.2511 C.2        1 <1>        0.000
      3 O2         -2.9079   -0.8928   -0.5399 O.3        1 <1>        0.000
      4 C14        -3.9069   -0.7496    0.3443 C.2        1 <1>        0.000
      5 O3         -3.9724    0.0329    1.2797 O.2        1 <1>        0.000
      6 C16         0.6166   -0.2723    0.4894 C.2        1 <1>        0.000
      7 C17         1.7125   -0.1977   -0.2789 C.2        1 <1>        0.000
      8 O4          2.8901    0.3560    0.1825 O.3        1 <1>        0.000
      9 C18         3.9110   -0.5022    0.3413 C.2        1 <1>        0.000
     10 O5          3.9568   -1.6885    0.0546 O.2        1 <1>        0.000
     11 H          -0.6986   -1.9154    0.2304 H.spc      1 <1>        0.000
     12 H          -1.7347    0.8731   -0.3553 H.spc      1 <1>        0.000
     13 H          -4.7629   -1.4112    0.2118 H.spc      1 <1>        0.000
     14 H           0.7015    0.1476    1.4917 H.spc      1 <1>        0.000
     15 H           1.6728   -0.5852   -1.2969 H.spc      1 <1>        0.000
     16 H           4.8161   -0.0859    0.7834 H.spc      1 <1>        0.000
@<TRIPOS>BOND
     1    8    9 1  
     2    9   10 2  
     3    1    2 2  
     4    2    3 1  
     5    1    6 1  
     6    3    4 1  
     7    4    5 2  
     8    6    7 2  
     9    7    8 1  
    10    1   11 1  
    11    2   12 1  
    12    4   13 1  
    13    6   14 1  
    14    7   15 1  
    15    9   16 1  
# Name:          frag3-244-3/31924
# Creation time: Sat Jun  5 12:52:37 2010


@<TRIPOS>MOLECULE
frag3-244-3/31924
   16    15     1     1     1
SMALL
USER_CHARGES


@<TRIPOS>ATOM
      1 C12         0.8082   -0.0136   -0.2300 C.2        1 <1>        0.000
      2 C13         1.9555    0.5238    0.1929 C.2        1 <1>        0.000
      3 O2          3.1875    0.1296   -0.2786 O.3        1 <1>        0.000
      4 C14         3.5047   -1.1610   -0.0775 C.2        1 <1>        0.000
      5 O3          3.0142   -1.9306    0.7350 O.2        1 <1>        0.000
      6 C16        -0.5096    0.3203    0.1351 C.2        1 <1>        0.000
      7 C17        -1.6391   -0.3226   -0.1989 C.2        1 <1>        0.000
      8 O4         -2.8767    0.1485    0.1881 O.3        1 <1>        0.000
      9 C18        -3.6851   -0.7342    0.7864 C.2        1 <1>        0.000
     10 O5         -3.8376   -1.9164    0.5215 O.2        1 <1>        0.000
     11 H           0.9056   -0.8203   -0.9565 H.spc      1 <1>        0.000
     12 H           1.9145    1.3107    0.9460 H.spc      1 <1>        0.000
     13 H           4.2909   -1.5684   -0.7131 H.spc      1 <1>        0.000
     14 H          -0.6262    1.2041    0.7623 H.spc      1 <1>        0.000
     15 H          -1.5774   -1.2370   -0.7889 H.spc      1 <1>        0.000
     16 H          -4.2820   -0.3499    1.6135 H.spc      1 <1>        0.000
@<TRIPOS>BOND
     1    8    9 1  
     2    9   10 2  
     3    1    2 2  
     4    2    3 1  
     5    1    6 1  
     6    3    4 1  
     7    4    5 2  
     8    6    7 2  
     9    7    8 1  
    10    1   11 1  
    11    2   12 1  
    12    4   13 1  
    13    6   14 1  
    14    7   15 1  
    15    9   16 1  
# Name:          frag3-244-3/31924
# Creation time: Sat Jun  5 12:52:37 2010


@<TRIPOS>MOLECULE
frag3-244-3/31924
   16    15     1     1     1
SMALL
USER_CHARGES


@<TRIPOS>ATOM
      1 C12         0.5347    0.1240    0.8007 C.2        1 <1>        0.000
      2 C13         1.5371   -0.2411   -0.0128 C.2        1 <1>        0.000
      3 O2          2.8500   -0.1789    0.3711 O.3        1 <1>        0.000
      4 C14         3.6764   -1.0777   -0.1829 C.2        1 <1>        0.000
      5 O3          4.8813   -1.1812    0.0338 O.2        1 <1>        0.000
      6 C16        -0.8507    0.1045    0.5515 C.2        1 <1>        0.000
      7 C17        -1.4983   -0.6032   -0.3859 C.2        1 <1>        0.000
      8 O4         -2.8541   -0.5084   -0.5869 O.3        1 <1>        0.000
      9 C18        -3.6205   -0.9092    0.4443 C.2        1 <1>        0.000
     10 O5         -4.7339   -0.4850    0.7411 O.2        1 <1>        0.000
     11 H           0.8326    0.4836    1.7856 H.spc      1 <1>        0.000
     12 H           1.2981   -0.5997   -1.0140 H.spc      1 <1>        0.000
     13 H           3.2389   -1.7815   -0.8909 H.spc      1 <1>        0.000
     14 H          -1.4664    0.7355    1.1925 H.spc      1 <1>        0.000
     15 H          -0.9241   -1.2829   -1.0155 H.spc      1 <1>        0.000
     16 H          -3.2101   -1.6918    1.0824 H.spc      1 <1>        0.000
@<TRIPOS>BOND
     1    8    9 1  
     2    9   10 2  
     3    1    2 2  
     4    2    3 1  
     5    1    6 1  
     6    3    4 1  
     7    4    5 2  
     8    6    7 2  
     9    7    8 1  
    10    1   11 1  
    11    2   12 1  
    12    4   13 1  
    13    6   14 1  
    14    7   15 1  
    15    9   16 1  
# Name:          frag3-244-3/31924
# Creation time: Sat Jun  5 12:52:37 2010


@<TRIPOS>MOLECULE
frag3-244-3/31924
   16    15     1     1     1
SMALL
USER_CHARGES


@<TRIPOS>ATOM
      1 C12         0.6266   -0.8121    0.2011 C.2        1 <1>        0.000
      2 C13         1.4789   -0.3070   -0.6944 C.2        1 <1>        0.000
      3 O2          2.7234   -0.8325   -0.9636 O.3        1 <1>        0.000
      4 C14         3.5869   -0.7534    0.0706 C.2        1 <1>        0.000
      5 O3          3.5270   -0.0473    1.0694 O.2        1 <1>        0.000
      6 C16        -0.6733   -0.3999    0.5244 C.2        1 <1>        0.000
      7 C17        -1.6762   -1.1312    1.0186 C.2        1 <1>        0.000
      8 O4         -2.9445   -0.6527    1.2753 O.3        1 <1>        0.000
      9 C18        -3.5892   -0.2083    0.1702 C.2        1 <1>        0.000
     10 O5         -3.1377    0.1882   -0.8977 O.2        1 <1>        0.000
     11 H           0.9959   -1.6703    0.7626 H.spc      1 <1>        0.000
     12 H           1.1695    0.5791   -1.2486 H.spc      1 <1>        0.000
     13 H           4.4566   -1.4075    0.0084 H.spc      1 <1>        0.000
     14 H          -0.8946    0.6531    0.3502 H.spc      1 <1>        0.000
     15 H          -1.4782   -2.1811    1.2345 H.spc      1 <1>        0.000
     16 H          -4.6768   -0.2025    0.2418 H.spc      1 <1>        0.000
@<TRIPOS>BOND
     1    8    9 1  
     2    9   10 2  
     3    1    2 2  
     4    2    3 1  
     5    1    6 1  
     6    3    4 1  
     7    4    5 2  
     8    6    7 2  
     9    7    8 1  
    10    1   11 1  
    11    2   12 1  
    12    4   13 1  
    13    6   14 1  
    14    7   15 1  
    15    9   16 1  
# Name:          frag3-244-3/31924
# Creation time: Sat Jun  5 12:52:37 2010


@<TRIPOS>MOLECULE
frag3-244-3/31924
   16    15     1     1     1
SMALL
USER_CHARGES


@<TRIPOS>ATOM
      1 C12        -0.6424   -0.1097    0.1464 C.2        1 <1>        0.000
      2 C13        -1.5413   -0.4677    1.0641 C.2        1 <1>        0.000
      3 O2         -2.8023    0.0669    1.1987 O.3        1 <1>        0.000
      4 C14        -3.7037   -0.4751    0.3485 C.2        1 <1>        0.000
      5 O3         -3.5330   -1.1679   -0.6473 O.2        1 <1>        0.000
      6 C16         0.6591   -0.5831   -0.0755 C.2        1 <1>        0.000
      7 C17         1.6567   -0.0082   -0.7504 C.2        1 <1>        0.000
      8 O4          2.9012   -0.5567   -0.9704 O.3        1 <1>        0.000
      9 C18         3.6347   -0.7074    0.1541 C.2        1 <1>        0.000
     10 O5          3.2931   -0.9475    1.3058 O.2        1 <1>        0.000
     11 H          -0.9702    0.6728   -0.5379 H.spc      1 <1>        0.000
     12 H          -1.2530   -1.2496    1.7667 H.spc      1 <1>        0.000
     13 H          -4.7458   -0.2620    0.5867 H.spc      1 <1>        0.000
     14 H           0.8872   -1.5543    0.3637 H.spc      1 <1>        0.000
     15 H           1.4704    0.9829   -1.1641 H.spc      1 <1>        0.000
     16 H           4.7099   -0.5969    0.0131 H.spc      1 <1>        0.000
@<TRIPOS>BOND
     1    8    9 1  
     2    9   10 2  
     3    1    2 2  
     4    2    3 1  
     5    1    6 1  
     6    3    4 1  
     7    4    5 2  
     8    6    7 2  
     9    7    8 1  
    10    1   11 1  
    11    2   12 1  
    12    4   13 1  
    13    6   14 1  
    14    7   15 1  
    15    9   16 1  
# Name:          frag3-244-3/31924
# Creation time: Sat Jun  5 12:52:37 2010


@<TRIPOS>MOLECULE
frag3-244-3/31924
   16    15     1     1     1
SMALL
USER_CHARGES


@<TRIPOS>ATOM
      1 C12         0.7131   -0.5796   -0.7943 C.2        1 <1>        0.000
      2 C13         1.6130   -0.0168    0.0229 C.2        1 <1>        0.000
      3 O2          2.8969    0.2777   -0.3728 O.3        1 <1>        0.000
      4 C14         3.8526   -0.4892    0.1790 C.2        1 <1>        0.000
      5 O3          3.7667   -1.2347    1.1453 O.2        1 <1>        0.000
      6 C16        -0.6351   -0.9024   -0.5410 C.2        1 <1>        0.000
      7 C17        -1.3414   -0.6365    0.5714 C.2        1 <1>        0.000
      8 O4         -2.6403   -1.0486    0.7288 O.3        1 <1>        0.000
      9 C18        -3.5741   -0.0891    0.6102 C.2        1 <1>        0.000
     10 O5         -4.7293   -0.2371    0.2245 O.2        1 <1>        0.000
     11 H           1.0737   -0.8215   -1.7941 H.spc      1 <1>        0.000
     12 H           1.3151    0.2177    1.0448 H.spc      1 <1>        0.000
     13 H           4.8323   -0.4407   -0.2964 H.spc      1 <1>        0.000
     14 H          -1.1647   -1.4266   -1.3365 H.spc      1 <1>        0.000
     15 H          -0.8660   -0.0746    1.3754 H.spc      1 <1>        0.000
     16 H          -3.2748    0.9225    0.8844 H.spc      1 <1>        0.000
@<TRIPOS>BOND
     1    8    9 1  
     2    9   10 2  
     3    1    2 2  
     4    2    3 1  
     5    1    6 1  
     6    3    4 1  
     7    4    5 2  
     8    6    7 2  
     9    7    8 1  
    10    1   11 1  
    11    2   12 1  
    12    4   13 1  
    13    6   14 1  
    14    7   15 1  
    15    9   16 1  
# Name:          frag3-244-3/31924
# Creation time: Sat Jun  5 12:52:38 2010


@<TRIPOS>MOLECULE
frag3-244-3/31924
   16    15     1     1     1
SMALL
USER_CHARGES


@<TRIPOS>ATOM
      1 C12        -0.6825   -0.6070    0.0586 C.2        1 <1>        0.000
      2 C13        -1.6335    0.3176    0.1939 C.2        1 <1>        0.000
      3 O2         -2.9496    0.1055   -0.1278 O.3        1 <1>        0.000
      4 C14        -3.5593   -0.8913    0.5419 C.2        1 <1>        0.000
      5 O3         -4.7402   -1.2138    0.4379 O.2        1 <1>        0.000
      6 C16         0.6870   -0.5196    0.3586 C.2        1 <1>        0.000
      7 C17         1.6330    0.1360   -0.3236 C.2        1 <1>        0.000
      8 O4          2.9577    0.1350    0.0470 O.3        1 <1>        0.000
      9 C18         3.5417   -1.0798    0.0849 C.2        1 <1>        0.000
     10 O5          4.6676   -1.3386    0.5026 O.2        1 <1>        0.000
     11 H          -1.0143   -1.5653   -0.3409 H.spc      1 <1>        0.000
     12 H          -1.3493    1.2959    0.5815 H.spc      1 <1>        0.000
     13 H          -2.9492   -1.4644    1.2401 H.spc      1 <1>        0.000
     14 H           1.0180   -1.0482    1.2525 H.spc      1 <1>        0.000
     15 H           1.3411    0.6956   -1.2123 H.spc      1 <1>        0.000
     16 H           2.9553   -1.9171   -0.2935 H.spc      1 <1>        0.000
@<TRIPOS>BOND
     1    8    9 1  
     2    9   10 2  
     3    1    2 2  
     4    2    3 1  
     5    1    6 1  
     6    3    4 1  
     7    4    5 2  
     8    6    7 2  
     9    7    8 1  
    10    1   11 1  
    11    2   12 1  
    12    4   13 1  
    13    6   14 1  
    14    7   15 1  
    15    9   16 1  
# Name:          frag3-244-3/31924
# Creation time: Sat Jun  5 12:52:38 2010


@<TRIPOS>MOLECULE
frag3-244-3/31924
   16    15     1     1     1
SMALL
USER_CHARGES


@<TRIPOS>ATOM
      1 C12        -0.6419    0.1102   -0.4090 C.2        1 <1>        0.000
      2 C13        -1.6443   -0.5404    0.2025 C.2        1 <1>        0.000
      3 O2         -2.8378   -0.8052   -0.4288 O.3        1 <1>        0.000
      4 C14        -3.8821   -1.0637    0.3690 C.2        1 <1>        0.000
      5 O3         -4.3006   -0.3854    1.2964 O.2        1 <1>        0.000
      6 C16         0.6405    0.4131    0.0896 C.2        1 <1>        0.000
      7 C17         1.8021   -0.1800   -0.2319 C.2        1 <1>        0.000
      8 O4          2.9892    0.1872    0.3701 O.3        1 <1>        0.000
      9 C18         3.9013   -0.7871    0.5037 C.2        1 <1>        0.000
     10 O5          3.8955   -1.9051    0.0124 O.2        1 <1>        0.000
     11 H          -0.8471    0.4486   -1.4246 H.spc      1 <1>        0.000
     12 H          -1.5083   -0.8696    1.2327 H.spc      1 <1>        0.000
     13 H          -4.4231   -1.9883    0.1677 H.spc      1 <1>        0.000
     14 H           0.6965    1.2208    0.8194 H.spc      1 <1>        0.000
     15 H           1.8077   -0.9684   -0.9845 H.spc      1 <1>        0.000
     16 H           4.7594   -0.5501    1.1327 H.spc      1 <1>        0.000
@<TRIPOS>BOND
     1    8    9 1  
     2    9   10 2  
     3    1    2 2  
     4    2    3 1  
     5    1    6 1  
     6    3    4 1  
     7    4    5 2  
     8    6    7 2  
     9    7    8 1  
    10    1   11 1  
    11    2   12 1  
    12    4   13 1  
    13    6   14 1  
    14    7   15 1  
    15    9   16 1  
# Name:          frag3-244-3/31924
# Creation time: Sat Jun  5 12:52:38 2010


@<TRIPOS>MOLECULE
frag3-244-3/31924
   16    15     1     1     1
SMALL
USER_CHARGES


@<TRIPOS>ATOM
      1 C12         0.9299   -0.1477   -0.6608 C.2        1 <1>        0.000
      2 C13         1.7626    0.4580    0.1875 C.2        1 <1>        0.000
      3 O2          3.1341    0.3489    0.1531 O.3        1 <1>        0.000
      4 C14         3.5996   -0.8931    0.4034 C.2        1 <1>        0.000
      5 O3          2.9918   -1.9558    0.4035 O.2        1 <1>        0.000
      6 C16        -0.4722   -0.0798   -0.7382 C.2        1 <1>        0.000
      7 C17        -1.3588   -0.2505    0.2590 C.2        1 <1>        0.000
      8 O4         -2.7132   -0.1874    0.0349 O.3        1 <1>        0.000
      9 C18        -3.4835   -0.7716    0.9659 C.2        1 <1>        0.000
     10 O5         -4.4685   -1.4774    0.7656 O.2        1 <1>        0.000
     11 H           1.4063   -0.7890   -1.4023 H.spc      1 <1>        0.000
     12 H           1.3249    1.0849    0.9643 H.spc      1 <1>        0.000
     13 H           4.6621   -0.9589    0.6375 H.spc      1 <1>        0.000
     14 H          -0.8898    0.1365   -1.7215 H.spc      1 <1>        0.000
     15 H          -0.9945   -0.4433    1.2681 H.spc      1 <1>        0.000
     16 H          -3.2065   -0.6023    2.0064 H.spc      1 <1>        0.000
@<TRIPOS>BOND
     1    8    9 1  
     2    9   10 2  
     3    1    2 2  
     4    2    3 1  
     5    1    6 1  
     6    3    4 1  
     7    4    5 2  
     8    6    7 2  
     9    7    8 1  
    10    1   11 1  
    11    2   12 1  
    12    4   13 1  
    13    6   14 1  
    14    7   15 1  
    15    9   16 1  
# Name:          frag3-244-3/31924
# Creation time: Sat Jun  5 12:52:38 2010


@<TRIPOS>MOLECULE
frag3-244-3/31924
   16    15     1     1     1
SMALL
USER_CHARGES


@<TRIPOS>ATOM
      1 C12         0.7876    0.1596    0.2092 C.2        1 <1>        0.000
      2 C13         1.4394   -0.8083   -0.4439 C.2        1 <1>        0.000
      3 O2          2.7861   -0.7785   -0.6914 O.3        1 <1>        0.000
      4 C14         3.5750   -0.9218    0.3928 C.2        1 <1>        0.000
      5 O3          4.6403   -0.3429    0.5948 O.2        1 <1>        0.000
      6 C16        -0.5814    0.2448    0.5247 C.2        1 <1>        0.000
      7 C17        -1.4632   -0.7670    0.5962 C.2        1 <1>        0.000
      8 O4         -2.7889   -0.5603    0.8894 O.3        1 <1>        0.000
      9 C18        -3.6424   -0.7493   -0.1341 C.2        1 <1>        0.000
     10 O5         -4.8305   -0.4325   -0.1639 O.2        1 <1>        0.000
     11 H           1.4003    0.9971    0.5428 H.spc      1 <1>        0.000
     12 H           0.8685   -1.6666   -0.7981 H.spc      1 <1>        0.000
     13 H           3.2363   -1.6159    1.1620 H.spc      1 <1>        0.000
     14 H          -0.9694    1.2416    0.7342 H.spc      1 <1>        0.000
     15 H          -1.1151   -1.7840    0.4157 H.spc      1 <1>        0.000
     16 H          -3.2406   -1.2312   -1.0254 H.spc      1 <1>        0.000
@<TRIPOS>BOND
     1    8    9 1  
     2    9   10 2  
     3    1    2 2  
     4    2    3 1  
     5    1    6 1  
     6    3    4 1  
     7    4    5 2  
     8    6    7 2  
     9    7    8 1  
    10    1   11 1  
    11    2   12 1  
    12    4   13 1  
    13    6   14 1  
    14    7   15 1  
    15    9   16 1  
# Name:          frag3-244-3/31924
# Creation time: Sat Jun  5 12:52:38 2010


@<TRIPOS>MOLECULE
frag3-244-3/31924
   16    15     1     1     1
SMALL
USER_CHARGES


@<TRIPOS>ATOM
      1 C12        -0.5668   -0.8083   -0.0371 C.2        1 <1>        0.000
      2 C13        -1.6844   -0.4184    0.5919 C.2        1 <1>        0.000
      3 O2         -2.9071   -0.9786    0.3204 O.3        1 <1>        0.000
      4 C14        -3.9810   -0.2327    0.6112 C.2        1 <1>        0.000
      5 O3         -5.0432   -0.2204   -0.0070 O.2        1 <1>        0.000
      6 C16         0.7525   -0.3555    0.1482 C.2        1 <1>        0.000
      7 C17         1.7760   -0.4340   -0.7045 C.2        1 <1>        0.000
      8 O4          3.0409    0.0166   -0.4048 O.3        1 <1>        0.000
      9 C18         3.6653   -0.6485    0.5876 C.2        1 <1>        0.000
     10 O5          4.8698   -0.8764    0.6681 O.2        1 <1>        0.000
     11 H          -0.6977   -1.5808   -0.7948 H.spc      1 <1>        0.000
     12 H          -1.6198    0.3688    1.3430 H.spc      1 <1>        0.000
     13 H          -3.9058    0.4250    1.4772 H.spc      1 <1>        0.000
     14 H           0.9647    0.1179    1.1068 H.spc      1 <1>        0.000
     15 H           1.6015   -0.8763   -1.6853 H.spc      1 <1>        0.000
     16 H           3.0397   -1.0209    1.3988 H.spc      1 <1>        0.000
@<TRIPOS>BOND
     1    8    9 1  
     2    9   10 2  
     3    1    2 2  
     4    2    3 1  
     5    1    6 1  
     6    3    4 1  
     7    4    5 2  
     8    6    7 2  
     9    7    8 1  
    10    1   11 1  
    11    2   12 1  
    12    4   13 1  
    13    6   14 1  
    14    7   15 1  
    15    9   16 1  
# Name:          frag3-244-3/31924
# Creation time: Sat Jun  5 12:52:38 2010


@<TRIPOS>MOLECULE
frag3-244-3/31924
   16    15     1     1     1
SMALL
USER_CHARGES


@<TRIPOS>ATOM
      1 C12        -0.6653   -0.2224   -0.0010 C.2        1 <1>        0.000
      2 C13        -1.5815   -0.4714    0.9390 C.2        1 <1>        0.000
      3 O2         -2.8820   -0.0473    0.8441 O.3        1 <1>        0.000
      4 C14        -3.7317   -0.9021    0.2475 C.2        1 <1>        0.000
      5 O3         -4.7986   -0.6063   -0.2868 O.2        1 <1>        0.000
      6 C16         0.6872   -0.6010   -0.0406 C.2        1 <1>        0.000
      7 C17         1.7020    0.0288   -0.6366 C.2        1 <1>        0.000
      8 O4          2.9883   -0.4575   -0.6553 O.3        1 <1>        0.000
      9 C18         3.5070   -0.7657    0.5483 C.2        1 <1>        0.000
     10 O5          4.6966   -0.9112    0.8154 O.2        1 <1>        0.000
     11 H          -1.0160    0.3550   -0.8565 H.spc      1 <1>        0.000
     12 H          -1.2816   -1.0372    1.8211 H.spc      1 <1>        0.000
     13 H          -3.4482   -1.9545    0.2367 H.spc      1 <1>        0.000
     14 H           0.9393   -1.5245    0.4806 H.spc      1 <1>        0.000
     15 H           1.5008    0.9775   -1.1342 H.spc      1 <1>        0.000
     16 H           2.8004   -0.8994    1.3674 H.spc      1 <1>        0.000
@<TRIPOS>BOND
     1    8    9 1  
     2    9   10 2  
     3    1    2 2  
     4    2    3 1  
     5    1    6 1  
     6    3    4 1  
     7    4    5 2  
     8    6    7 2  
     9    7    8 1  
    10    1   11 1  
    11    2   12 1  
    12    4   13 1  
    13    6   14 1  
    14    7   15 1  
    15    9   16 1  
# Name:          frag3-244-3/31924
# Creation time: Sat Jun  5 12:52:38 2010


@<TRIPOS>MOLECULE
frag3-244-3/31924
   16    15     1     1     1
SMALL
USER_CHARGES


@<TRIPOS>ATOM
      1 C12         0.8501   -0.0966    0.1096 C.2        1 <1>        0.000
      2 C13         1.8993    0.4576   -0.4997 C.2        1 <1>        0.000
      3 O2          3.2027    0.1406   -0.2100 O.3        1 <1>        0.000
      4 C14         3.4512   -1.1703   -0.0188 C.2        1 <1>        0.000
      5 O3          4.0510   -1.6663    0.9302 O.2        1 <1>        0.000
      6 C16        -0.5212    0.1285   -0.1056 C.2        1 <1>        0.000
      7 C17        -1.5540   -0.3790    0.5808 C.2        1 <1>        0.000
      8 O4         -2.8584   -0.1019    0.2428 O.3        1 <1>        0.000
      9 C18        -3.6987   -1.1477    0.2440 C.2        1 <1>        0.000
     10 O5         -4.9000   -1.1212    0.5008 O.2        1 <1>        0.000
     11 H           1.0893   -0.8265    0.8830 H.spc      1 <1>        0.000
     12 H           1.7108    1.2043   -1.2711 H.spc      1 <1>        0.000
     13 H           3.0836   -1.8569   -0.7814 H.spc      1 <1>        0.000
     14 H          -0.7743    0.7958   -0.9295 H.spc      1 <1>        0.000
     15 H          -1.3548   -1.0304    1.4318 H.spc      1 <1>        0.000
     16 H          -3.2728   -2.1188   -0.0083 H.spc      1 <1>        0.000
@<TRIPOS>BOND
     1    8    9 1  
     2    9   10 2  
     3    1    2 2  
     4    2    3 1  
     5    1    6 1  
     6    3    4 1  
     7    4    5 2  
     8    6    7 2  
     9    7    8 1  
    10    1   11 1  
    11    2   12 1  
    12    4   13 1  
    13    6   14 1  
    14    7   15 1  
    15    9   16 1  
# Name:          frag3-244-3/31924
# Creation time: Sat Jun  5 12:52:38 2010


@<TRIPOS>MOLECULE
frag3-244-3/31924
   16    15     1     1     1
SMALL
USER_CHARGES


@<TRIPOS>ATOM
      1 C12        -0.6029   -0.1709   -0.2497 C.2        1 <1>        0.000
      2 C13        -1.3688   -0.9028    0.5700 C.2        1 <1>        0.000
      3 O2         -2.6563   -1.2606    0.2619 O.3        1 <1>        0.000
      4 C14        -3.6146   -0.4720    0.7794 C.2        1 <1>        0.000
      5 O3         -4.7086   -0.2313    0.2651 O.2        1 <1>        0.000
      6 C16         0.7372    0.2263   -0.0832 C.2        1 <1>        0.000
      7 C17         1.8140   -0.2400   -0.7275 C.2        1 <1>        0.000
      8 O4          3.0933    0.2052   -0.4588 O.3        1 <1>        0.000
      9 C18         3.8050   -0.5839    0.3698 C.2        1 <1>        0.000
     10 O5          3.4236   -1.5263    1.0470 O.2        1 <1>        0.000
     11 H          -1.0822    0.1622   -1.1702 H.spc      1 <1>        0.000
     12 H          -0.9508   -1.2279    1.5227 H.spc      1 <1>        0.000
     13 H          -3.4050   -0.0031    1.7408 H.spc      1 <1>        0.000
     14 H           0.9196    1.0050    0.6573 H.spc      1 <1>        0.000
     15 H           1.6755   -1.0016   -1.4949 H.spc      1 <1>        0.000
     16 H           4.8667   -0.3491    0.4463 H.spc      1 <1>        0.000
@<TRIPOS>BOND
     1    8    9 1  
     2    9   10 2  
     3    1    2 2  
     4    2    3 1  
     5    1    6 1  
     6    3    4 1  
     7    4    5 2  
     8    6    7 2  
     9    7    8 1  
    10    1   11 1  
    11    2   12 1  
    12    4   13 1  
    13    6   14 1  
    14    7   15 1  
    15    9   16 1  
# Name:          frag3-244-3/31924
# Creation time: Sat Jun  5 12:52:38 2010


@<TRIPOS>MOLECULE
frag3-244-3/31924
   16    15     1     1     1
SMALL
USER_CHARGES


@<TRIPOS>ATOM
      1 C12         0.4166    0.4103    0.4018 C.2        1 <1>        0.000
      2 C13         1.4968   -0.3342    0.2045 C.2        1 <1>        0.000
      3 O2          2.7665    0.1403    0.4299 O.3        1 <1>        0.000
      4 C14         3.7216   -0.7953    0.2927 C.2        1 <1>        0.000
      5 O3          3.7372   -1.8421   -0.3483 O.2        1 <1>        0.000
      6 C16        -0.9517    0.0960    0.2615 C.2        1 <1>        0.000
      7 C17        -1.5382   -0.7629   -0.5997 C.2        1 <1>        0.000
      8 O4         -2.8881   -1.0175   -0.7256 O.3        1 <1>        0.000
      9 C18        -3.5838   -0.5896    0.3564 C.2        1 <1>        0.000
     10 O5         -3.2549   -0.2613    1.5007 O.2        1 <1>        0.000
     11 H           0.6192    1.4314    0.7250 H.spc      1 <1>        0.000
     12 H           1.3728   -1.3579   -0.1487 H.spc      1 <1>        0.000
     13 H           4.6387   -0.5895    0.8447 H.spc      1 <1>        0.000
     14 H          -1.6268    0.6171    0.9403 H.spc      1 <1>        0.000
     15 H          -0.8744   -1.3136   -1.2662 H.spc      1 <1>        0.000
     16 H          -4.6572   -0.5210    0.1796 H.spc      1 <1>        0.000
@<TRIPOS>BOND
     1    8    9 1  
     2    9   10 2  
     3    1    2 2  
     4    2    3 1  
     5    1    6 1  
     6    3    4 1  
     7    4    5 2  
     8    6    7 2  
     9    7    8 1  
    10    1   11 1  
    11    2   12 1  
    12    4   13 1  
    13    6   14 1  
    14    7   15 1  
    15    9   16 1  
# Name:          frag3-244-3/31924 -- energy: -1.030946
# Creation time: Sat Jun  5 12:52:38 2010


@<TRIPOS>MOLECULE
frag3-244-3/31924 -- energy: -1.030946
   16    15     1     1     1
SMALL
USER_CHARGES


@<TRIPOS>ATOM
      1 C12         0.6090   -0.2464   -0.2680 C.2        1 <1>        0.000
      2 C13         1.8484    0.0534    0.1396 C.2        1 <1>        0.000
      3 O2          2.9589   -0.2051   -0.6323 O.3        1 <1>        0.000
      4 C14         3.9392   -0.9058   -0.0488 C.2        1 <1>        0.000
      5 O3          3.8850   -1.5272    1.0013 O.2        1 <1>        0.000
      6 C16        -0.6127   -0.0072    0.3924 C.2        1 <1>        0.000
      7 C17        -1.8444   -0.0349   -0.1361 C.2        1 <1>        0.000
      8 O4         -2.9616    0.2779    0.6116 O.3        1 <1>        0.000
      9 C18        -3.9481   -0.6256    0.6119 C.2        1 <1>        0.000
     10 O5         -3.9518   -1.7353    0.1025 O.2        1 <1>        0.000
     11 H           0.5352   -0.7399   -1.2371 H.spc      1 <1>        0.000
     12 H           1.9831    0.5182    1.1163 H.spc      1 <1>        0.000
     13 H           4.8958   -0.9238   -0.5710 H.spc      1 <1>        0.000
     14 H          -0.5489    0.2273    1.4550 H.spc      1 <1>        0.000
     15 H          -1.9667   -0.3116   -1.1833 H.spc      1 <1>        0.000
     16 H          -4.8615   -0.3353    1.1310 H.spc      1 <1>        0.000
@<TRIPOS>BOND
     1    8    9 1  
     2    9   10 2  
     3    1    2 2  
     4    2    3 1  
     5    1    6 1  
     6    3    4 1  
     7    4    5 2  
     8    6    7 2  
     9    7    8 1  
    10    1   11 1  
    11    2   12 1  
    12    4   13 1  
    13    6   14 1  
    14    7   15 1  
    15    9   16 1  
# Name:          frag3-244-3/31924 -- energy: -1.080987
# Creation time: Sat Jun  5 12:52:38 2010


@<TRIPOS>MOLECULE
frag3-244-3/31924 -- energy: -1.080987
   16    15     1     1     1
SMALL
USER_CHARGES


@<TRIPOS>ATOM
      1 C12         0.7212    0.2829   -0.0705 C.2        1 <1>        0.000
      2 C13         1.8527   -0.3211   -0.4566 C.2        1 <1>        0.000
      3 O2          3.0944    0.1499   -0.0929 O.3        1 <1>        0.000
      4 C14         3.9173   -0.7287    0.4945 C.2        1 <1>        0.000
      5 O3          3.7662   -1.9363    0.5921 O.2        1 <1>        0.000
      6 C16        -0.6091   -0.0922   -0.3435 C.2        1 <1>        0.000
      7 C17        -1.7213    0.3508    0.2573 C.2        1 <1>        0.000
      8 O4         -2.9688   -0.1264   -0.0776 O.3        1 <1>        0.000
      9 C18        -3.5214   -0.9870    0.7918 C.2        1 <1>        0.000
     10 O5         -4.6093   -1.5481    0.6793 O.2        1 <1>        0.000
     11 H           0.8459    1.1816    0.5335 H.spc      1 <1>        0.000
     12 H           1.7885   -1.2139   -1.0785 H.spc      1 <1>        0.000
     13 H           4.8257   -0.3187    0.9358 H.spc      1 <1>        0.000
     14 H          -0.7495   -0.8281   -1.1353 H.spc      1 <1>        0.000
     15 H          -1.6364    1.1110    1.0338 H.spc      1 <1>        0.000
     16 H          -2.9462   -1.2114    1.6901 H.spc      1 <1>        0.000
@<TRIPOS>BOND
     1    8    9 1  
     2    9   10 2  
     3    1    2 2  
     4    2    3 1  
     5    1    6 1  
     6    3    4 1  
     7    4    5 2  
     8    6    7 2  
     9    7    8 1  
    10    1   11 1  
    11    2   12 1  
    12    4   13 1  
    13    6   14 1  
    14    7   15 1  
    15    9   16 1  
# Name:          frag3-244-3/31924 -- energy: -1.146057
# Creation time: Sat Jun  5 12:52:38 2010


@<TRIPOS>MOLECULE
frag3-244-3/31924 -- energy: -1.146057
   16    15     1     1     1
SMALL
USER_CHARGES


@<TRIPOS>ATOM
      1 C12         0.7648    0.7558    0.2812 C.2        1 <1>        0.000
      2 C13         1.5759   -0.0741   -0.3907 C.2        1 <1>        0.000
      3 O2          2.9461   -0.0281   -0.2734 O.3        1 <1>        0.000
      4 C14         3.5071   -1.1076    0.2979 C.2        1 <1>        0.000
      5 O3          3.0325   -2.2244    0.4445 O.2        1 <1>        0.000
      6 C16        -0.6425    0.8269    0.2578 C.2        1 <1>        0.000
      7 C17        -1.5031   -0.1655   -0.0333 C.2        1 <1>        0.000
      8 O4         -2.8657    0.0431   -0.0767 O.3        1 <1>        0.000
      9 C18        -3.6212   -0.9693    0.3681 C.2        1 <1>        0.000
     10 O5         -3.2721   -2.0130    0.8986 O.2        1 <1>        0.000
     11 H           1.2616    1.4731    0.9344 H.spc      1 <1>        0.000
     12 H           1.1322   -0.8146   -1.0562 H.spc      1 <1>        0.000
     13 H           4.5182   -0.9689    0.6808 H.spc      1 <1>        0.000
     14 H          -1.0828    1.7935    0.5028 H.spc      1 <1>        0.000
     15 H          -1.1126   -1.1618   -0.2405 H.spc      1 <1>        0.000
     16 H          -4.6963   -0.8449    0.2389 H.spc      1 <1>        0.000
@<TRIPOS>BOND
     1    8    9 1  
     2    9   10 2  
     3    1    2 2  
     4    2    3 1  
     5    1    6 1  
     6    3    4 1  
     7    4    5 2  
     8    6    7 2  
     9    7    8 1  
    10    1   11 1  
    11    2   12 1  
    12    4   13 1  
    13    6   14 1  
    14    7   15 1  
    15    9   16 1  
# Name:          frag3-244-3/31924 -- energy: -0.916198
# Creation time: Sat Jun  5 12:52:38 2010


@<TRIPOS>MOLECULE
frag3-244-3/31924 -- energy: -0.916198
   16    15     1     1     1
SMALL
USER_CHARGES


@<TRIPOS>ATOM
      1 C12         0.6103   -0.4409   -0.2631 C.2        1 <1>        0.000
      2 C13         1.8808   -0.2618    0.1225 C.2        1 <1>        0.000
      3 O2          2.9417   -0.5524   -0.7054 O.3        1 <1>        0.000
      4 C14         4.1191   -0.7858   -0.1155 C.2        1 <1>        0.000
      5 O3          4.3692   -0.7398    1.0792 O.2        1 <1>        0.000
      6 C16        -0.5693   -0.1629    0.4566 C.2        1 <1>        0.000
      7 C17        -1.8327   -0.4086    0.0751 C.2        1 <1>        0.000
      8 O4         -2.9048   -0.0391    0.8605 O.3        1 <1>        0.000
      9 C18        -4.0494   -0.7001    0.6595 C.2        1 <1>        0.000
     10 O5         -4.6429   -0.8648   -0.3953 O.2        1 <1>        0.000
     11 H           0.4709   -0.8548   -1.2618 H.spc      1 <1>        0.000
     12 H           2.0805    0.1256    1.1216 H.spc      1 <1>        0.000
     13 H           4.9477   -1.0460   -0.7741 H.spc      1 <1>        0.000
     14 H          -0.4412    0.3043    1.4330 H.spc      1 <1>        0.000
     15 H          -2.0152   -0.9105   -0.8751 H.spc      1 <1>        0.000
     16 H          -4.5078   -1.1453    1.5425 H.spc      1 <1>        0.000
@<TRIPOS>BOND
     1    8    9 1  
     2    9   10 2  
     3    1    2 2  
     4    2    3 1  
     5    1    6 1  
     6    3    4 1  
     7    4    5 2  
     8    6    7 2  
     9    7    8 1  
    10    1   11 1  
    11    2   12 1  
    12    4   13 1  
    13    6   14 1  
    14    7   15 1  
    15    9   16 1  
# Name:          frag3-244-3/31924 -- energy: -1.023190
# Creation time: Sat Jun  5 12:52:38 2010


@<TRIPOS>MOLECULE
frag3-244-3/31924 -- energy: -1.023190
   16    15     1     1     1
SMALL
USER_CHARGES


@<TRIPOS>ATOM
      1 C12        -0.6595    0.5890    0.1569 C.2        1 <1>        0.000
      2 C13        -1.6030   -0.3556    0.0381 C.2        1 <1>        0.000
      3 O2         -2.9104   -0.1268    0.3931 O.3        1 <1>        0.000
      4 C14        -3.7508   -1.1633    0.3090 C.2        1 <1>        0.000
      5 O3         -4.9711   -1.1214    0.4109 O.2        1 <1>        0.000
      6 C16         0.7050    0.5079   -0.1870 C.2        1 <1>        0.000
      7 C17         1.5496   -0.5014    0.0827 C.2        1 <1>        0.000
      8 O4          2.8797   -0.4393   -0.2710 O.3        1 <1>        0.000
      9 C18         3.7309   -1.1573    0.4702 C.2        1 <1>        0.000
     10 O5          4.9516   -1.1882    0.3712 O.2        1 <1>        0.000
     11 H          -0.9895    1.5412    0.5724 H.spc      1 <1>        0.000
     12 H          -1.3247   -1.3347   -0.3519 H.spc      1 <1>        0.000
     13 H          -3.3062   -2.1427    0.1323 H.spc      1 <1>        0.000
     14 H           1.1201    1.3564   -0.7309 H.spc      1 <1>        0.000
     15 H           1.1744   -1.3888    0.5925 H.spc      1 <1>        0.000
     16 H           3.2905   -1.7829    1.2466 H.spc      1 <1>        0.000
@<TRIPOS>BOND
     1    8    9 1  
     2    9   10 2  
     3    1    2 2  
     4    2    3 1  
     5    1    6 1  
     6    3    4 1  
     7    4    5 2  
     8    6    7 2  
     9    7    8 1  
    10    1   11 1  
    11    2   12 1  
    12    4   13 1  
    13    6   14 1  
    14    7   15 1  
    15    9   16 1  
# Name:          frag3-244-3/31924 -- energy: -1.243408
# Creation time: Sat Jun  5 12:52:38 2010


@<TRIPOS>MOLECULE
frag3-244-3/31924 -- energy: -1.243408
   16    15     1     1     1
SMALL
USER_CHARGES


@<TRIPOS>ATOM
      1 C12        -0.6528    0.5908   -0.3722 C.2        1 <1>        0.000
      2 C13        -1.4987   -0.4440   -0.2863 C.2        1 <1>        0.000
      3 O2         -2.8554   -0.3012   -0.4649 O.3        1 <1>        0.000
      4 C14        -3.6203   -0.7156    0.5570 C.2        1 <1>        0.000
      5 O3         -3.3483   -1.5359    1.4206 O.2        1 <1>        0.000
      6 C16         0.7501    0.6038   -0.2464 C.2        1 <1>        0.000
      7 C17         1.4999   -0.1162    0.6023 C.2        1 <1>        0.000
      8 O4          2.8707    0.0193    0.6748 O.3        1 <1>        0.000
      9 C18         3.5799   -1.0372    0.2526 C.2        1 <1>        0.000
     10 O5          3.1968   -2.0200   -0.3635 O.2        1 <1>        0.000
     11 H          -1.1148    1.5587   -0.5668 H.spc      1 <1>        0.000
     12 H          -1.0983   -1.4339   -0.0672 H.spc      1 <1>        0.000
     13 H          -4.6095   -0.2630    0.6251 H.spc      1 <1>        0.000
     14 H           1.2883    1.2756   -0.9150 H.spc      1 <1>        0.000
     15 H           1.0078   -0.8343    1.2583 H.spc      1 <1>        0.000
     16 H           4.6432   -1.0164    0.4916 H.spc      1 <1>        0.000
@<TRIPOS>BOND
     1    8    9 1  
     2    9   10 2  
     3    1    2 2  
     4    2    3 1  
     5    1    6 1  
     6    3    4 1  
     7    4    5 2  
     8    6    7 2  
     9    7    8 1  
    10    1   11 1  
    11    2   12 1  
    12    4   13 1  
    13    6   14 1  
    14    7   15 1  
    15    9   16 1  
# Name:          frag3-244-3/31924 -- energy: -1.015808
# Creation time: Sat Jun  5 12:52:38 2010


@<TRIPOS>MOLECULE
frag3-244-3/31924 -- energy: -1.015808
   16    15     1     1     1
SMALL
USER_CHARGES


@<TRIPOS>ATOM
      1 C12         0.6242   -0.5837   -0.1174 C.2        1 <1>        0.000
      2 C13         1.8373   -0.2457    0.3408 C.2        1 <1>        0.000
      3 O2          2.9906   -0.6248   -0.3053 O.3        1 <1>        0.000
      4 C14         4.0941   -0.7420    0.4398 C.2        1 <1>        0.000
      5 O3          5.2453   -0.5502    0.0730 O.2        1 <1>        0.000
      6 C16        -0.6343   -0.2449    0.4197 C.2        1 <1>        0.000
      7 C17        -1.8357   -0.6715    0.0003 C.2        1 <1>        0.000
      8 O4         -3.0018   -0.2211    0.5825 O.3        1 <1>        0.000
      9 C18        -4.1401   -0.7848    0.1668 C.2        1 <1>        0.000
     10 O5         -5.2575   -0.2876    0.1737 O.2        1 <1>        0.000
     11 H           0.6087   -1.1974   -1.0181 H.spc      1 <1>        0.000
     12 H           1.9121    0.3471    1.2524 H.spc      1 <1>        0.000
     13 H           3.9541   -1.0384    1.4793 H.spc      1 <1>        0.000
     14 H          -0.6314    0.4385    1.2688 H.spc      1 <1>        0.000
     15 H          -1.8909   -1.3894   -0.8181 H.spc      1 <1>        0.000
     16 H          -4.0642   -1.8005   -0.2215 H.spc      1 <1>        0.000
@<TRIPOS>BOND
     1    8    9 1  
     2    9   10 2  
     3    1    2 2  
     4    2    3 1  
     5    1    6 1  
     6    3    4 1  
     7    4    5 2  
     8    6    7 2  
     9    7    8 1  
    10    1   11 1  
    11    2   12 1  
    12    4   13 1  
    13    6   14 1  
    14    7   15 1  
    15    9   16 1  
# Name:          frag3-244-3/31924 -- energy: -0.901790
# Creation time: Sat Jun  5 12:52:38 2010


@<TRIPOS>MOLECULE
frag3-244-3/31924 -- energy: -0.901790
   16    15     1     1     1
SMALL
USER_CHARGES


@<TRIPOS>ATOM
      1 C12         0.5333   -0.5208    0.6971 C.2        1 <1>        0.000
      2 C13         1.6822   -0.2623    0.0561 C.2        1 <1>        0.000
      3 O2          2.8194   -1.0032    0.2740 O.3        1 <1>        0.000
      4 C14         3.9863   -0.4240   -0.0268 C.2        1 <1>        0.000
      5 O3          5.0416   -0.9956   -0.2707 O.2        1 <1>        0.000
      6 C16        -0.7087    0.1301    0.5538 C.2        1 <1>        0.000
      7 C17        -1.8729   -0.4198    0.1745 C.2        1 <1>        0.000
      8 O4         -3.0124    0.3434    0.0197 O.3        1 <1>        0.000
      9 C18        -4.1792   -0.3088    0.0388 C.2        1 <1>        0.000
     10 O5         -4.3677   -1.4953    0.2574 O.2        1 <1>        0.000
     11 H           0.5635   -1.3365    1.4195 H.spc      1 <1>        0.000
     12 H           1.7155    0.5597   -0.6590 H.spc      1 <1>        0.000
     13 H           3.9997    0.6655   -0.0581 H.spc      1 <1>        0.000
     14 H          -0.7256    1.1972    0.7753 H.spc      1 <1>        0.000
     15 H          -1.9194   -1.4921   -0.0153 H.spc      1 <1>        0.000
     16 H          -5.0674    0.2893   -0.1649 H.spc      1 <1>        0.000
@<TRIPOS>BOND
     1    8    9 1  
     2    9   10 2  
     3    1    2 2  
     4    2    3 1  
     5    1    6 1  
     6    3    4 1  
     7    4    5 2  
     8    6    7 2  
     9    7    8 1  
    10    1   11 1  
    11    2   12 1  
    12    4   13 1  
    13    6   14 1  
    14    7   15 1  
    15    9   16 1  
# Name:          frag3-244-3/31924 -- energy: -1.105791
# Creation time: Sat Jun  5 12:52:38 2010


@<TRIPOS>MOLECULE
frag3-244-3/31924 -- energy: -1.105791
   16    15     1     1     1
SMALL
USER_CHARGES


@<TRIPOS>ATOM
      1 C12        -0.4812    0.6242    0.5623 C.2        1 <1>        0.000
      2 C13        -1.5302   -0.1532    0.2544 C.2        1 <1>        0.000
      3 O2         -2.7896    0.0804    0.7532 O.3        1 <1>        0.000
      4 C14        -3.7445   -0.7484    0.3055 C.2        1 <1>        0.000
      5 O3         -3.6475   -1.9164   -0.0440 O.2        1 <1>        0.000
      6 C16         0.8533    0.5441    0.1185 C.2        1 <1>        0.000
      7 C17         1.4553   -0.4950   -0.4797 C.2        1 <1>        0.000
      8 O4          2.7731   -0.4817   -0.8847 O.3        1 <1>        0.000
      9 C18         3.6210   -1.0182    0.0207 C.2        1 <1>        0.000
     10 O5          3.4121   -1.3920    1.1678 O.2        1 <1>        0.000
     11 H          -0.6924    1.4367    1.2576 H.spc      1 <1>        0.000
     12 H          -1.3785   -1.0000   -0.4149 H.spc      1 <1>        0.000
     13 H          -4.7457   -0.3218    0.2448 H.spc      1 <1>        0.000
     14 H           1.4684    1.4294    0.2799 H.spc      1 <1>        0.000
     15 H           0.8711   -1.3984   -0.6549 H.spc      1 <1>        0.000
     16 H           4.6486   -1.1363   -0.3230 H.spc      1 <1>        0.000
@<TRIPOS>BOND
     1    8    9 1  
     2    9   10 2  
     3    1    2 2  
     4    2    3 1  
     5    1    6 1  
     6    3    4 1  
     7    4    5 2  
     8    6    7 2  
     9    7    8 1  
    10    1   11 1  
    11    2   12 1  
    12    4   13 1  
    13    6   14 1  
    14    7   15 1  
    15    9   16 1  
# Name:          frag3-244-3/31924 -- energy: -0.976311
# Creation time: Sat Jun  5 12:52:38 2010


@<TRIPOS>MOLECULE
frag3-244-3/31924 -- energy: -0.976311
   16    15     1     1     1
SMALL
USER_CHARGES


@<TRIPOS>ATOM
      1 C12         0.7628    0.7663   -0.2989 C.2        1 <1>        0.000
      2 C13         1.6613   -0.1810    0.0059 C.2        1 <1>        0.000
      3 O2          2.9958   -0.0511   -0.3029 O.3        1 <1>        0.000
      4 C14         3.7879   -1.0625    0.0770 C.2        1 <1>        0.000
      5 O3          3.5204   -1.9893    0.8276 O.2        1 <1>        0.000
      6 C16        -0.6226    0.7875   -0.0388 C.2        1 <1>        0.000
      7 C17        -1.4394   -0.2716    0.1123 C.2        1 <1>        0.000
      8 O4         -2.7859   -0.1168    0.3362 O.3        1 <1>        0.000
      9 C18        -3.5410   -1.2097    0.1520 C.2        1 <1>        0.000
     10 O5         -4.4173   -1.6279    0.9035 O.2        1 <1>        0.000
     11 H           1.1574    1.6393   -0.8188 H.spc      1 <1>        0.000
     12 H           1.3235   -1.0836    0.5150 H.spc      1 <1>        0.000
     13 H           4.7971   -1.0584   -0.3348 H.spc      1 <1>        0.000
     14 H          -1.0837    1.7712    0.0498 H.spc      1 <1>        0.000
     15 H          -1.0221   -1.2770    0.0556 H.spc      1 <1>        0.000
     16 H          -3.3585   -1.7844   -0.7560 H.spc      1 <1>        0.000
@<TRIPOS>BOND
     1    8    9 1  
     2    9   10 2  
     3    1    2 2  
     4    2    3 1  
     5    1    6 1  
     6    3    4 1  
     7    4    5 2  
     8    6    7 2  
     9    7    8 1  
    10    1   11 1  
    11    2   12 1  
    12    4   13 1  
    13    6   14 1  
    14    7   15 1  
    15    9   16 1  
# Name:          frag3-244-3/31924 -- energy: -1.124537
# Creation time: Sat Jun  5 12:52:38 2010


@<TRIPOS>MOLECULE
frag3-244-3/31924 -- energy: -1.124537
   16    15     1     1     1
SMALL
USER_CHARGES


@<TRIPOS>ATOM
      1 C12        -0.3911    0.3436    0.6667 C.2        1 <1>        0.000
      2 C13        -1.4081   -0.3421    0.1242 C.2        1 <1>        0.000
      3 O2         -2.6837   -0.2676    0.6143 O.3        1 <1>        0.000
      4 C14        -3.5782   -1.1081    0.0763 C.2        1 <1>        0.000
      5 O3         -4.7884   -1.1116    0.2948 O.2        1 <1>        0.000
      6 C16         0.9574    0.3893    0.2647 C.2        1 <1>        0.000
      7 C17         1.5872   -0.4516   -0.5697 C.2        1 <1>        0.000
      8 O4          2.9237   -0.3284   -0.8860 O.3        1 <1>        0.000
      9 C18         3.7700   -0.7113    0.0926 C.2        1 <1>        0.000
     10 O5          3.5331   -1.3684    1.0961 O.2        1 <1>        0.000
     11 H          -0.6430    0.9482    1.5380 H.spc      1 <1>        0.000
     12 H          -1.2118   -0.9809   -0.7369 H.spc      1 <1>        0.000
     13 H          -3.1983   -1.8571   -0.6185 H.spc      1 <1>        0.000
     14 H           1.5578    1.1997    0.6782 H.spc      1 <1>        0.000
     15 H           1.0182   -1.2669   -1.0166 H.spc      1 <1>        0.000
     16 H           4.8051   -0.3915   -0.0277 H.spc      1 <1>        0.000
@<TRIPOS>BOND
     1    8    9 1  
     2    9   10 2  
     3    1    2 2  
     4    2    3 1  
     5    1    6 1  
     6    3    4 1  
     7    4    5 2  
     8    6    7 2  
     9    7    8 1  
    10    1   11 1  
    11    2   12 1  
    12    4   13 1  
    13    6   14 1  
    14    7   15 1  
    15    9   16 1  
# Name:          frag3-244-3/31924 -- energy: -1.211330
# Creation time: Sat Jun  5 12:52:38 2010


@<TRIPOS>MOLECULE
frag3-244-3/31924 -- energy: -1.211330
   16    15     1     1     1
SMALL
USER_CHARGES


@<TRIPOS>ATOM
      1 C12         0.7680    0.0668   -0.2531 C.2        1 <1>        0.000
      2 C13         1.8647    0.2388    0.4904 C.2        1 <1>        0.000
      3 O2          3.1349    0.2335   -0.0409 O.3        1 <1>        0.000
      4 C14         3.8232   -0.9100    0.0916 C.2        1 <1>        0.000
      5 O3          3.3830   -2.0229    0.3357 O.2        1 <1>        0.000
      6 C16        -0.5815    0.0907    0.1487 C.2        1 <1>        0.000
      7 C17        -1.6616   -0.1849   -0.5938 C.2        1 <1>        0.000
      8 O4         -2.9395   -0.0677   -0.0963 O.3        1 <1>        0.000
      9 C18        -3.4622   -1.1724    0.4541 C.2        1 <1>        0.000
     10 O5         -4.4069   -1.2281    1.2373 O.2        1 <1>        0.000
     11 H           0.9411   -0.1167   -1.3135 H.spc      1 <1>        0.000
     12 H           1.7489    0.3898    1.5637 H.spc      1 <1>        0.000
     13 H           4.9036   -0.8376   -0.0334 H.spc      1 <1>        0.000
     14 H          -0.7692    0.3660    1.1865 H.spc      1 <1>        0.000
     15 H          -1.5243   -0.5123   -1.6244 H.spc      1 <1>        0.000
     16 H          -3.0008   -2.1205    0.1779 H.spc      1 <1>        0.000
@<TRIPOS>BOND
     1    8    9 1  
     2    9   10 2  
     3    1    2 2  
     4    2    3 1  
     5    1    6 1  
     6    3    4 1  
     7    4    5 2  
     8    6    7 2  
     9    7    8 1  
    10    1   11 1  
    11    2   12 1  
    12    4   13 1  
    13    6   14 1  
    14    7   15 1  
    15    9   16 1  
# Name:          frag3-244-3/31924 -- energy: -1.278615
# Creation time: Sat Jun  5 12:52:38 2010


@<TRIPOS>MOLECULE
frag3-244-3/31924 -- energy: -1.278615
   16    15     1     1     1
SMALL
USER_CHARGES


@<TRIPOS>ATOM
      1 C12         0.6724   -1.1014    0.1401 C.2        1 <1>        0.000
      2 C13         1.4992   -0.1864   -0.3860 C.2        1 <1>        0.000
      3 O2          2.7164   -0.4854   -0.9530 O.3        1 <1>        0.000
      4 C14         3.6967   -0.7065   -0.0546 C.2        1 <1>        0.000
      5 O3          3.7438   -0.3949    1.1312 O.2        1 <1>        0.000
      6 C16        -0.6022   -0.9221    0.7086 C.2        1 <1>        0.000
      7 C17        -1.5083    0.0188    0.3995 C.2        1 <1>        0.000
      8 O4         -2.7158    0.1472    1.0537 O.3        1 <1>        0.000
      9 C18        -3.7714   -0.3444    0.3900 C.2        1 <1>        0.000
     10 O5         -3.8089   -0.9811   -0.6553 O.2        1 <1>        0.000
     11 H           1.0389   -2.1278    0.1254 H.spc      1 <1>        0.000
     12 H           1.1880    0.8580   -0.3631 H.spc      1 <1>        0.000
     13 H           4.5700   -1.2364   -0.4349 H.spc      1 <1>        0.000
     14 H          -0.8862   -1.6279    1.4892 H.spc      1 <1>        0.000
     15 H          -1.2788    0.7149   -0.4073 H.spc      1 <1>        0.000
     16 H          -4.7404   -0.1483    0.8489 H.spc      1 <1>        0.000
@<TRIPOS>BOND
     1    8    9 1  
     2    9   10 2  
     3    1    2 2  
     4    2    3 1  
     5    1    6 1  
     6    3    4 1  
     7    4    5 2  
     8    6    7 2  
     9    7    8 1  
    10    1   11 1  
    11    2   12 1  
    12    4   13 1  
    13    6   14 1  
    14    7   15 1  
    15    9   16 1  
# Name:          frag3-244-3/31924 -- energy: -1.255931
# Creation time: Sat Jun  5 12:52:38 2010


@<TRIPOS>MOLECULE
frag3-244-3/31924 -- energy: -1.255931
   16    15     1     1     1
SMALL
USER_CHARGES


@<TRIPOS>ATOM
      1 C12        -0.5926    0.3045    0.3161 C.2        1 <1>        0.000
      2 C13        -1.4787   -0.6302    0.6794 C.2        1 <1>        0.000
      3 O2         -2.6979   -0.3323    1.2423 O.3        1 <1>        0.000
      4 C14        -3.7425   -0.4203    0.3966 C.2        1 <1>        0.000
      5 O3         -3.8056   -0.9845   -0.6859 O.2        1 <1>        0.000
      6 C16         0.6833    0.1492   -0.2568 C.2        1 <1>        0.000
      7 C17         1.4533   -0.9506   -0.2510 C.2        1 <1>        0.000
      8 O4          2.6985   -0.9971   -0.8413 O.3        1 <1>        0.000
      9 C18         3.7089   -0.6423   -0.0168 C.2        1 <1>        0.000
     10 O5          3.6949   -0.4527    1.1913 O.2        1 <1>        0.000
     11 H          -0.9041    1.3347    0.4889 H.spc      1 <1>        0.000
     12 H          -1.2220   -1.6777    0.5217 H.spc      1 <1>        0.000
     13 H          -4.6552    0.0792    0.7215 H.spc      1 <1>        0.000
     14 H           1.0938    1.0225   -0.7637 H.spc      1 <1>        0.000
     15 H           1.0773   -1.8468    0.2424 H.spc      1 <1>        0.000
     16 H           4.6770   -0.5052   -0.4986 H.spc      1 <1>        0.000
@<TRIPOS>BOND
     1    8    9 1  
     2    9   10 2  
     3    1    2 2  
     4    2    3 1  
     5    1    6 1  
     6    3    4 1  
     7    4    5 2  
     8    6    7 2  
     9    7    8 1  
    10    1   11 1  
    11    2   12 1  
    12    4   13 1  
    13    6   14 1  
    14    7   15 1  
    15    9   16 1  
# Name:          frag3-244-3/31924 -- energy: -0.989460
# Creation time: Sat Jun  5 12:52:38 2010


@<TRIPOS>MOLECULE
frag3-244-3/31924 -- energy: -0.989460
   16    15     1     1     1
SMALL
USER_CHARGES


@<TRIPOS>ATOM
      1 C12        -0.4890    0.1147   -0.1588 C.2        1 <1>        0.000
      2 C13        -1.6082   -0.5692    0.1106 C.2        1 <1>        0.000
      3 O2         -2.8316   -0.2139   -0.4129 O.3        1 <1>        0.000
      4 C14        -3.8995   -0.6590    0.2652 C.2        1 <1>        0.000
      5 O3         -3.9311   -1.3618    1.2651 O.2        1 <1>        0.000
      6 C16         0.8281   -0.1333    0.2619 C.2        1 <1>        0.000
      7 C17         1.9272    0.5856    0.0300 C.2        1 <1>        0.000
      8 O4          3.1919    0.2479    0.4607 O.3        1 <1>        0.000
      9 C18         3.6357   -0.9332   -0.0298 C.2        1 <1>        0.000
     10 O5          3.0985   -2.0340   -0.0180 O.2        1 <1>        0.000
     11 H          -0.6185    0.9895   -0.7961 H.spc      1 <1>        0.000
     12 H          -1.5490   -1.4373    0.7671 H.spc      1 <1>        0.000
     13 H          -4.8692   -0.3533   -0.1277 H.spc      1 <1>        0.000
     14 H           0.9710   -1.0345    0.8581 H.spc      1 <1>        0.000
     15 H           1.8172    1.5071   -0.5417 H.spc      1 <1>        0.000
     16 H           4.6158   -0.8997   -0.5055 H.spc      1 <1>        0.000
@<TRIPOS>BOND
     1    8    9 1  
     2    9   10 2  
     3    1    2 2  
     4    2    3 1  
     5    1    6 1  
     6    3    4 1  
     7    4    5 2  
     8    6    7 2  
     9    7    8 1  
    10    1   11 1  
    11    2   12 1  
    12    4   13 1  
    13    6   14 1  
    14    7   15 1  
    15    9   16 1  
# Name:          frag3-244-3/31924 -- energy: -1.110094
# Creation time: Sat Jun  5 12:52:38 2010


@<TRIPOS>MOLECULE
frag3-244-3/31924 -- energy: -1.110094
   16    15     1     1     1
SMALL
USER_CHARGES


@<TRIPOS>ATOM
      1 C12        -0.6319   -0.8303    0.1520 C.2        1 <1>        0.000
      2 C13        -1.7460   -0.2118   -0.2511 C.2        1 <1>        0.000
      3 O2         -2.9079   -0.8928   -0.5399 O.3        1 <1>        0.000
      4 C14        -3.9069   -0.7496    0.3443 C.2        1 <1>        0.000
      5 O3         -3.9724    0.0329    1.2797 O.2        1 <1>        0.000
      6 C16         0.6166   -0.2723    0.4894 C.2        1 <1>        0.000
      7 C17         1.7125   -0.1977   -0.2789 C.2        1 <1>        0.000
      8 O4          2.8901    0.3560    0.1825 O.3        1 <1>        0.000
      9 C18         3.9110   -0.5022    0.3413 C.2        1 <1>        0.000
     10 O5          3.9568   -1.6885    0.0546 O.2        1 <1>        0.000
     11 H          -0.6986   -1.9154    0.2304 H.spc      1 <1>        0.000
     12 H          -1.7347    0.8731   -0.3553 H.spc      1 <1>        0.000
     13 H          -4.7629   -1.4112    0.2118 H.spc      1 <1>        0.000
     14 H           0.7015    0.1476    1.4917 H.spc      1 <1>        0.000
     15 H           1.6728   -0.5852   -1.2969 H.spc      1 <1>        0.000
     16 H           4.8161   -0.0859    0.7834 H.spc      1 <1>        0.000
@<TRIPOS>BOND
     1    8    9 1  
     2    9   10 2  
     3    1    2 2  
     4    2    3 1  
     5    1    6 1  
     6    3    4 1  
     7    4    5 2  
     8    6    7 2  
     9    7    8 1  
    10    1   11 1  
    11    2   12 1  
    12    4   13 1  
    13    6   14 1  
    14    7   15 1  
    15    9   16 1  
# Name:          frag3-244-3/31924 -- energy: -1.153197
# Creation time: Sat Jun  5 12:52:38 2010


@<TRIPOS>MOLECULE
frag3-244-3/31924 -- energy: -1.153197
   16    15     1     1     1
SMALL
USER_CHARGES


@<TRIPOS>ATOM
      1 C12         0.8082   -0.0136   -0.2300 C.2        1 <1>        0.000
      2 C13         1.9555    0.5238    0.1929 C.2        1 <1>        0.000
      3 O2          3.1875    0.1296   -0.2786 O.3        1 <1>        0.000
      4 C14         3.5047   -1.1610   -0.0775 C.2        1 <1>        0.000
      5 O3          3.0142   -1.9306    0.7350 O.2        1 <1>        0.000
      6 C16        -0.5096    0.3203    0.1351 C.2        1 <1>        0.000
      7 C17        -1.6391   -0.3226   -0.1989 C.2        1 <1>        0.000
      8 O4         -2.8767    0.1485    0.1881 O.3        1 <1>        0.000
      9 C18        -3.6851   -0.7342    0.7864 C.2        1 <1>        0.000
     10 O5         -3.8376   -1.9164    0.5215 O.2        1 <1>        0.000
     11 H           0.9056   -0.8203   -0.9565 H.spc      1 <1>        0.000
     12 H           1.9145    1.3107    0.9460 H.spc      1 <1>        0.000
     13 H           4.2909   -1.5684   -0.7131 H.spc      1 <1>        0.000
     14 H          -0.6262    1.2041    0.7623 H.spc      1 <1>        0.000
     15 H          -1.5774   -1.2370   -0.7889 H.spc      1 <1>        0.000
     16 H          -4.2820   -0.3499    1.6135 H.spc      1 <1>        0.000
@<TRIPOS>BOND
     1    8    9 1  
     2    9   10 2  
     3    1    2 2  
     4    2    3 1  
     5    1    6 1  
     6    3    4 1  
     7    4    5 2  
     8    6    7 2  
     9    7    8 1  
    10    1   11 1  
    11    2   12 1  
    12    4   13 1  
    13    6   14 1  
    14    7   15 1  
    15    9   16 1  
# Name:          frag3-244-3/31924 -- energy: -1.203674
# Creation time: Sat Jun  5 12:52:38 2010


@<TRIPOS>MOLECULE
frag3-244-3/31924 -- energy: -1.203674
   16    15     1     1     1
SMALL
USER_CHARGES


@<TRIPOS>ATOM
      1 C12         0.5347    0.1240    0.8007 C.2        1 <1>        0.000
      2 C13         1.5371   -0.2411   -0.0128 C.2        1 <1>        0.000
      3 O2          2.8500   -0.1789    0.3711 O.3        1 <1>        0.000
      4 C14         3.6764   -1.0777   -0.1829 C.2        1 <1>        0.000
      5 O3          4.8813   -1.1812    0.0338 O.2        1 <1>        0.000
      6 C16        -0.8507    0.1045    0.5515 C.2        1 <1>        0.000
      7 C17        -1.4983   -0.6032   -0.3859 C.2        1 <1>        0.000
      8 O4         -2.8541   -0.5084   -0.5869 O.3        1 <1>        0.000
      9 C18        -3.6205   -0.9092    0.4443 C.2        1 <1>        0.000
     10 O5         -4.7339   -0.4850    0.7411 O.2        1 <1>        0.000
     11 H           0.8326    0.4836    1.7856 H.spc      1 <1>        0.000
     12 H           1.2981   -0.5997   -1.0140 H.spc      1 <1>        0.000
     13 H           3.2389   -1.7815   -0.8909 H.spc      1 <1>        0.000
     14 H          -1.4664    0.7355    1.1925 H.spc      1 <1>        0.000
     15 H          -0.9241   -1.2829   -1.0155 H.spc      1 <1>        0.000
     16 H          -3.2101   -1.6918    1.0824 H.spc      1 <1>        0.000
@<TRIPOS>BOND
     1    8    9 1  
     2    9   10 2  
     3    1    2 2  
     4    2    3 1  
     5    1    6 1  
     6    3    4 1  
     7    4    5 2  
     8    6    7 2  
     9    7    8 1  
    10    1   11 1  
    11    2   12 1  
    12    4   13 1  
    13    6   14 1  
    14    7   15 1  
    15    9   16 1  
# Name:          frag3-244-3/31924 -- energy: -1.149143
# Creation time: Sat Jun  5 12:52:38 2010


@<TRIPOS>MOLECULE
frag3-244-3/31924 -- energy: -1.149143
   16    15     1     1     1
SMALL
USER_CHARGES


@<TRIPOS>ATOM
      1 C12         0.6266   -0.8121    0.2011 C.2        1 <1>        0.000
      2 C13         1.4789   -0.3070   -0.6944 C.2        1 <1>        0.000
      3 O2          2.7234   -0.8325   -0.9636 O.3        1 <1>        0.000
      4 C14         3.5869   -0.7534    0.0706 C.2        1 <1>        0.000
      5 O3          3.5270   -0.0473    1.0694 O.2        1 <1>        0.000
      6 C16        -0.6733   -0.3999    0.5244 C.2        1 <1>        0.000
      7 C17        -1.6762   -1.1312    1.0186 C.2        1 <1>        0.000
      8 O4         -2.9445   -0.6527    1.2753 O.3        1 <1>        0.000
      9 C18        -3.5892   -0.2083    0.1702 C.2        1 <1>        0.000
     10 O5         -3.1377    0.1882   -0.8977 O.2        1 <1>        0.000
     11 H           0.9959   -1.6703    0.7626 H.spc      1 <1>        0.000
     12 H           1.1695    0.5791   -1.2486 H.spc      1 <1>        0.000
     13 H           4.4566   -1.4075    0.0084 H.spc      1 <1>        0.000
     14 H          -0.8946    0.6531    0.3502 H.spc      1 <1>        0.000
     15 H          -1.4782   -2.1811    1.2345 H.spc      1 <1>        0.000
     16 H          -4.6768   -0.2025    0.2418 H.spc      1 <1>        0.000
@<TRIPOS>BOND
     1    8    9 1  
     2    9   10 2  
     3    1    2 2  
     4    2    3 1  
     5    1    6 1  
     6    3    4 1  
     7    4    5 2  
     8    6    7 2  
     9    7    8 1  
    10    1   11 1  
    11    2   12 1  
    12    4   13 1  
    13    6   14 1  
    14    7   15 1  
    15    9   16 1  
# Name:          frag3-244-3/31924 -- energy: -1.275256
# Creation time: Sat Jun  5 12:52:38 2010


@<TRIPOS>MOLECULE
frag3-244-3/31924 -- energy: -1.275256
   16    15     1     1     1
SMALL
USER_CHARGES


@<TRIPOS>ATOM
      1 C12        -0.6424   -0.1097    0.1464 C.2        1 <1>        0.000
      2 C13        -1.5413   -0.4677    1.0641 C.2        1 <1>        0.000
      3 O2         -2.8023    0.0669    1.1987 O.3        1 <1>        0.000
      4 C14        -3.7037   -0.4751    0.3485 C.2        1 <1>        0.000
      5 O3         -3.5330   -1.1679   -0.6473 O.2        1 <1>        0.000
      6 C16         0.6591   -0.5831   -0.0755 C.2        1 <1>        0.000
      7 C17         1.6567   -0.0082   -0.7504 C.2        1 <1>        0.000
      8 O4          2.9012   -0.5567   -0.9704 O.3        1 <1>        0.000
      9 C18         3.6347   -0.7074    0.1541 C.2        1 <1>        0.000
     10 O5          3.2931   -0.9475    1.3058 O.2        1 <1>        0.000
     11 H          -0.9702    0.6728   -0.5379 H.spc      1 <1>        0.000
     12 H          -1.2530   -1.2496    1.7667 H.spc      1 <1>        0.000
     13 H          -4.7458   -0.2620    0.5867 H.spc      1 <1>        0.000
     14 H           0.8872   -1.5543    0.3637 H.spc      1 <1>        0.000
     15 H           1.4704    0.9829   -1.1641 H.spc      1 <1>        0.000
     16 H           4.7099   -0.5969    0.0131 H.spc      1 <1>        0.000
@<TRIPOS>BOND
     1    8    9 1  
     2    9   10 2  
     3    1    2 2  
     4    2    3 1  
     5    1    6 1  
     6    3    4 1  
     7    4    5 2  
     8    6    7 2  
     9    7    8 1  
    10    1   11 1  
    11    2   12 1  
    12    4   13 1  
    13    6   14 1  
    14    7   15 1  
    15    9   16 1  
# Name:          frag3-244-3/31924 -- energy: -1.244442
# Creation time: Sat Jun  5 12:52:38 2010


@<TRIPOS>MOLECULE
frag3-244-3/31924 -- energy: -1.244442
   16    15     1     1     1
SMALL
USER_CHARGES


@<TRIPOS>ATOM
      1 C12         0.7131   -0.5796   -0.7943 C.2        1 <1>        0.000
      2 C13         1.6130   -0.0168    0.0229 C.2        1 <1>        0.000
      3 O2          2.8969    0.2777   -0.3728 O.3        1 <1>        0.000
      4 C14         3.8526   -0.4892    0.1790 C.2        1 <1>        0.000
      5 O3          3.7667   -1.2347    1.1453 O.2        1 <1>        0.000
      6 C16        -0.6351   -0.9024   -0.5410 C.2        1 <1>        0.000
      7 C17        -1.3414   -0.6365    0.5714 C.2        1 <1>        0.000
      8 O4         -2.6403   -1.0486    0.7288 O.3        1 <1>        0.000
      9 C18        -3.5741   -0.0891    0.6102 C.2        1 <1>        0.000
     10 O5         -4.7293   -0.2371    0.2245 O.2        1 <1>        0.000
     11 H           1.0737   -0.8215   -1.7941 H.spc      1 <1>        0.000
     12 H           1.3151    0.2177    1.0448 H.spc      1 <1>        0.000
     13 H           4.8323   -0.4407   -0.2964 H.spc      1 <1>        0.000
     14 H          -1.1647   -1.4266   -1.3365 H.spc      1 <1>        0.000
     15 H          -0.8660   -0.0746    1.3754 H.spc      1 <1>        0.000
     16 H          -3.2748    0.9225    0.8844 H.spc      1 <1>        0.000
@<TRIPOS>BOND
     1    8    9 1  
     2    9   10 2  
     3    1    2 2  
     4    2    3 1  
     5    1    6 1  
     6    3    4 1  
     7    4    5 2  
     8    6    7 2  
     9    7    8 1  
    10    1   11 1  
    11    2   12 1  
    12    4   13 1  
    13    6   14 1  
    14    7   15 1  
    15    9   16 1  
# Name:          frag3-244-3/31924 -- energy: -1.153415
# Creation time: Sat Jun  5 12:52:38 2010


@<TRIPOS>MOLECULE
frag3-244-3/31924 -- energy: -1.153415
   16    15     1     1     1
SMALL
USER_CHARGES


@<TRIPOS>ATOM
      1 C12        -0.6825   -0.6070    0.0586 C.2        1 <1>        0.000
      2 C13        -1.6335    0.3176    0.1939 C.2        1 <1>        0.000
      3 O2         -2.9496    0.1055   -0.1278 O.3        1 <1>        0.000
      4 C14        -3.5593   -0.8913    0.5419 C.2        1 <1>        0.000
      5 O3         -4.7402   -1.2138    0.4379 O.2        1 <1>        0.000
      6 C16         0.6870   -0.5196    0.3586 C.2        1 <1>        0.000
      7 C17         1.6330    0.1360   -0.3236 C.2        1 <1>        0.000
      8 O4          2.9577    0.1350    0.0470 O.3        1 <1>        0.000
      9 C18         3.5417   -1.0798    0.0849 C.2        1 <1>        0.000
     10 O5          4.6676   -1.3386    0.5026 O.2        1 <1>        0.000
     11 H          -1.0143   -1.5653   -0.3409 H.spc      1 <1>        0.000
     12 H          -1.3493    1.2959    0.5815 H.spc      1 <1>        0.000
     13 H          -2.9492   -1.4644    1.2401 H.spc      1 <1>        0.000
     14 H           1.0180   -1.0482    1.2525 H.spc      1 <1>        0.000
     15 H           1.3411    0.6956   -1.2123 H.spc      1 <1>        0.000
     16 H           2.9553   -1.9171   -0.2935 H.spc      1 <1>        0.000
@<TRIPOS>BOND
     1    8    9 1  
     2    9   10 2  
     3    1    2 2  
     4    2    3 1  
     5    1    6 1  
     6    3    4 1  
     7    4    5 2  
     8    6    7 2  
     9    7    8 1  
    10    1   11 1  
    11    2   12 1  
    12    4   13 1  
    13    6   14 1  
    14    7   15 1  
    15    9   16 1  
# Name:          frag3-244-3/31924 -- energy: -0.995648
# Creation time: Sat Jun  5 12:52:38 2010


@<TRIPOS>MOLECULE
frag3-244-3/31924 -- energy: -0.995648
   16    15     1     1     1
SMALL
USER_CHARGES


@<TRIPOS>ATOM
      1 C12        -0.6419    0.1102   -0.4090 C.2        1 <1>        0.000
      2 C13        -1.6443   -0.5404    0.2025 C.2        1 <1>        0.000
      3 O2         -2.8378   -0.8052   -0.4288 O.3        1 <1>        0.000
      4 C14        -3.8821   -1.0637    0.3690 C.2        1 <1>        0.000
      5 O3         -4.3006   -0.3854    1.2964 O.2        1 <1>        0.000
      6 C16         0.6405    0.4131    0.0896 C.2        1 <1>        0.000
      7 C17         1.8021   -0.1800   -0.2319 C.2        1 <1>        0.000
      8 O4          2.9892    0.1872    0.3701 O.3        1 <1>        0.000
      9 C18         3.9013   -0.7871    0.5037 C.2        1 <1>        0.000
     10 O5          3.8955   -1.9051    0.0124 O.2        1 <1>        0.000
     11 H          -0.8471    0.4486   -1.4246 H.spc      1 <1>        0.000
     12 H          -1.5083   -0.8696    1.2327 H.spc      1 <1>        0.000
     13 H          -4.4231   -1.9883    0.1677 H.spc      1 <1>        0.000
     14 H           0.6965    1.2208    0.8194 H.spc      1 <1>        0.000
     15 H           1.8077   -0.9684   -0.9845 H.spc      1 <1>        0.000
     16 H           4.7594   -0.5501    1.1327 H.spc      1 <1>        0.000
@<TRIPOS>BOND
     1    8    9 1  
     2    9   10 2  
     3    1    2 2  
     4    2    3 1  
     5    1    6 1  
     6    3    4 1  
     7    4    5 2  
     8    6    7 2  
     9    7    8 1  
    10    1   11 1  
    11    2   12 1  
    12    4   13 1  
    13    6   14 1  
    14    7   15 1  
    15    9   16 1  
# Name:          frag3-244-3/31924 -- energy: -1.187367
# Creation time: Sat Jun  5 12:52:38 2010


@<TRIPOS>MOLECULE
frag3-244-3/31924 -- energy: -1.187367
   16    15     1     1     1
SMALL
USER_CHARGES


@<TRIPOS>ATOM
      1 C12         0.9299   -0.1477   -0.6608 C.2        1 <1>        0.000
      2 C13         1.7626    0.4580    0.1875 C.2        1 <1>        0.000
      3 O2          3.1341    0.3489    0.1531 O.3        1 <1>        0.000
      4 C14         3.5996   -0.8931    0.4034 C.2        1 <1>        0.000
      5 O3          2.9918   -1.9558    0.4035 O.2        1 <1>        0.000
      6 C16        -0.4722   -0.0798   -0.7382 C.2        1 <1>        0.000
      7 C17        -1.3588   -0.2505    0.2590 C.2        1 <1>        0.000
      8 O4         -2.7132   -0.1874    0.0349 O.3        1 <1>        0.000
      9 C18        -3.4835   -0.7716    0.9659 C.2        1 <1>        0.000
     10 O5         -4.4685   -1.4774    0.7656 O.2        1 <1>        0.000
     11 H           1.4063   -0.7890   -1.4023 H.spc      1 <1>        0.000
     12 H           1.3249    1.0849    0.9643 H.spc      1 <1>        0.000
     13 H           4.6621   -0.9589    0.6375 H.spc      1 <1>        0.000
     14 H          -0.8898    0.1365   -1.7215 H.spc      1 <1>        0.000
     15 H          -0.9945   -0.4433    1.2681 H.spc      1 <1>        0.000
     16 H          -3.2065   -0.6023    2.0064 H.spc      1 <1>        0.000
@<TRIPOS>BOND
     1    8    9 1  
     2    9   10 2  
     3    1    2 2  
     4    2    3 1  
     5    1    6 1  
     6    3    4 1  
     7    4    5 2  
     8    6    7 2  
     9    7    8 1  
    10    1   11 1  
    11    2   12 1  
    12    4   13 1  
    13    6   14 1  
    14    7   15 1  
    15    9   16 1  
# Name:          frag3-244-3/31924 -- energy: -1.336436
# Creation time: Sat Jun  5 12:52:38 2010


@<TRIPOS>MOLECULE
frag3-244-3/31924 -- energy: -1.336436
   16    15     1     1     1
SMALL
USER_CHARGES


@<TRIPOS>ATOM
      1 C12         0.7876    0.1596    0.2092 C.2        1 <1>        0.000
      2 C13         1.4394   -0.8083   -0.4439 C.2        1 <1>        0.000
      3 O2          2.7861   -0.7785   -0.6914 O.3        1 <1>        0.000
      4 C14         3.5750   -0.9218    0.3928 C.2        1 <1>        0.000
      5 O3          4.6403   -0.3429    0.5948 O.2        1 <1>        0.000
      6 C16        -0.5814    0.2448    0.5247 C.2        1 <1>        0.000
      7 C17        -1.4632   -0.7670    0.5962 C.2        1 <1>        0.000
      8 O4         -2.7889   -0.5603    0.8894 O.3        1 <1>        0.000
      9 C18        -3.6424   -0.7493   -0.1341 C.2        1 <1>        0.000
     10 O5         -4.8305   -0.4325   -0.1639 O.2        1 <1>        0.000
     11 H           1.4003    0.9971    0.5428 H.spc      1 <1>        0.000
     12 H           0.8685   -1.6666   -0.7981 H.spc      1 <1>        0.000
     13 H           3.2363   -1.6159    1.1620 H.spc      1 <1>        0.000
     14 H          -0.9694    1.2416    0.7342 H.spc      1 <1>        0.000
     15 H          -1.1151   -1.7840    0.4157 H.spc      1 <1>        0.000
     16 H          -3.2406   -1.2312   -1.0254 H.spc      1 <1>        0.000
@<TRIPOS>BOND
     1    8    9 1  
     2    9   10 2  
     3    1    2 2  
     4    2    3 1  
     5    1    6 1  
     6    3    4 1  
     7    4    5 2  
     8    6    7 2  
     9    7    8 1  
    10    1   11 1  
    11    2   12 1  
    12    4   13 1  
    13    6   14 1  
    14    7   15 1  
    15    9   16 1  
# Name:          frag3-244-3/31924 -- energy: -1.138486
# Creation time: Sat Jun  5 12:52:38 2010


@<TRIPOS>MOLECULE
frag3-244-3/31924 -- energy: -1.138486
   16    15     1     1     1
SMALL
USER_CHARGES


@<TRIPOS>ATOM
      1 C12        -0.5668   -0.8083   -0.0371 C.2        1 <1>        0.000
      2 C13        -1.6844   -0.4184    0.5919 C.2        1 <1>        0.000
      3 O2         -2.9071   -0.9786    0.3204 O.3        1 <1>        0.000
      4 C14        -3.9810   -0.2327    0.6112 C.2        1 <1>        0.000
      5 O3         -5.0432   -0.2204   -0.0070 O.2        1 <1>        0.000
      6 C16         0.7525   -0.3555    0.1482 C.2        1 <1>        0.000
      7 C17         1.7760   -0.4340   -0.7045 C.2        1 <1>        0.000
      8 O4          3.0409    0.0166   -0.4048 O.3        1 <1>        0.000
      9 C18         3.6653   -0.6485    0.5876 C.2        1 <1>        0.000
     10 O5          4.8698   -0.8764    0.6681 O.2        1 <1>        0.000
     11 H          -0.6977   -1.5808   -0.7948 H.spc      1 <1>        0.000
     12 H          -1.6198    0.3688    1.3430 H.spc      1 <1>        0.000
     13 H          -3.9058    0.4250    1.4772 H.spc      1 <1>        0.000
     14 H           0.9647    0.1179    1.1068 H.spc      1 <1>        0.000
     15 H           1.6015   -0.8763   -1.6853 H.spc      1 <1>        0.000
     16 H           3.0397   -1.0209    1.3988 H.spc      1 <1>        0.000
@<TRIPOS>BOND
     1    8    9 1  
     2    9   10 2  
     3    1    2 2  
     4    2    3 1  
     5    1    6 1  
     6    3    4 1  
     7    4    5 2  
     8    6    7 2  
     9    7    8 1  
    10    1   11 1  
    11    2   12 1  
    12    4   13 1  
    13    6   14 1  
    14    7   15 1  
    15    9   16 1  
# Name:          frag3-244-3/31924 -- energy: -1.048296
# Creation time: Sat Jun  5 12:52:38 2010


@<TRIPOS>MOLECULE
frag3-244-3/31924 -- energy: -1.048296
   16    15     1     1     1
SMALL
USER_CHARGES


@<TRIPOS>ATOM
      1 C12        -0.6653   -0.2224   -0.0010 C.2        1 <1>        0.000
      2 C13        -1.5815   -0.4714    0.9390 C.2        1 <1>        0.000
      3 O2         -2.8820   -0.0473    0.8441 O.3        1 <1>        0.000
      4 C14        -3.7317   -0.9021    0.2475 C.2        1 <1>        0.000
      5 O3         -4.7986   -0.6063   -0.2868 O.2        1 <1>        0.000
      6 C16         0.6872   -0.6010   -0.0406 C.2        1 <1>        0.000
      7 C17         1.7020    0.0288   -0.6366 C.2        1 <1>        0.000
      8 O4          2.9883   -0.4575   -0.6553 O.3        1 <1>        0.000
      9 C18         3.5070   -0.7657    0.5483 C.2        1 <1>        0.000
     10 O5          4.6966   -0.9112    0.8154 O.2        1 <1>        0.000
     11 H          -1.0160    0.3550   -0.8565 H.spc      1 <1>        0.000
     12 H          -1.2816   -1.0372    1.8211 H.spc      1 <1>        0.000
     13 H          -3.4482   -1.9545    0.2367 H.spc      1 <1>        0.000
     14 H           0.9393   -1.5245    0.4806 H.spc      1 <1>        0.000
     15 H           1.5008    0.9775   -1.1342 H.spc      1 <1>        0.000
     16 H           2.8004   -0.8994    1.3674 H.spc      1 <1>        0.000
@<TRIPOS>BOND
     1    8    9 1  
     2    9   10 2  
     3    1    2 2  
     4    2    3 1  
     5    1    6 1  
     6    3    4 1  
     7    4    5 2  
     8    6    7 2  
     9    7    8 1  
    10    1   11 1  
    11    2   12 1  
    12    4   13 1  
    13    6   14 1  
    14    7   15 1  
    15    9   16 1  
# Name:          frag3-244-3/31924 -- energy: -1.067479
# Creation time: Sat Jun  5 12:52:38 2010


@<TRIPOS>MOLECULE
frag3-244-3/31924 -- energy: -1.067479
   16    15     1     1     1
SMALL
USER_CHARGES


@<TRIPOS>ATOM
      1 C12         0.8501   -0.0966    0.1096 C.2        1 <1>        0.000
      2 C13         1.8993    0.4576   -0.4997 C.2        1 <1>        0.000
      3 O2          3.2027    0.1406   -0.2100 O.3        1 <1>        0.000
      4 C14         3.4512   -1.1703   -0.0188 C.2        1 <1>        0.000
      5 O3          4.0510   -1.6663    0.9302 O.2        1 <1>        0.000
      6 C16        -0.5212    0.1285   -0.1056 C.2        1 <1>        0.000
      7 C17        -1.5540   -0.3790    0.5808 C.2        1 <1>        0.000
      8 O4         -2.8584   -0.1019    0.2428 O.3        1 <1>        0.000
      9 C18        -3.6987   -1.1477    0.2440 C.2        1 <1>        0.000
     10 O5         -4.9000   -1.1212    0.5008 O.2        1 <1>        0.000
     11 H           1.0893   -0.8265    0.8830 H.spc      1 <1>        0.000
     12 H           1.7108    1.2043   -1.2711 H.spc      1 <1>        0.000
     13 H           3.0836   -1.8569   -0.7814 H.spc      1 <1>        0.000
     14 H          -0.7743    0.7958   -0.9295 H.spc      1 <1>        0.000
     15 H          -1.3548   -1.0304    1.4318 H.spc      1 <1>        0.000
     16 H          -3.2728   -2.1188   -0.0083 H.spc      1 <1>        0.000
@<TRIPOS>BOND
     1    8    9 1  
     2    9   10 2  
     3    1    2 2  
     4    2    3 1  
     5    1    6 1  
     6    3    4 1  
     7    4    5 2  
     8    6    7 2  
     9    7    8 1  
    10    1   11 1  
    11    2   12 1  
    12    4   13 1  
    13    6   14 1  
    14    7   15 1  
    15    9   16 1  
# Name:          frag3-244-3/31924 -- energy: -1.254266
# Creation time: Sat Jun  5 12:52:38 2010


@<TRIPOS>MOLECULE
frag3-244-3/31924 -- energy: -1.254266
   16    15     1     1     1
SMALL
USER_CHARGES


@<TRIPOS>ATOM
      1 C12        -0.6029   -0.1709   -0.2497 C.2        1 <1>        0.000
      2 C13        -1.3688   -0.9028    0.5700 C.2        1 <1>        0.000
      3 O2         -2.6563   -1.2606    0.2619 O.3        1 <1>        0.000
      4 C14        -3.6146   -0.4720    0.7794 C.2        1 <1>        0.000
      5 O3         -4.7086   -0.2313    0.2651 O.2        1 <1>        0.000
      6 C16         0.7372    0.2263   -0.0832 C.2        1 <1>        0.000
      7 C17         1.8140   -0.2400   -0.7275 C.2        1 <1>        0.000
      8 O4          3.0933    0.2052   -0.4588 O.3        1 <1>        0.000
      9 C18         3.8050   -0.5839    0.3698 C.2        1 <1>        0.000
     10 O5          3.4236   -1.5263    1.0470 O.2        1 <1>        0.000
     11 H          -1.0822    0.1622   -1.1702 H.spc      1 <1>        0.000
     12 H          -0.9508   -1.2279    1.5227 H.spc      1 <1>        0.000
     13 H          -3.4050   -0.0031    1.7408 H.spc      1 <1>        0.000
     14 H           0.9196    1.0050    0.6573 H.spc      1 <1>        0.000
     15 H           1.6755   -1.0016   -1.4949 H.spc      1 <1>        0.000
     16 H           4.8667   -0.3491    0.4463 H.spc      1 <1>        0.000
@<TRIPOS>BOND
     1    8    9 1  
     2    9   10 2  
     3    1    2 2  
     4    2    3 1  
     5    1    6 1  
     6    3    4 1  
     7    4    5 2  
     8    6    7 2  
     9    7    8 1  
    10    1   11 1  
    11    2   12 1  
    12    4   13 1  
    13    6   14 1  
    14    7   15 1  
    15    9   16 1  
