#      Rotatable Fragment
#      Build by yxyuan
#
# Name:          frag3-165-11/31924
# Creation time: Sat Jun  5 12:52:05 2010


@<TRIPOS>MOLECULE
frag3-165-11/31924
    8     7     1     1     1
SMALL
USER_CHARGES


@<TRIPOS>ATOM
      1 O4         -2.8460   -0.6020   -1.3860 O.3        1 <1>        0.000
      2 S1         -4.2943   -0.0999   -1.0287 S.o2       1 <1>        0.000
      3 O5         -4.1204    1.1294   -0.2938 O.2        1 <1>        0.000
      4 O6         -4.9699   -1.2263   -0.4275 O.2        1 <1>        0.000
      5 N6         -4.8908    0.1986   -2.5592 N.am       1 <1>        0.000
      6 H          -2.9059   -1.4234   -1.8792 H.spc      1 <1>        0.000
      7 H          -5.0799    1.1563   -2.8551 H.spc      1 <1>        0.000
      8 H          -5.0661   -0.5767   -3.1984 H.spc      1 <1>        0.000
@<TRIPOS>BOND
     1    1    2 1  
     2    2    3 2  
     3    2    4 2  
     4    2    5 1  
     5    1    6 1  
     6    5    7 1  
     7    5    8 1  
# Name:          frag3-165-11/31924 -- energy: -0.266340
# Creation time: Sat Jun  5 12:52:05 2010


@<TRIPOS>MOLECULE
frag3-165-11/31924 -- energy: -0.266340
    8     7     1     1     1
SMALL
USER_CHARGES


@<TRIPOS>ATOM
      1 O4         -2.8460   -0.6020   -1.3860 O.3        1 <1>        0.000
      2 S1         -4.2943   -0.0999   -1.0287 S.o2       1 <1>        0.000
      3 O5         -4.1204    1.1294   -0.2938 O.2        1 <1>        0.000
      4 O6         -4.9699   -1.2263   -0.4275 O.2        1 <1>        0.000
      5 N6         -4.8908    0.1986   -2.5592 N.am       1 <1>        0.000
      6 H          -2.9059   -1.4234   -1.8792 H.spc      1 <1>        0.000
      7 H          -5.0799    1.1563   -2.8551 H.spc      1 <1>        0.000
      8 H          -5.0661   -0.5767   -3.1984 H.spc      1 <1>        0.000
@<TRIPOS>BOND
     1    1    2 1  
     2    2    3 2  
     3    2    4 2  
     4    2    5 1  
     5    1    6 1  
     6    5    7 1  
     7    5    8 1  
