#      Rotatable Fragment
#      Build by yxyuan
#
# Name:          frag2-053-13/92655
# Creation time: Sat Jun  5 12:51:57 2010


@<TRIPOS>MOLECULE
frag2-053-13/92655
   24    26     1     1     1
SMALL
USER_CHARGES


@<TRIPOS>ATOM
      1 C6          0.1819    1.3773    0.0193 C.ar       1 <1>        0.000
      2 C7         -1.1124    0.8551   -0.0659 C.ar       1 <1>        0.000
      3 C8         -1.2969   -0.5353   -0.0821 C.ar       1 <1>        0.000
      4 C9         -0.1827   -1.3783   -0.0154 C.ar       1 <1>        0.000
      5 C10         1.1121   -0.8568    0.0678 C.ar       1 <1>        0.000
      6 C11         1.2966    0.5333    0.0857 C.ar       1 <1>        0.000
      7 C12         2.5947    1.0562    0.1691 C.ar       1 <1>        0.000
      8 C13         3.6961    0.2090    0.2342 C.ar       1 <1>        0.000
      9 C14         3.5157   -1.1672    0.2167 C.ar       1 <1>        0.000
     10 C15         2.2298   -1.6997    0.1342 C.ar       1 <1>        0.000
     11 C18        -2.5952   -1.0573   -0.1665 C.ar       1 <1>        0.000
     12 C19        -3.6973   -0.2076   -0.2363 C.ar       1 <1>        0.000
     13 C20        -3.5135    1.1689   -0.2214 C.ar       1 <1>        0.000
     14 C21        -2.2300    1.6990   -0.1359 C.ar       1 <1>        0.000
     15 H           0.3250    2.4578    0.0342 H.spc      1 <1>        0.000
     16 H          -0.3260   -2.4588   -0.0285 H.spc      1 <1>        0.000
     17 H           2.7422    2.1361    0.1831 H.spc      1 <1>        0.000
     18 H           4.7011    0.6260    0.2990 H.spc      1 <1>        0.000
     19 H           4.3787   -1.8311    0.2674 H.spc      1 <1>        0.000
     20 H           2.0926   -2.7810    0.1212 H.spc      1 <1>        0.000
     21 H          -2.7438   -2.1371   -0.1776 H.spc      1 <1>        0.000
     22 H          -4.7029   -0.6229   -0.3025 H.spc      1 <1>        0.000
     23 H          -4.3751    1.8342   -0.2767 H.spc      1 <1>        0.000
     24 H          -2.0920    2.7802   -0.1232 H.spc      1 <1>        0.000
@<TRIPOS>BOND
     1    9   10 ar 
     2    5    6 ar 
     3    8    9 ar 
     4   13   14 ar 
     5    4    5 ar 
     6    3   11 ar 
     7   11   12 ar 
     8    2    3 ar 
     9    7    8 ar 
    10   12   13 ar 
    11    3    4 ar 
    12    1    6 ar 
    13    2   14 ar 
    14    6    7 ar 
    15    1    2 ar 
    16    5   10 ar 
    17    1   15 1  
    18    4   16 1  
    19    7   17 1  
    20    8   18 1  
    21    9   19 1  
    22   10   20 1  
    23   11   21 1  
    24   12   22 1  
    25   13   23 1  
    26   14   24 1  
# Name:          frag2-053-13/92655 -- energy: -0.753150
# Creation time: Sat Jun  5 12:51:57 2010


@<TRIPOS>MOLECULE
frag2-053-13/92655 -- energy: -0.753150
   24    26     1     1     1
SMALL
USER_CHARGES


@<TRIPOS>ATOM
      1 C6          0.1819    1.3773    0.0193 C.ar       1 <1>        0.000
      2 C7         -1.1124    0.8551   -0.0659 C.ar       1 <1>        0.000
      3 C8         -1.2969   -0.5353   -0.0821 C.ar       1 <1>        0.000
      4 C9         -0.1827   -1.3783   -0.0154 C.ar       1 <1>        0.000
      5 C10         1.1121   -0.8568    0.0678 C.ar       1 <1>        0.000
      6 C11         1.2966    0.5333    0.0857 C.ar       1 <1>        0.000
      7 C12         2.5947    1.0562    0.1691 C.ar       1 <1>        0.000
      8 C13         3.6961    0.2090    0.2342 C.ar       1 <1>        0.000
      9 C14         3.5157   -1.1672    0.2167 C.ar       1 <1>        0.000
     10 C15         2.2298   -1.6997    0.1342 C.ar       1 <1>        0.000
     11 C18        -2.5952   -1.0573   -0.1665 C.ar       1 <1>        0.000
     12 C19        -3.6973   -0.2076   -0.2363 C.ar       1 <1>        0.000
     13 C20        -3.5135    1.1689   -0.2214 C.ar       1 <1>        0.000
     14 C21        -2.2300    1.6990   -0.1359 C.ar       1 <1>        0.000
     15 H           0.3250    2.4578    0.0342 H.spc      1 <1>        0.000
     16 H          -0.3260   -2.4588   -0.0285 H.spc      1 <1>        0.000
     17 H           2.7422    2.1361    0.1831 H.spc      1 <1>        0.000
     18 H           4.7011    0.6260    0.2990 H.spc      1 <1>        0.000
     19 H           4.3787   -1.8311    0.2674 H.spc      1 <1>        0.000
     20 H           2.0926   -2.7810    0.1212 H.spc      1 <1>        0.000
     21 H          -2.7438   -2.1371   -0.1776 H.spc      1 <1>        0.000
     22 H          -4.7029   -0.6229   -0.3025 H.spc      1 <1>        0.000
     23 H          -4.3751    1.8342   -0.2767 H.spc      1 <1>        0.000
     24 H          -2.0920    2.7802   -0.1232 H.spc      1 <1>        0.000
@<TRIPOS>BOND
     1    9   10 ar 
     2    5    6 ar 
     3    8    9 ar 
     4   13   14 ar 
     5    4    5 ar 
     6    3   11 ar 
     7   11   12 ar 
     8    2    3 ar 
     9    7    8 ar 
    10   12   13 ar 
    11    3    4 ar 
    12    1    6 ar 
    13    2   14 ar 
    14    6    7 ar 
    15    1    2 ar 
    16    5   10 ar 
    17    1   15 1  
    18    4   16 1  
    19    7   17 1  
    20    8   18 1  
    21    9   19 1  
    22   10   20 1  
    23   11   21 1  
    24   12   22 1  
    25   13   23 1  
    26   14   24 1  
