#      Rotatable Fragment
#      Build by yxyuan
#
# Name:          frag4-453-38/48856
# Creation time: Sat Jun  5 12:52:48 2010


@<TRIPOS>MOLECULE
frag4-453-38/48856
   18    19     1     1     1
SMALL
USER_CHARGES


@<TRIPOS>ATOM
      1 C13        -0.0439   -0.0544    3.5609 C.ar       1 <1>        0.000
      2 C14        -0.9417   -0.6818    2.6882 C.ar       1 <1>        0.000
      3 C15        -2.2963   -0.3658    2.7997 C.ar       1 <1>        0.000
      4 C16        -2.7354    0.5444    3.7497 C.ar       1 <1>        0.000
      5 C17        -1.8551    1.1781    4.6265 C.ar       1 <1>        0.000
      6 C18        -0.4947    0.8650    4.5192 C.ar       1 <1>        0.000
      7 C19        -4.2291    0.6548    3.6034 C.3        1 <1>        0.000
      8 N4         -4.5695   -0.1477    2.6337 N.3        1 <1>        0.000
      9 C20        -3.4816   -0.8897    1.9918 C.3        1 <1>        0.000
     10 H           1.0196   -0.2838    3.4944 H.spc      1 <1>        0.000
     11 H          -0.5923   -1.3966    1.9431 H.spc      1 <1>        0.000
     12 H          -2.2134    1.8915    5.3686 H.spc      1 <1>        0.000
     13 H           0.2222    1.3412    5.1881 H.spc      1 <1>        0.000
     14 H          -4.7321    0.3799    4.5305 H.spc      1 <1>        0.000
     15 H          -4.5234    1.6805    3.3809 H.spc      1 <1>        0.000
     16 H          -5.1848   -0.8479    3.0477 H.spc      1 <1>        0.000
     17 H          -3.4003   -0.7323    0.9163 H.spc      1 <1>        0.000
     18 H          -3.5995   -1.9731    2.0131 H.spc      1 <1>        0.000
@<TRIPOS>BOND
     1    8    9 1  
     2    7    8 1  
     3    1    2 ar 
     4    1    6 ar 
     5    2    3 ar 
     6    3    4 ar 
     7    3    9 1  
     8    4    5 ar 
     9    4    7 1  
    10    5    6 ar 
    11    1   10 1  
    12    2   11 1  
    13    5   12 1  
    14    6   13 1  
    15    7   14 1  
    16    7   15 1  
    17    8   16 1  
    18    9   17 1  
    19    9   18 1  
# Name:          frag4-453-38/48856 -- energy: -0.799034
# Creation time: Sat Jun  5 12:52:48 2010


@<TRIPOS>MOLECULE
frag4-453-38/48856 -- energy: -0.799034
   18    19     1     1     1
SMALL
USER_CHARGES


@<TRIPOS>ATOM
      1 C13        -0.0439   -0.0544    3.5609 C.ar       1 <1>        0.000
      2 C14        -0.9417   -0.6818    2.6882 C.ar       1 <1>        0.000
      3 C15        -2.2963   -0.3658    2.7997 C.ar       1 <1>        0.000
      4 C16        -2.7354    0.5444    3.7497 C.ar       1 <1>        0.000
      5 C17        -1.8551    1.1781    4.6265 C.ar       1 <1>        0.000
      6 C18        -0.4947    0.8650    4.5192 C.ar       1 <1>        0.000
      7 C19        -4.2291    0.6548    3.6034 C.3        1 <1>        0.000
      8 N4         -4.5695   -0.1477    2.6337 N.3        1 <1>        0.000
      9 C20        -3.4816   -0.8897    1.9918 C.3        1 <1>        0.000
     10 H           1.0196   -0.2838    3.4944 H.spc      1 <1>        0.000
     11 H          -0.5923   -1.3966    1.9431 H.spc      1 <1>        0.000
     12 H          -2.2134    1.8915    5.3686 H.spc      1 <1>        0.000
     13 H           0.2222    1.3412    5.1881 H.spc      1 <1>        0.000
     14 H          -4.7321    0.3799    4.5305 H.spc      1 <1>        0.000
     15 H          -4.5234    1.6805    3.3809 H.spc      1 <1>        0.000
     16 H          -5.1848   -0.8479    3.0477 H.spc      1 <1>        0.000
     17 H          -3.4003   -0.7323    0.9163 H.spc      1 <1>        0.000
     18 H          -3.5995   -1.9731    2.0131 H.spc      1 <1>        0.000
@<TRIPOS>BOND
     1    8    9 1  
     2    7    8 1  
     3    1    2 ar 
     4    1    6 ar 
     5    2    3 ar 
     6    3    4 ar 
     7    3    9 1  
     8    4    5 ar 
     9    4    7 1  
    10    5    6 ar 
    11    1   10 1  
    12    2   11 1  
    13    5   12 1  
    14    6   13 1  
    15    7   14 1  
    16    7   15 1  
    17    8   16 1  
    18    9   17 1  
    19    9   18 1  
