#      Rotatable Fragment
#      Build by yxyuan
#
# Name:          frag5-687-59/138278
# Creation time: Sat Jun  5 12:51:56 2010


@<TRIPOS>MOLECULE
frag5-687-59/138278
   46    50     1     1     1
SMALL
USER_CHARGES


@<TRIPOS>ATOM
      1 C1          1.3070    0.8827   -0.3127 C.ar       1 <1>        0.000
      2 C2          0.0616    0.1292   -0.1113 C.ar       1 <1>        0.000
      3 C3          2.5199    0.2629   -0.0114 C.ar       1 <1>        0.000
      4 C4          1.3240    2.2145   -0.7562 C.ar       1 <1>        0.000
      5 C5         -0.0008   -1.2669   -0.1838 C.ar       1 <1>        0.000
      6 C6         -1.1034    0.8289    0.1844 C.ar       1 <1>        0.000
      7 C7          2.5619   -1.2745    0.1578 C.3        1 <1>        0.000
      8 C8          3.6582    1.0511    0.1396 C.ar       1 <1>        0.000
      9 C14         2.2664    4.5646   -0.5919 C.2        1 <1>        0.000
     10 C9          2.3966    3.0535   -0.4523 C.ar       1 <1>        0.000
     11 O1          0.2364    2.6892   -1.5150 O.3        1 <1>        0.000
     12 C10        -1.2160   -1.9308   -0.0313 C.ar       1 <1>        0.000
     13 C11         1.3210   -2.0240   -0.4324 C.3        1 <1>        0.000
     14 C12        -2.3389    0.2095    0.0835 C.ar       1 <1>        0.000
     15 O2         -0.9878    2.1707    0.6006 O.3        1 <1>        0.000
     16 C13         3.5826    2.4417   -0.0210 C.ar       1 <1>        0.000
     17 C33        -7.4248   -0.7264    0.4164 C.ar       1 <1>        0.000
     18 O13        -6.5090   -2.9451    0.1336 O.3        1 <1>        0.000
     19 O14        -8.4279    1.4993    0.1885 O.3        1 <1>        0.000
     20 C15        -2.4071   -1.2026    0.0614 C.ar       1 <1>        0.000
     21 C16        -3.5952    1.0313   -0.0081 C.2        1 <1>        0.000
     22 N1          1.0915    5.1660   -0.9245 N.am       1 <1>        0.000
     23 O5          3.2601    5.2539   -0.4093 O.2        1 <1>        0.000
     24 C19        -3.7689   -1.8545    0.1492 C.2        1 <1>        0.000
     25 C20        -4.9403    0.3701   -0.0763 C.ar       1 <1>        0.000
     26 O6         -3.5302    2.2580   -0.0089 O.2        1 <1>        0.000
     27 C23        -5.0379   -1.0306    0.0789 C.ar       1 <1>        0.000
     28 O8         -3.8420   -3.0723    0.2997 O.2        1 <1>        0.000
     29 C24        -6.0851    1.1498   -0.2519 C.ar       1 <1>        0.000
     30 C29        -6.3225   -1.5595    0.2072 C.ar       1 <1>        0.000
     31 C30        -7.3176    0.6345    0.1166 C.ar       1 <1>        0.000
     32 H           3.4384   -1.6320   -0.3827 H.spc      1 <1>        0.000
     33 H           2.5792   -1.4781    1.2285 H.spc      1 <1>        0.000
     34 H           4.6125    0.5845    0.3838 H.spc      1 <1>        0.000
     35 H           0.3858    3.6090   -1.7457 H.spc      1 <1>        0.000
     36 H          -1.2389   -3.0195    0.0159 H.spc      1 <1>        0.000
     37 H           1.2498   -2.9946    0.0585 H.spc      1 <1>        0.000
     38 H           1.4615   -2.1100   -1.5099 H.spc      1 <1>        0.000
     39 H          -0.0617    2.4233    0.6091 H.spc      1 <1>        0.000
     40 H           4.4575    3.0558    0.1922 H.spc      1 <1>        0.000
     41 H          -8.3569   -1.1330    0.8087 H.spc      1 <1>        0.000
     42 H          -5.6623   -3.3735   -0.0120 H.spc      1 <1>        0.000
     43 H          -8.1560    2.3880   -0.0522 H.spc      1 <1>        0.000
     44 H           1.0467    6.1806   -1.0189 H.spc      1 <1>        0.000
     45 H           0.2558    4.6020   -1.0794 H.spc      1 <1>        0.000
     46 H          -6.0103    2.1520   -0.6739 H.spc      1 <1>        0.000
@<TRIPOS>BOND
     1    1    3 ar 
     2    1    2 1  
     3    2    5 ar 
     4    1    4 ar 
     5   31   17 ar 
     6   31   19 1  
     7   30   18 1  
     8   30   17 ar 
     9   29   31 ar 
    10   27   30 ar 
    11   25   27 ar 
    12   25   29 ar 
    13   24   28 2  
    14   24   27 1  
    15   21   26 2  
    16   21   25 1  
    17   20   24 1  
    18    9   23 2  
    19    9   22 am 
    20   14   20 ar 
    21   14   21 1  
    22   12   20 ar 
    23   10   16 ar 
    24   10    9 1  
    25    8   16 ar 
    26    7   13 1  
    27    6   14 ar 
    28    5   13 1  
    29    5   12 ar 
    30    6   15 1  
    31    4   11 1  
    32    3    8 ar 
    33    4   10 ar 
    34    3    7 1  
    35    2    6 ar 
    36    7   32 1  
    37    7   33 1  
    38    8   34 1  
    39   11   35 1  
    40   12   36 1  
    41   13   37 1  
    42   13   38 1  
    43   15   39 1  
    44   16   40 1  
    45   17   41 1  
    46   18   42 1  
    47   19   43 1  
    48   22   44 1  
    49   22   45 1  
    50   29   46 1  
# Name:          frag5-687-59/138278
# Creation time: Sat Jun  5 12:51:56 2010


@<TRIPOS>MOLECULE
frag5-687-59/138278
   46    50     1     1     1
SMALL
USER_CHARGES


@<TRIPOS>ATOM
      1 C1          1.3023    0.8869   -0.3169 C.ar       1 <1>        0.000
      2 C2          0.0572    0.1310   -0.1135 C.ar       1 <1>        0.000
      3 C3          2.5160    0.2687   -0.0160 C.ar       1 <1>        0.000
      4 C4          1.3157    2.2173   -0.7635 C.ar       1 <1>        0.000
      5 C5         -0.0017   -1.2652   -0.1836 C.ar       1 <1>        0.000
      6 C6         -1.1080    0.8306    0.1822 C.ar       1 <1>        0.000
      7 C7          2.5606   -1.2676    0.1557 C.3        1 <1>        0.000
      8 C8          3.6531    1.0597    0.1325 C.ar       1 <1>        0.000
      9 C14         2.2551    4.5697   -0.6038 C.2        1 <1>        0.000
     10 C9          2.3877    3.0587   -0.4617 C.ar       1 <1>        0.000
     11 O1          0.2269    2.6889   -1.5214 O.3        1 <1>        0.000
     12 C10        -1.2165   -1.9308   -0.0288 C.ar       1 <1>        0.000
     13 C11         1.3205   -2.0202   -0.4319 C.3        1 <1>        0.000
     14 C12        -2.3427    0.2076    0.0830 C.ar       1 <1>        0.000
     15 O2         -0.9957    2.1725    0.5958 O.3        1 <1>        0.000
     16 C13         3.5752    2.4498   -0.0303 C.ar       1 <1>        0.000
     17 C33        -7.4262   -0.7355    0.4224 C.ar       1 <1>        0.000
     18 O13        -6.5074   -2.9531    0.1424 O.3        1 <1>        0.000
     19 O14        -8.4323    1.4890    0.1910 O.3        1 <1>        0.000
     20 C15        -2.4086   -1.2037    0.0636 C.ar       1 <1>        0.000
     21 C16        -3.6002    1.0281   -0.0085 C.2        1 <1>        0.000
     22 N1          3.3270    5.4054   -0.5327 N.am       1 <1>        0.000
     23 O5          1.1395    5.0406   -0.7773 O.2        1 <1>        0.000
     24 C19        -3.7692   -1.8588    0.1538 C.2        1 <1>        0.000
     25 C20        -4.9442    0.3636   -0.0744 C.ar       1 <1>        0.000
     26 O6         -3.5375    2.2542   -0.0118 O.2        1 <1>        0.000
     27 C23        -5.0393   -1.0360    0.0831 C.ar       1 <1>        0.000
     28 O8         -3.8400   -3.0758    0.3065 O.2        1 <1>        0.000
     29 C24        -6.0905    1.1415   -0.2505 C.ar       1 <1>        0.000
     30 C29        -6.3228   -1.5682    0.2130 C.ar       1 <1>        0.000
     31 C30        -7.3221    0.6254    0.1203 C.ar       1 <1>        0.000
     32 H           3.4371   -1.6245   -0.3851 H.spc      1 <1>        0.000
     33 H           2.5792   -1.4693    1.2267 H.spc      1 <1>        0.000
     34 H           4.6085    0.5952    0.3766 H.spc      1 <1>        0.000
     35 H           0.3748    3.6085   -1.7541 H.spc      1 <1>        0.000
     36 H          -1.2380   -3.0195    0.0204 H.spc      1 <1>        0.000
     37 H           1.2514   -2.9900    0.0609 H.spc      1 <1>        0.000
     38 H           1.4602   -2.1080   -1.5093 H.spc      1 <1>        0.000
     39 H          -0.0702    2.4274    0.6034 H.spc      1 <1>        0.000
     40 H           4.4492    3.0658    0.1812 H.spc      1 <1>        0.000
     41 H          -8.3571   -1.1429    0.8168 H.spc      1 <1>        0.000
     42 H          -5.6604   -3.3807   -0.0037 H.spc      1 <1>        0.000
     43 H          -8.1612    2.3774   -0.0515 H.spc      1 <1>        0.000
     44 H           3.1952    6.4127   -0.6238 H.spc      1 <1>        0.000
     45 H           4.2621    5.0244   -0.3883 H.spc      1 <1>        0.000
     46 H          -6.0174    2.1429   -0.6746 H.spc      1 <1>        0.000
@<TRIPOS>BOND
     1    1    3 ar 
     2    1    2 1  
     3    2    5 ar 
     4    1    4 ar 
     5   31   17 ar 
     6   31   19 1  
     7   30   18 1  
     8   30   17 ar 
     9   29   31 ar 
    10   27   30 ar 
    11   25   27 ar 
    12   25   29 ar 
    13   24   28 2  
    14   24   27 1  
    15   21   26 2  
    16   21   25 1  
    17   20   24 1  
    18    9   23 2  
    19    9   22 am 
    20   14   20 ar 
    21   14   21 1  
    22   12   20 ar 
    23   10   16 ar 
    24   10    9 1  
    25    8   16 ar 
    26    7   13 1  
    27    6   14 ar 
    28    5   13 1  
    29    5   12 ar 
    30    6   15 1  
    31    4   11 1  
    32    3    8 ar 
    33    4   10 ar 
    34    3    7 1  
    35    2    6 ar 
    36    7   32 1  
    37    7   33 1  
    38    8   34 1  
    39   11   35 1  
    40   12   36 1  
    41   13   37 1  
    42   13   38 1  
    43   15   39 1  
    44   16   40 1  
    45   17   41 1  
    46   18   42 1  
    47   19   43 1  
    48   22   44 1  
    49   22   45 1  
    50   29   46 1  
