#      Rotatable Fragment
#      Build by yxyuan
#
# Name:          frag4-437-125/150395
# Creation time: Sat Jun  5 12:53:35 2010


@<TRIPOS>MOLECULE
frag4-437-125/150395
   30    33     1     1     1
SMALL
USER_CHARGES


@<TRIPOS>ATOM
      1 C1          1.0715   -0.0120    0.2144 C.3        1 <1>        0.000
      2 C2         -0.2342    0.7556    0.0920 C.ar       1 <1>        0.000
      3 C3          2.2519    0.8396   -0.2395 C.3        1 <1>        0.000
      4 C5         -0.2552    2.1908   -0.0016 C.ar       1 <1>        0.000
      5 C6         -1.4353    0.0513    0.0637 C.ar       1 <1>        0.000
      6 C7          2.2149    2.1837    0.5144 C.3        1 <1>        0.000
      7 C8          3.6414    0.4931    0.0912 C.3        1 <1>        0.000
      8 O4         -3.8789    0.1904   -0.1461 O.3        1 <1>        0.000
      9 C11        -1.4777    2.8473   -0.1197 C.ar       1 <1>        0.000
     10 C12         1.0234    3.0099    0.0213 C.3        1 <1>        0.000
     11 C13        -2.6275    0.7210   -0.0696 C.ar       1 <1>        0.000
     12 C14         3.6368    2.6716    0.2648 C.3        1 <1>        0.000
     13 O1          4.4199    1.4798    0.4384 O.3        1 <1>        0.000
     14 C17        -2.6484    2.1300   -0.1652 C.ar       1 <1>        0.000
     15 O7         -3.9146    2.6064   -0.3160 O.3        1 <1>        0.000
     16 C19        -4.6185    1.3637   -0.5707 C.3        1 <1>        0.000
     17 H           1.0164   -0.8980   -0.4181 H.spc      1 <1>        0.000
     18 H           1.2193   -0.2854    1.2592 H.spc      1 <1>        0.000
     19 H           2.0954    0.7571   -1.3150 H.spc      1 <1>        0.000
     20 H          -1.4295   -1.0354    0.1476 H.spc      1 <1>        0.000
     21 H           2.0180    2.1972    1.5864 H.spc      1 <1>        0.000
     22 H           4.0726    0.0738   -0.8178 H.spc      1 <1>        0.000
     23 H           3.5899   -0.1694    0.9553 H.spc      1 <1>        0.000
     24 H          -1.5058    3.9355   -0.1763 H.spc      1 <1>        0.000
     25 H           1.2346    3.3462   -0.9938 H.spc      1 <1>        0.000
     26 H           0.8819    3.8495    0.7018 H.spc      1 <1>        0.000
     27 H           3.7633    3.1215   -0.7199 H.spc      1 <1>        0.000
     28 H           3.9332    3.4749    0.9393 H.spc      1 <1>        0.000
     29 H          -4.7719    1.2857   -1.6470 H.spc      1 <1>        0.000
     30 H          -5.5497    1.3897   -0.0048 H.spc      1 <1>        0.000
@<TRIPOS>BOND
     1   15   16 1  
     2    1    2 1  
     3    2    5 ar 
     4   11   14 ar 
     5    1    3 1  
     6   11    8 1  
     7    3    7 1  
     8    5   11 ar 
     9    6   10 1  
    10    4    9 ar 
    11   12   13 1  
    12    6   12 1  
    13    3    6 1  
    14    7   13 1  
    15    9   14 ar 
    16    4   10 1  
    17    2    4 ar 
    18   14   15 1  
    19    8   16 1  
    20    1   17 1  
    21    1   18 1  
    22    3   19 1  
    23    5   20 1  
    24    6   21 1  
    25    7   22 1  
    26    7   23 1  
    27    9   24 1  
    28   10   25 1  
    29   10   26 1  
    30   12   27 1  
    31   12   28 1  
    32   16   29 1  
    33   16   30 1  
# Name:          frag4-437-125/150395 -- energy: -3.495172
# Creation time: Sat Jun  5 12:53:35 2010


@<TRIPOS>MOLECULE
frag4-437-125/150395 -- energy: -3.495172
   30    33     1     1     1
SMALL
USER_CHARGES


@<TRIPOS>ATOM
      1 C1          1.0715   -0.0120    0.2144 C.3        1 <1>        0.000
      2 C2         -0.2342    0.7556    0.0920 C.ar       1 <1>        0.000
      3 C3          2.2519    0.8396   -0.2395 C.3        1 <1>        0.000
      4 C5         -0.2552    2.1908   -0.0016 C.ar       1 <1>        0.000
      5 C6         -1.4353    0.0513    0.0637 C.ar       1 <1>        0.000
      6 C7          2.2149    2.1837    0.5144 C.3        1 <1>        0.000
      7 C8          3.6414    0.4931    0.0912 C.3        1 <1>        0.000
      8 O4         -3.8789    0.1904   -0.1461 O.3        1 <1>        0.000
      9 C11        -1.4777    2.8473   -0.1197 C.ar       1 <1>        0.000
     10 C12         1.0234    3.0099    0.0213 C.3        1 <1>        0.000
     11 C13        -2.6275    0.7210   -0.0696 C.ar       1 <1>        0.000
     12 C14         3.6368    2.6716    0.2648 C.3        1 <1>        0.000
     13 O1          4.4199    1.4798    0.4384 O.3        1 <1>        0.000
     14 C17        -2.6484    2.1300   -0.1652 C.ar       1 <1>        0.000
     15 O7         -3.9146    2.6064   -0.3160 O.3        1 <1>        0.000
     16 C19        -4.6185    1.3637   -0.5707 C.3        1 <1>        0.000
     17 H           1.0164   -0.8980   -0.4181 H.spc      1 <1>        0.000
     18 H           1.2193   -0.2854    1.2592 H.spc      1 <1>        0.000
     19 H           2.0954    0.7571   -1.3150 H.spc      1 <1>        0.000
     20 H          -1.4295   -1.0354    0.1476 H.spc      1 <1>        0.000
     21 H           2.0180    2.1972    1.5864 H.spc      1 <1>        0.000
     22 H           4.0726    0.0738   -0.8178 H.spc      1 <1>        0.000
     23 H           3.5899   -0.1694    0.9553 H.spc      1 <1>        0.000
     24 H          -1.5058    3.9355   -0.1763 H.spc      1 <1>        0.000
     25 H           1.2346    3.3462   -0.9938 H.spc      1 <1>        0.000
     26 H           0.8819    3.8495    0.7018 H.spc      1 <1>        0.000
     27 H           3.7633    3.1215   -0.7199 H.spc      1 <1>        0.000
     28 H           3.9332    3.4749    0.9393 H.spc      1 <1>        0.000
     29 H          -4.7719    1.2857   -1.6470 H.spc      1 <1>        0.000
     30 H          -5.5497    1.3897   -0.0048 H.spc      1 <1>        0.000
@<TRIPOS>BOND
     1   15   16 1  
     2    1    2 1  
     3    2    5 ar 
     4   11   14 ar 
     5    1    3 1  
     6   11    8 1  
     7    3    7 1  
     8    5   11 ar 
     9    6   10 1  
    10    4    9 ar 
    11   12   13 1  
    12    6   12 1  
    13    3    6 1  
    14    7   13 1  
    15    9   14 ar 
    16    4   10 1  
    17    2    4 ar 
    18   14   15 1  
    19    8   16 1  
    20    1   17 1  
    21    1   18 1  
    22    3   19 1  
    23    5   20 1  
    24    6   21 1  
    25    7   22 1  
    26    7   23 1  
    27    9   24 1  
    28   10   25 1  
    29   10   26 1  
    30   12   27 1  
    31   12   28 1  
    32   16   29 1  
    33   16   30 1  
