#      Rotatable Fragment
#      Build by yxyuan
#
# Name:          frag5-519-359/138278
# Creation time: Sat Jun  5 12:53:40 2010


@<TRIPOS>MOLECULE
frag5-519-359/138278
   22    23     1     1     1
SMALL
USER_CHARGES


@<TRIPOS>ATOM
      1 C17         0.9572   -1.0283    0.0831 C.ar       1 <1>        0.000
      2 C19         0.2622   -2.2293    0.1897 C.ar       1 <1>        0.000
      3 C20         0.2488    0.1647    0.1942 C.ar       1 <1>        0.000
      4 C21        -1.1255   -2.2264    0.3607 C.ar       1 <1>        0.000
      5 C22        -1.1370    0.1463    0.3737 C.ar       1 <1>        0.000
      6 C23        -1.8916   -1.0440    0.3978 C.ar       1 <1>        0.000
      7 C24        -3.3936   -1.0513    0.4513 C.ar       1 <1>        0.000
      8 C25        -4.1865   -0.2155   -0.3614 C.ar       1 <1>        0.000
      9 C26        -4.1203   -1.8938    1.3156 C.ar       1 <1>        0.000
     10 C27        -5.5537   -0.0339   -0.1406 C.ar       1 <1>        0.000
     11 C28        -5.4892   -1.7306    1.5484 C.ar       1 <1>        0.000
     12 C29        -6.2082   -0.7674    0.8454 C.ar       1 <1>        0.000
     13 H           2.0343   -1.0220   -0.0840 H.spc      1 <1>        0.000
     14 H           0.8014   -3.1753    0.1397 H.spc      1 <1>        0.000
     15 H           0.7769    1.1168    0.1410 H.spc      1 <1>        0.000
     16 H          -1.6381   -3.1821    0.4703 H.spc      1 <1>        0.000
     17 H          -1.6579    1.0953    0.5008 H.spc      1 <1>        0.000
     18 H          -3.7151    0.3084   -1.1929 H.spc      1 <1>        0.000
     19 H          -3.5953   -2.7037    1.8221 H.spc      1 <1>        0.000
     20 H          -6.1102    0.6846   -0.7423 H.spc      1 <1>        0.000
     21 H          -5.9947   -2.3588    2.2818 H.spc      1 <1>        0.000
     22 H          -7.2617   -0.5913    1.0625 H.spc      1 <1>        0.000
@<TRIPOS>BOND
     1    1    3 ar 
     2    4    6 ar 
     3    9   11 ar 
     4    7    8 ar 
     5   10   12 ar 
     6    7    9 ar 
     7    6    7 1  
     8   11   12 ar 
     9    3    5 ar 
    10    5    6 ar 
    11    2    4 ar 
    12    1    2 ar 
    13    8   10 ar 
    14    1   13 1  
    15    2   14 1  
    16    3   15 1  
    17    4   16 1  
    18    5   17 1  
    19    8   18 1  
    20    9   19 1  
    21   10   20 1  
    22   11   21 1  
    23   12   22 1  
# Name:          frag5-519-359/138278
# Creation time: Sat Jun  5 12:53:40 2010


@<TRIPOS>MOLECULE
frag5-519-359/138278
   22    23     1     1     1
SMALL
USER_CHARGES


@<TRIPOS>ATOM
      1 C17         0.9648   -1.0059    0.2743 C.ar       1 <1>        0.000
      2 C19         0.2386   -0.0264   -0.3968 C.ar       1 <1>        0.000
      3 C20         0.2725   -2.0416    0.8954 C.ar       1 <1>        0.000
      4 C21        -1.1588   -0.0670   -0.4032 C.ar       1 <1>        0.000
      5 C22        -1.1244   -2.0693    0.8698 C.ar       1 <1>        0.000
      6 C23        -1.9006   -1.0523    0.2789 C.ar       1 <1>        0.000
      7 C24        -3.4007   -1.0143    0.3780 C.ar       1 <1>        0.000
      8 C25        -4.1470    0.1604    0.1537 C.ar       1 <1>        0.000
      9 C26        -4.1703   -2.1485    0.7037 C.ar       1 <1>        0.000
     10 C27        -5.4984    0.2650    0.4905 C.ar       1 <1>        0.000
     11 C28        -5.5245   -2.0658    1.0406 C.ar       1 <1>        0.000
     12 C29        -6.1888   -0.8437    0.9730 C.ar       1 <1>        0.000
     13 H           2.0533   -0.9629    0.3127 H.spc      1 <1>        0.000
     14 H           0.7611    0.7750   -0.9191 H.spc      1 <1>        0.000
     15 H           0.8221   -2.8339    1.4036 H.spc      1 <1>        0.000
     16 H          -1.6991    0.6980   -0.9609 H.spc      1 <1>        0.000
     17 H          -1.6367   -2.9156    1.3275 H.spc      1 <1>        0.000
     18 H          -3.6510    1.0188   -0.2993 H.spc      1 <1>        0.000
     19 H          -3.6916   -3.1277    0.6926 H.spc      1 <1>        0.000
     20 H          -6.0145    1.2181    0.3752 H.spc      1 <1>        0.000
     21 H          -6.0617   -2.9599    1.3569 H.spc      1 <1>        0.000
     22 H          -7.2277   -0.7569    1.2912 H.spc      1 <1>        0.000
@<TRIPOS>BOND
     1    1    3 ar 
     2    4    6 ar 
     3    9   11 ar 
     4    7    8 ar 
     5   10   12 ar 
     6    7    9 ar 
     7    6    7 1  
     8   11   12 ar 
     9    3    5 ar 
    10    5    6 ar 
    11    2    4 ar 
    12    1    2 ar 
    13    8   10 ar 
    14    1   13 1  
    15    2   14 1  
    16    3   15 1  
    17    4   16 1  
    18    5   17 1  
    19    8   18 1  
    20    9   19 1  
    21   10   20 1  
    22   11   21 1  
    23   12   22 1  
# Name:          frag5-519-359/138278 -- energy: -0.932219
# Creation time: Sat Jun  5 12:53:40 2010


@<TRIPOS>MOLECULE
frag5-519-359/138278 -- energy: -0.932219
   22    23     1     1     1
SMALL
USER_CHARGES


@<TRIPOS>ATOM
      1 C17         0.9572   -1.0283    0.0831 C.ar       1 <1>        0.000
      2 C19         0.2622   -2.2293    0.1897 C.ar       1 <1>        0.000
      3 C20         0.2488    0.1647    0.1942 C.ar       1 <1>        0.000
      4 C21        -1.1255   -2.2264    0.3607 C.ar       1 <1>        0.000
      5 C22        -1.1370    0.1463    0.3737 C.ar       1 <1>        0.000
      6 C23        -1.8916   -1.0440    0.3978 C.ar       1 <1>        0.000
      7 C24        -3.3936   -1.0513    0.4513 C.ar       1 <1>        0.000
      8 C25        -4.1865   -0.2155   -0.3614 C.ar       1 <1>        0.000
      9 C26        -4.1203   -1.8938    1.3156 C.ar       1 <1>        0.000
     10 C27        -5.5537   -0.0339   -0.1406 C.ar       1 <1>        0.000
     11 C28        -5.4892   -1.7306    1.5484 C.ar       1 <1>        0.000
     12 C29        -6.2082   -0.7674    0.8454 C.ar       1 <1>        0.000
     13 H           2.0343   -1.0220   -0.0840 H.spc      1 <1>        0.000
     14 H           0.8014   -3.1753    0.1397 H.spc      1 <1>        0.000
     15 H           0.7769    1.1168    0.1410 H.spc      1 <1>        0.000
     16 H          -1.6381   -3.1821    0.4703 H.spc      1 <1>        0.000
     17 H          -1.6579    1.0953    0.5008 H.spc      1 <1>        0.000
     18 H          -3.7151    0.3084   -1.1929 H.spc      1 <1>        0.000
     19 H          -3.5953   -2.7037    1.8221 H.spc      1 <1>        0.000
     20 H          -6.1102    0.6846   -0.7423 H.spc      1 <1>        0.000
     21 H          -5.9947   -2.3588    2.2818 H.spc      1 <1>        0.000
     22 H          -7.2617   -0.5913    1.0625 H.spc      1 <1>        0.000
@<TRIPOS>BOND
     1    1    3 ar 
     2    4    6 ar 
     3    9   11 ar 
     4    7    8 ar 
     5   10   12 ar 
     6    7    9 ar 
     7    6    7 1  
     8   11   12 ar 
     9    3    5 ar 
    10    5    6 ar 
    11    2    4 ar 
    12    1    2 ar 
    13    8   10 ar 
    14    1   13 1  
    15    2   14 1  
    16    3   15 1  
    17    4   16 1  
    18    5   17 1  
    19    8   18 1  
    20    9   19 1  
    21   10   20 1  
    22   11   21 1  
    23   12   22 1  
# Name:          frag5-519-359/138278 -- energy: -0.738852
# Creation time: Sat Jun  5 12:53:40 2010


@<TRIPOS>MOLECULE
frag5-519-359/138278 -- energy: -0.738852
   22    23     1     1     1
SMALL
USER_CHARGES


@<TRIPOS>ATOM
      1 C17         0.9648   -1.0059    0.2743 C.ar       1 <1>        0.000
      2 C19         0.2386   -0.0264   -0.3968 C.ar       1 <1>        0.000
      3 C20         0.2725   -2.0416    0.8954 C.ar       1 <1>        0.000
      4 C21        -1.1588   -0.0670   -0.4032 C.ar       1 <1>        0.000
      5 C22        -1.1244   -2.0693    0.8698 C.ar       1 <1>        0.000
      6 C23        -1.9006   -1.0523    0.2789 C.ar       1 <1>        0.000
      7 C24        -3.4007   -1.0143    0.3780 C.ar       1 <1>        0.000
      8 C25        -4.1470    0.1604    0.1537 C.ar       1 <1>        0.000
      9 C26        -4.1703   -2.1485    0.7037 C.ar       1 <1>        0.000
     10 C27        -5.4984    0.2650    0.4905 C.ar       1 <1>        0.000
     11 C28        -5.5245   -2.0658    1.0406 C.ar       1 <1>        0.000
     12 C29        -6.1888   -0.8437    0.9730 C.ar       1 <1>        0.000
     13 H           2.0533   -0.9629    0.3127 H.spc      1 <1>        0.000
     14 H           0.7611    0.7750   -0.9191 H.spc      1 <1>        0.000
     15 H           0.8221   -2.8339    1.4036 H.spc      1 <1>        0.000
     16 H          -1.6991    0.6980   -0.9609 H.spc      1 <1>        0.000
     17 H          -1.6367   -2.9156    1.3275 H.spc      1 <1>        0.000
     18 H          -3.6510    1.0188   -0.2993 H.spc      1 <1>        0.000
     19 H          -3.6916   -3.1277    0.6926 H.spc      1 <1>        0.000
     20 H          -6.0145    1.2181    0.3752 H.spc      1 <1>        0.000
     21 H          -6.0617   -2.9599    1.3569 H.spc      1 <1>        0.000
     22 H          -7.2277   -0.7569    1.2912 H.spc      1 <1>        0.000
@<TRIPOS>BOND
     1    1    3 ar 
     2    4    6 ar 
     3    9   11 ar 
     4    7    8 ar 
     5   10   12 ar 
     6    7    9 ar 
     7    6    7 1  
     8   11   12 ar 
     9    3    5 ar 
    10    5    6 ar 
    11    2    4 ar 
    12    1    2 ar 
    13    8   10 ar 
    14    1   13 1  
    15    2   14 1  
    16    3   15 1  
    17    4   16 1  
    18    5   17 1  
    19    8   18 1  
    20    9   19 1  
    21   10   20 1  
    22   11   21 1  
    23   12   22 1  
