#      Rotatable Fragment
#      Build by yxyuan
#
# Name:          frag5-514-173/41815
# Creation time: Sat Jun  5 12:52:51 2010


@<TRIPOS>MOLECULE
frag5-514-173/41815
   19    20     1     1     1
SMALL
USER_CHARGES


@<TRIPOS>ATOM
      1 S1          1.9424    1.4925    1.4137 S.3        1 <1>        0.000
      2 C1          3.1157    2.8360    1.7213 C.3        1 <1>        0.000
      3 C2          4.0152    3.1050    0.5347 C.2        1 <1>        0.000
      4 C3          3.7241    2.7914   -0.7452 C.2        1 <1>        0.000
      5 N1          2.5306    2.2481   -1.0519 N.am       1 <1>        0.000
      6 C4          1.4054    2.1636   -0.1546 C.3        1 <1>        0.000
      7 C5          0.8148    1.2847   -1.3037 C.3        1 <1>        0.000
      8 C6          2.0384    1.6281   -2.1221 C.2        1 <1>        0.000
      9 O1          2.4172    1.3913   -3.2474 O.2        1 <1>        0.000
     10 C13         4.7020    2.9975   -1.8404 C.2        1 <1>        0.000
     11 O5          4.3625    3.5350   -2.8823 O.2        1 <1>        0.000
     12 O6          5.9646    2.5924   -1.6939 O.3        1 <1>        0.000
     13 H           3.7463    2.5452    2.5615 H.spc      1 <1>        0.000
     14 H           2.5437    3.7421    1.9212 H.spc      1 <1>        0.000
     15 H           4.9722    3.5895    0.7286 H.spc      1 <1>        0.000
     16 H           0.7795    2.9465    0.2736 H.spc      1 <1>        0.000
     17 H          -0.1895    1.4602   -1.6892 H.spc      1 <1>        0.000
     18 H           0.5248    0.2485   -1.1296 H.spc      1 <1>        0.000
     19 H           6.0728    2.1928   -0.8278 H.spc      1 <1>        0.000
@<TRIPOS>BOND
     1    5    6 1  
     2   10   11 2  
     3    5    8 am 
     4    6    7 1  
     5    8    9 2  
     6    4    5 1  
     7    7    8 1  
     8    4   10 1  
     9    1    2 1  
    10    1    6 1  
    11    2    3 1  
    12    3    4 2  
    13   10   12 1  
    14    2   13 1  
    15    2   14 1  
    16    3   15 1  
    17    6   16 1  
    18    7   17 1  
    19    7   18 1  
    20   12   19 1  
# Name:          frag5-514-173/41815
# Creation time: Sat Jun  5 12:52:51 2010


@<TRIPOS>MOLECULE
frag5-514-173/41815
   19    20     1     1     1
SMALL
USER_CHARGES


@<TRIPOS>ATOM
      1 S1          1.9237    1.5417    1.4278 S.3        1 <1>        0.000
      2 C1          3.0585    2.9152    1.7135 C.3        1 <1>        0.000
      3 C2          3.9781    3.1725    0.5408 C.2        1 <1>        0.000
      4 C3          3.7200    2.8099   -0.7373 C.2        1 <1>        0.000
      5 N1          2.5482    2.2288   -1.0488 N.am       1 <1>        0.000
      6 C4          1.4066    2.1373   -0.1713 C.3        1 <1>        0.000
      7 C5          0.8625    1.2176   -1.3037 C.3        1 <1>        0.000
      8 C6          2.0952    1.5597   -2.1108 C.2        1 <1>        0.000
      9 O1          2.5014    1.2961   -3.2168 O.2        1 <1>        0.000
     10 C13         4.7186    3.0040   -1.8155 C.2        1 <1>        0.000
     11 O5          5.9058    3.1037   -1.5611 O.2        1 <1>        0.000
     12 O6          4.3142    3.0790   -3.0885 O.3        1 <1>        0.000
     13 H           3.6785    2.6615    2.5733 H.spc      1 <1>        0.000
     14 H           2.4612    3.8132    1.8715 H.spc      1 <1>        0.000
     15 H           4.9178    3.6878    0.7395 H.spc      1 <1>        0.000
     16 H           0.7487    2.9117    0.2231 H.spc      1 <1>        0.000
     17 H          -0.1363    1.3641   -1.7148 H.spc      1 <1>        0.000
     18 H           0.5921    0.1808   -1.1038 H.spc      1 <1>        0.000
     19 H           3.3597    2.9835   -3.1260 H.spc      1 <1>        0.000
@<TRIPOS>BOND
     1    5    6 1  
     2   10   11 2  
     3    5    8 am 
     4    6    7 1  
     5    8    9 2  
     6    4    5 1  
     7    7    8 1  
     8    4   10 1  
     9    1    2 1  
    10    1    6 1  
    11    2    3 1  
    12    3    4 2  
    13   10   12 1  
    14    2   13 1  
    15    2   14 1  
    16    3   15 1  
    17    6   16 1  
    18    7   17 1  
    19    7   18 1  
    20   12   19 1  
# Name:          frag5-514-173/41815
# Creation time: Sat Jun  5 12:52:51 2010


@<TRIPOS>MOLECULE
frag5-514-173/41815
   19    20     1     1     1
SMALL
USER_CHARGES


@<TRIPOS>ATOM
      1 S1          1.9510    1.5677    1.4443 S.3        1 <1>        0.000
      2 C1          3.0156    3.0038    1.6897 C.3        1 <1>        0.000
      3 C2          3.9254    3.2701    0.5110 C.2        1 <1>        0.000
      4 C3          3.6898    2.8561   -0.7550 C.2        1 <1>        0.000
      5 N1          2.5495    2.2078   -1.0512 N.am       1 <1>        0.000
      6 C4          1.4101    2.0878   -0.1731 C.3        1 <1>        0.000
      7 C5          0.9158    1.1080   -1.2777 C.3        1 <1>        0.000
      8 C6          2.1323    1.4859   -2.0930 C.2        1 <1>        0.000
      9 O1          2.5559    1.2092   -3.1890 O.2        1 <1>        0.000
     10 C13         4.6812    3.0672   -1.8381 C.2        1 <1>        0.000
     11 O5          5.1351    4.1760   -2.0593 O.2        1 <1>        0.000
     12 O6          5.0711    2.0258   -2.5804 O.3        1 <1>        0.000
     13 H           3.6445    2.8076    2.5581 H.spc      1 <1>        0.000
     14 H           2.3742    3.8756    1.8189 H.spc      1 <1>        0.000
     15 H           4.8378    3.8372    0.6953 H.spc      1 <1>        0.000
     16 H           0.7135    2.8406    0.1958 H.spc      1 <1>        0.000
     17 H          -0.0878    1.1921   -1.6947 H.spc      1 <1>        0.000
     18 H           0.6966    0.0656   -1.0464 H.spc      1 <1>        0.000
     19 H           4.6225    1.2328   -2.2779 H.spc      1 <1>        0.000
@<TRIPOS>BOND
     1    5    6 1  
     2   10   11 2  
     3    5    8 am 
     4    6    7 1  
     5    8    9 2  
     6    4    5 1  
     7    7    8 1  
     8    4   10 1  
     9    1    2 1  
    10    1    6 1  
    11    2    3 1  
    12    3    4 2  
    13   10   12 1  
    14    2   13 1  
    15    2   14 1  
    16    3   15 1  
    17    6   16 1  
    18    7   17 1  
    19    7   18 1  
    20   12   19 1  
# Name:          frag5-514-173/41815 -- energy: -2.362370
# Creation time: Sat Jun  5 12:52:51 2010


@<TRIPOS>MOLECULE
frag5-514-173/41815 -- energy: -2.362370
   19    20     1     1     1
SMALL
USER_CHARGES


@<TRIPOS>ATOM
      1 S1          1.9424    1.4925    1.4137 S.3        1 <1>        0.000
      2 C1          3.1157    2.8360    1.7213 C.3        1 <1>        0.000
      3 C2          4.0152    3.1050    0.5347 C.2        1 <1>        0.000
      4 C3          3.7241    2.7914   -0.7452 C.2        1 <1>        0.000
      5 N1          2.5306    2.2481   -1.0519 N.am       1 <1>        0.000
      6 C4          1.4054    2.1636   -0.1546 C.3        1 <1>        0.000
      7 C5          0.8148    1.2847   -1.3037 C.3        1 <1>        0.000
      8 C6          2.0384    1.6281   -2.1221 C.2        1 <1>        0.000
      9 O1          2.4172    1.3913   -3.2474 O.2        1 <1>        0.000
     10 C13         4.7020    2.9975   -1.8404 C.2        1 <1>        0.000
     11 O5          4.3625    3.5350   -2.8823 O.2        1 <1>        0.000
     12 O6          5.9646    2.5924   -1.6939 O.3        1 <1>        0.000
     13 H           3.7463    2.5452    2.5615 H.spc      1 <1>        0.000
     14 H           2.5437    3.7421    1.9212 H.spc      1 <1>        0.000
     15 H           4.9722    3.5895    0.7286 H.spc      1 <1>        0.000
     16 H           0.7795    2.9465    0.2736 H.spc      1 <1>        0.000
     17 H          -0.1895    1.4602   -1.6892 H.spc      1 <1>        0.000
     18 H           0.5248    0.2485   -1.1296 H.spc      1 <1>        0.000
     19 H           6.0728    2.1928   -0.8278 H.spc      1 <1>        0.000
@<TRIPOS>BOND
     1    5    6 1  
     2   10   11 2  
     3    5    8 am 
     4    6    7 1  
     5    8    9 2  
     6    4    5 1  
     7    7    8 1  
     8    4   10 1  
     9    1    2 1  
    10    1    6 1  
    11    2    3 1  
    12    3    4 2  
    13   10   12 1  
    14    2   13 1  
    15    2   14 1  
    16    3   15 1  
    17    6   16 1  
    18    7   17 1  
    19    7   18 1  
    20   12   19 1  
# Name:          frag5-514-173/41815 -- energy: -1.963090
# Creation time: Sat Jun  5 12:52:51 2010


@<TRIPOS>MOLECULE
frag5-514-173/41815 -- energy: -1.963090
   19    20     1     1     1
SMALL
USER_CHARGES


@<TRIPOS>ATOM
      1 S1          1.9510    1.5677    1.4443 S.3        1 <1>        0.000
      2 C1          3.0156    3.0038    1.6897 C.3        1 <1>        0.000
      3 C2          3.9254    3.2701    0.5110 C.2        1 <1>        0.000
      4 C3          3.6898    2.8561   -0.7550 C.2        1 <1>        0.000
      5 N1          2.5495    2.2078   -1.0512 N.am       1 <1>        0.000
      6 C4          1.4101    2.0878   -0.1731 C.3        1 <1>        0.000
      7 C5          0.9158    1.1080   -1.2777 C.3        1 <1>        0.000
      8 C6          2.1323    1.4859   -2.0930 C.2        1 <1>        0.000
      9 O1          2.5559    1.2092   -3.1890 O.2        1 <1>        0.000
     10 C13         4.6812    3.0672   -1.8381 C.2        1 <1>        0.000
     11 O5          5.1351    4.1760   -2.0593 O.2        1 <1>        0.000
     12 O6          5.0711    2.0258   -2.5804 O.3        1 <1>        0.000
     13 H           3.6445    2.8076    2.5581 H.spc      1 <1>        0.000
     14 H           2.3742    3.8756    1.8189 H.spc      1 <1>        0.000
     15 H           4.8378    3.8372    0.6953 H.spc      1 <1>        0.000
     16 H           0.7135    2.8406    0.1958 H.spc      1 <1>        0.000
     17 H          -0.0878    1.1921   -1.6947 H.spc      1 <1>        0.000
     18 H           0.6966    0.0656   -1.0464 H.spc      1 <1>        0.000
     19 H           4.6225    1.2328   -2.2779 H.spc      1 <1>        0.000
@<TRIPOS>BOND
     1    5    6 1  
     2   10   11 2  
     3    5    8 am 
     4    6    7 1  
     5    8    9 2  
     6    4    5 1  
     7    7    8 1  
     8    4   10 1  
     9    1    2 1  
    10    1    6 1  
    11    2    3 1  
    12    3    4 2  
    13   10   12 1  
    14    2   13 1  
    15    2   14 1  
    16    3   15 1  
    17    6   16 1  
    18    7   17 1  
    19    7   18 1  
    20   12   19 1  
