#      Rotatable Fragment
#      Build by yxyuan
#
# Name:          frag3-150-25/96164
# Creation time: Sat Jun  5 12:53:06 2010


@<TRIPOS>MOLECULE
frag3-150-25/96164
    7     6     1     1     1
SMALL
USER_CHARGES


@<TRIPOS>ATOM
      1 O3          1.1712   -0.4775    0.0944 O.3        1 <1>        0.000
      2 C11         0.1441    0.3808    0.1857 C.2        1 <1>        0.000
      3 N3         -0.6556   -0.1605    1.1083 N.am       1 <1>        0.000
      4 S1          0.0462    1.7390   -0.7021 S.2        1 <1>        0.000
      5 H           1.0315   -1.2077    0.7017 H.spc      1 <1>        0.000
      6 H          -1.5239    0.3073    1.3685 H.spc      1 <1>        0.000
      7 H          -0.3981   -1.0417    1.5528 H.spc      1 <1>        0.000
@<TRIPOS>BOND
     1    2    3 am 
     2    1    2 1  
     3    2    4 2  
     4    1    5 1  
     5    3    6 1  
     6    3    7 1  
