#      Rotatable Fragment
#      Build by yxyuan
#
# Name:          frag4-346-134/48856
# Creation time: Sat Jun  5 12:53:02 2010


@<TRIPOS>MOLECULE
frag4-346-134/48856
   19    20     1     1     1
SMALL
USER_CHARGES


@<TRIPOS>ATOM
      1 C3          1.4475   -0.0803   -0.0946 C.3        1 <1>        0.000
      2 C4          2.2705   -1.2185    0.5581 C.3        1 <1>        0.000
      3 C5          3.0805   -1.7229   -0.6171 C.ar       1 <1>        0.000
      4 C6          2.5059   -1.3122   -1.8267 C.ar       1 <1>        0.000
      5 C7          3.0895   -1.6607   -3.0439 C.ar       1 <1>        0.000
      6 C8          4.2562   -2.4276   -3.0376 C.ar       1 <1>        0.000
      7 C9          4.8313   -2.8387   -1.8269 C.ar       1 <1>        0.000
      8 C10         4.2462   -2.4875   -0.6089 C.ar       1 <1>        0.000
      9 C11         1.2573   -0.4942   -1.5750 C.3        1 <1>        0.000
     10 H           1.9609    0.8778   -0.0131 H.spc      1 <1>        0.000
     11 H           0.4888    0.0539    0.4064 H.spc      1 <1>        0.000
     12 H           1.6551   -1.9879    1.0244 H.spc      1 <1>        0.000
     13 H           2.8819   -0.8869    1.3974 H.spc      1 <1>        0.000
     14 H           2.6424   -1.3398   -3.9848 H.spc      1 <1>        0.000
     15 H           4.7235   -2.7089   -3.9813 H.spc      1 <1>        0.000
     16 H           5.7423   -3.4371   -1.8366 H.spc      1 <1>        0.000
     17 H           4.6934   -2.8058    0.3328 H.spc      1 <1>        0.000
     18 H           0.3336   -1.0432   -1.7578 H.spc      1 <1>        0.000
     19 H           1.1481    0.3525   -2.2527 H.spc      1 <1>        0.000
@<TRIPOS>BOND
     1    3    4 ar 
     2    5    6 ar 
     3    7    8 ar 
     4    6    7 ar 
     5    3    8 ar 
     6    4    9 1  
     7    4    5 ar 
     8    1    2 1  
     9    1    9 1  
    10    2    3 1  
    11    1   10 1  
    12    1   11 1  
    13    2   12 1  
    14    2   13 1  
    15    5   14 1  
    16    6   15 1  
    17    7   16 1  
    18    8   17 1  
    19    9   18 1  
    20    9   19 1  
# Name:          frag4-346-134/48856 -- energy: -1.073772
# Creation time: Sat Jun  5 12:53:02 2010


@<TRIPOS>MOLECULE
frag4-346-134/48856 -- energy: -1.073772
   19    20     1     1     1
SMALL
USER_CHARGES


@<TRIPOS>ATOM
      1 C3          1.4475   -0.0803   -0.0946 C.3        1 <1>        0.000
      2 C4          2.2705   -1.2185    0.5581 C.3        1 <1>        0.000
      3 C5          3.0805   -1.7229   -0.6171 C.ar       1 <1>        0.000
      4 C6          2.5059   -1.3122   -1.8267 C.ar       1 <1>        0.000
      5 C7          3.0895   -1.6607   -3.0439 C.ar       1 <1>        0.000
      6 C8          4.2562   -2.4276   -3.0376 C.ar       1 <1>        0.000
      7 C9          4.8313   -2.8387   -1.8269 C.ar       1 <1>        0.000
      8 C10         4.2462   -2.4875   -0.6089 C.ar       1 <1>        0.000
      9 C11         1.2573   -0.4942   -1.5750 C.3        1 <1>        0.000
     10 H           1.9609    0.8778   -0.0131 H.spc      1 <1>        0.000
     11 H           0.4888    0.0539    0.4064 H.spc      1 <1>        0.000
     12 H           1.6551   -1.9879    1.0244 H.spc      1 <1>        0.000
     13 H           2.8819   -0.8869    1.3974 H.spc      1 <1>        0.000
     14 H           2.6424   -1.3398   -3.9848 H.spc      1 <1>        0.000
     15 H           4.7235   -2.7089   -3.9813 H.spc      1 <1>        0.000
     16 H           5.7423   -3.4371   -1.8366 H.spc      1 <1>        0.000
     17 H           4.6934   -2.8058    0.3328 H.spc      1 <1>        0.000
     18 H           0.3336   -1.0432   -1.7578 H.spc      1 <1>        0.000
     19 H           1.1481    0.3525   -2.2527 H.spc      1 <1>        0.000
@<TRIPOS>BOND
     1    3    4 ar 
     2    5    6 ar 
     3    7    8 ar 
     4    6    7 ar 
     5    3    8 ar 
     6    4    9 1  
     7    4    5 ar 
     8    1    2 1  
     9    1    9 1  
    10    2    3 1  
    11    1   10 1  
    12    1   11 1  
    13    2   12 1  
    14    2   13 1  
    15    5   14 1  
    16    6   15 1  
    17    7   16 1  
    18    8   17 1  
    19    9   18 1  
    20    9   19 1  
