#      Rotatable Fragment
#      Build by yxyuan
#
# Name:          frag3-168-10/31924
# Creation time: Sat Jun  5 12:52:06 2010


@<TRIPOS>MOLECULE
frag3-168-10/31924
   10     9     1     1     1
SMALL
USER_CHARGES


@<TRIPOS>ATOM
      1 C15         1.8260   -0.1948    0.0115 C.2        1 <1>        0.000
      2 O3          2.1331   -0.8386    1.0011 O.2        1 <1>        0.000
      3 N3          0.5710    0.2000   -0.3336 N.am       1 <1>        0.000
      4 N4         -0.5487   -0.0061    0.4445 N.am       1 <1>        0.000
      5 C16        -1.8139    0.3131    0.0603 C.2        1 <1>        0.000
      6 O4         -2.1233    1.0645   -0.8507 O.2        1 <1>        0.000
      7 H           2.6349    0.0915   -0.6606 H.spc      1 <1>        0.000
      8 H           0.4502    0.6796   -1.2257 H.spc      1 <1>        0.000
      9 H          -0.4201   -0.4241    1.3660 H.spc      1 <1>        0.000
     10 H          -2.6294   -0.1459    0.6192 H.spc      1 <1>        0.000
@<TRIPOS>BOND
     1    1    2 2  
     2    1    3 am 
     3    3    4 1  
     4    4    5 am 
     5    5    6 2  
     6    1    7 1  
     7    3    8 1  
     8    4    9 1  
     9    5   10 1  
# Name:          frag3-168-10/31924
# Creation time: Sat Jun  5 12:52:06 2010


@<TRIPOS>MOLECULE
frag3-168-10/31924
   10     9     1     1     1
SMALL
USER_CHARGES


@<TRIPOS>ATOM
      1 C15         1.4578   -0.4935    0.0639 C.2        1 <1>        0.000
      2 O3          2.4809   -1.0211    0.4619 O.2        1 <1>        0.000
      3 N3          0.6020    0.2465    0.8199 N.am       1 <1>        0.000
      4 N4         -0.5378    0.8647    0.3137 N.am       1 <1>        0.000
      5 C16        -1.4774    0.2173   -0.4272 C.2        1 <1>        0.000
      6 O4         -2.4813    0.7241   -0.8992 O.2        1 <1>        0.000
      7 H           1.2061   -0.6255   -0.9884 H.spc      1 <1>        0.000
      8 H           0.8072    0.3542    1.8132 H.spc      1 <1>        0.000
      9 H          -0.6760    1.8563    0.5087 H.spc      1 <1>        0.000
     10 H          -1.3195   -0.8447   -0.6149 H.spc      1 <1>        0.000
@<TRIPOS>BOND
     1    1    2 2  
     2    1    3 am 
     3    3    4 1  
     4    4    5 am 
     5    5    6 2  
     6    1    7 1  
     7    3    8 1  
     8    4    9 1  
     9    5   10 1  
# Name:          frag3-168-10/31924
# Creation time: Sat Jun  5 12:52:06 2010


@<TRIPOS>MOLECULE
frag3-168-10/31924
   10     9     1     1     1
SMALL
USER_CHARGES


@<TRIPOS>ATOM
      1 C15         1.9207   -0.3199    0.1337 C.2        1 <1>        0.000
      2 O3          1.9214   -1.0299    1.1184 O.2        1 <1>        0.000
      3 N3          0.8523    0.3582   -0.3702 N.am       1 <1>        0.000
      4 N4         -0.4291    0.2774    0.1488 N.am       1 <1>        0.000
      5 C16        -1.5323    0.7529   -0.4943 C.2        1 <1>        0.000
      6 O4         -2.6889    0.4993   -0.2034 O.2        1 <1>        0.000
      7 H           2.8662   -0.2150   -0.3985 H.spc      1 <1>        0.000
      8 H           1.0052    0.9617   -1.1782 H.spc      1 <1>        0.000
      9 H          -0.5537   -0.1614    1.0611 H.spc      1 <1>        0.000
     10 H          -1.3665    1.4175   -1.3422 H.spc      1 <1>        0.000
@<TRIPOS>BOND
     1    1    2 2  
     2    1    3 am 
     3    3    4 1  
     4    4    5 am 
     5    5    6 2  
     6    1    7 1  
     7    3    8 1  
     8    4    9 1  
     9    5   10 1  
# Name:          frag3-168-10/31924
# Creation time: Sat Jun  5 12:52:06 2010


@<TRIPOS>MOLECULE
frag3-168-10/31924
   10     9     1     1     1
SMALL
USER_CHARGES


@<TRIPOS>ATOM
      1 C15         1.8015   -0.1391    0.4011 C.2        1 <1>        0.000
      2 O3          2.6084   -0.9439    0.8292 O.2        1 <1>        0.000
      3 N3          0.4991   -0.4096    0.1034 N.am       1 <1>        0.000
      4 N4         -0.4513    0.5841   -0.1361 N.am       1 <1>        0.000
      5 C16        -1.7840    0.3241   -0.2485 C.2        1 <1>        0.000
      6 O4         -2.6293    1.1225   -0.6161 O.2        1 <1>        0.000
      7 H           2.1491    0.8818    0.2428 H.spc      1 <1>        0.000
      8 H           0.2050   -1.3850    0.0533 H.spc      1 <1>        0.000
      9 H          -0.1337    1.5487   -0.2313 H.spc      1 <1>        0.000
     10 H          -2.1221   -0.6791    0.0113 H.spc      1 <1>        0.000
@<TRIPOS>BOND
     1    1    2 2  
     2    1    3 am 
     3    3    4 1  
     4    4    5 am 
     5    5    6 2  
     6    1    7 1  
     7    3    8 1  
     8    4    9 1  
     9    5   10 1  
# Name:          frag3-168-10/31924
# Creation time: Sat Jun  5 12:52:06 2010


@<TRIPOS>MOLECULE
frag3-168-10/31924
   10     9     1     1     1
SMALL
USER_CHARGES


@<TRIPOS>ATOM
      1 C15        -1.6583    0.3075    0.1126 C.2        1 <1>        0.000
      2 O3         -2.0378    0.3370   -1.0413 O.2        1 <1>        0.000
      3 N3         -0.4563    0.6475    0.6491 N.am       1 <1>        0.000
      4 N4          0.7286    0.7357   -0.0085 N.am       1 <1>        0.000
      5 C16         1.7345   -0.1770    0.0899 C.2        1 <1>        0.000
      6 O4          1.7335   -1.3126    0.5312 O.2        1 <1>        0.000
      7 H          -2.3978   -0.0473    0.8304 H.spc      1 <1>        0.000
      8 H          -0.4431    0.8577    1.6471 H.spc      1 <1>        0.000
      9 H           0.8752    1.5405   -0.6177 H.spc      1 <1>        0.000
     10 H           2.6982    0.1643   -0.2880 H.spc      1 <1>        0.000
@<TRIPOS>BOND
     1    1    2 2  
     2    1    3 am 
     3    3    4 1  
     4    4    5 am 
     5    5    6 2  
     6    1    7 1  
     7    3    8 1  
     8    4    9 1  
     9    5   10 1  
# Name:          frag3-168-10/31924
# Creation time: Sat Jun  5 12:52:06 2010


@<TRIPOS>MOLECULE
frag3-168-10/31924
   10     9     1     1     1
SMALL
USER_CHARGES


@<TRIPOS>ATOM
      1 C15        -1.5236    0.3258    0.0951 C.2        1 <1>        0.000
      2 O3         -1.1945    1.5000    0.0075 O.2        1 <1>        0.000
      3 N3         -0.7868   -0.7918   -0.2256 N.am       1 <1>        0.000
      4 N4          0.5034   -0.7389   -0.6696 N.am       1 <1>        0.000
      5 C16         1.5118   -0.0691   -0.0181 C.2        1 <1>        0.000
      6 O4          1.5339    0.3120    1.1436 O.2        1 <1>        0.000
      7 H          -2.5281    0.1404    0.4755 H.spc      1 <1>        0.000
      8 H          -1.2272   -1.7065   -0.1265 H.spc      1 <1>        0.000
      9 H           0.7327   -1.2253   -1.5363 H.spc      1 <1>        0.000
     10 H           2.4009    0.1491   -0.6098 H.spc      1 <1>        0.000
@<TRIPOS>BOND
     1    1    2 2  
     2    1    3 am 
     3    3    4 1  
     4    4    5 am 
     5    5    6 2  
     6    1    7 1  
     7    3    8 1  
     8    4    9 1  
     9    5   10 1  
# Name:          frag3-168-10/31924
# Creation time: Sat Jun  5 12:52:06 2010


@<TRIPOS>MOLECULE
frag3-168-10/31924
   10     9     1     1     1
SMALL
USER_CHARGES


@<TRIPOS>ATOM
      1 C15        -1.2162    0.4412    0.1818 C.2        1 <1>        0.000
      2 O3         -2.3937    0.1322    0.0175 O.2        1 <1>        0.000
      3 N3         -0.2479    0.7480   -0.7281 N.am       1 <1>        0.000
      4 N4          1.1064    0.5849   -0.5543 N.am       1 <1>        0.000
      5 C16         1.6576   -0.3019    0.3090 C.2        1 <1>        0.000
      6 O4          1.1380   -1.0663    1.1071 O.2        1 <1>        0.000
      7 H          -0.8934    0.4757    1.2223 H.spc      1 <1>        0.000
      8 H          -0.5568    1.1342   -1.6202 H.spc      1 <1>        0.000
      9 H           1.7341    1.1669   -1.1090 H.spc      1 <1>        0.000
     10 H           2.7467   -0.3393    0.2876 H.spc      1 <1>        0.000
@<TRIPOS>BOND
     1    1    2 2  
     2    1    3 am 
     3    3    4 1  
     4    4    5 am 
     5    5    6 2  
     6    1    7 1  
     7    3    8 1  
     8    4    9 1  
     9    5   10 1  
# Name:          frag3-168-10/31924 -- energy: -0.537996
# Creation time: Sat Jun  5 12:52:06 2010


@<TRIPOS>MOLECULE
frag3-168-10/31924 -- energy: -0.537996
   10     9     1     1     1
SMALL
USER_CHARGES


@<TRIPOS>ATOM
      1 C15         1.8260   -0.1948    0.0115 C.2        1 <1>        0.000
      2 O3          2.1331   -0.8386    1.0011 O.2        1 <1>        0.000
      3 N3          0.5710    0.2000   -0.3336 N.am       1 <1>        0.000
      4 N4         -0.5487   -0.0061    0.4445 N.am       1 <1>        0.000
      5 C16        -1.8139    0.3131    0.0603 C.2        1 <1>        0.000
      6 O4         -2.1233    1.0645   -0.8507 O.2        1 <1>        0.000
      7 H           2.6349    0.0915   -0.6606 H.spc      1 <1>        0.000
      8 H           0.4502    0.6796   -1.2257 H.spc      1 <1>        0.000
      9 H          -0.4201   -0.4241    1.3660 H.spc      1 <1>        0.000
     10 H          -2.6294   -0.1459    0.6192 H.spc      1 <1>        0.000
@<TRIPOS>BOND
     1    1    2 2  
     2    1    3 am 
     3    3    4 1  
     4    4    5 am 
     5    5    6 2  
     6    1    7 1  
     7    3    8 1  
     8    4    9 1  
     9    5   10 1  
# Name:          frag3-168-10/31924 -- energy: -0.606325
# Creation time: Sat Jun  5 12:52:06 2010


@<TRIPOS>MOLECULE
frag3-168-10/31924 -- energy: -0.606325
   10     9     1     1     1
SMALL
USER_CHARGES


@<TRIPOS>ATOM
      1 C15         1.4578   -0.4935    0.0639 C.2        1 <1>        0.000
      2 O3          2.4809   -1.0211    0.4619 O.2        1 <1>        0.000
      3 N3          0.6020    0.2465    0.8199 N.am       1 <1>        0.000
      4 N4         -0.5378    0.8647    0.3137 N.am       1 <1>        0.000
      5 C16        -1.4774    0.2173   -0.4272 C.2        1 <1>        0.000
      6 O4         -2.4813    0.7241   -0.8992 O.2        1 <1>        0.000
      7 H           1.2061   -0.6255   -0.9884 H.spc      1 <1>        0.000
      8 H           0.8072    0.3542    1.8132 H.spc      1 <1>        0.000
      9 H          -0.6760    1.8563    0.5087 H.spc      1 <1>        0.000
     10 H          -1.3195   -0.8447   -0.6149 H.spc      1 <1>        0.000
@<TRIPOS>BOND
     1    1    2 2  
     2    1    3 am 
     3    3    4 1  
     4    4    5 am 
     5    5    6 2  
     6    1    7 1  
     7    3    8 1  
     8    4    9 1  
     9    5   10 1  
# Name:          frag3-168-10/31924 -- energy: -0.523015
# Creation time: Sat Jun  5 12:52:06 2010


@<TRIPOS>MOLECULE
frag3-168-10/31924 -- energy: -0.523015
   10     9     1     1     1
SMALL
USER_CHARGES


@<TRIPOS>ATOM
      1 C15         1.9207   -0.3199    0.1337 C.2        1 <1>        0.000
      2 O3          1.9214   -1.0299    1.1184 O.2        1 <1>        0.000
      3 N3          0.8523    0.3582   -0.3702 N.am       1 <1>        0.000
      4 N4         -0.4291    0.2774    0.1488 N.am       1 <1>        0.000
      5 C16        -1.5323    0.7529   -0.4943 C.2        1 <1>        0.000
      6 O4         -2.6889    0.4993   -0.2034 O.2        1 <1>        0.000
      7 H           2.8662   -0.2150   -0.3985 H.spc      1 <1>        0.000
      8 H           1.0052    0.9617   -1.1782 H.spc      1 <1>        0.000
      9 H          -0.5537   -0.1614    1.0611 H.spc      1 <1>        0.000
     10 H          -1.3665    1.4175   -1.3422 H.spc      1 <1>        0.000
@<TRIPOS>BOND
     1    1    2 2  
     2    1    3 am 
     3    3    4 1  
     4    4    5 am 
     5    5    6 2  
     6    1    7 1  
     7    3    8 1  
     8    4    9 1  
     9    5   10 1  
# Name:          frag3-168-10/31924 -- energy: -0.500528
# Creation time: Sat Jun  5 12:52:06 2010


@<TRIPOS>MOLECULE
frag3-168-10/31924 -- energy: -0.500528
   10     9     1     1     1
SMALL
USER_CHARGES


@<TRIPOS>ATOM
      1 C15         1.8015   -0.1391    0.4011 C.2        1 <1>        0.000
      2 O3          2.6084   -0.9439    0.8292 O.2        1 <1>        0.000
      3 N3          0.4991   -0.4096    0.1034 N.am       1 <1>        0.000
      4 N4         -0.4513    0.5841   -0.1361 N.am       1 <1>        0.000
      5 C16        -1.7840    0.3241   -0.2485 C.2        1 <1>        0.000
      6 O4         -2.6293    1.1225   -0.6161 O.2        1 <1>        0.000
      7 H           2.1491    0.8818    0.2428 H.spc      1 <1>        0.000
      8 H           0.2050   -1.3850    0.0533 H.spc      1 <1>        0.000
      9 H          -0.1337    1.5487   -0.2313 H.spc      1 <1>        0.000
     10 H          -2.1221   -0.6791    0.0113 H.spc      1 <1>        0.000
@<TRIPOS>BOND
     1    1    2 2  
     2    1    3 am 
     3    3    4 1  
     4    4    5 am 
     5    5    6 2  
     6    1    7 1  
     7    3    8 1  
     8    4    9 1  
     9    5   10 1  
# Name:          frag3-168-10/31924 -- energy: -0.628051
# Creation time: Sat Jun  5 12:52:06 2010


@<TRIPOS>MOLECULE
frag3-168-10/31924 -- energy: -0.628051
   10     9     1     1     1
SMALL
USER_CHARGES


@<TRIPOS>ATOM
      1 C15        -1.6583    0.3075    0.1126 C.2        1 <1>        0.000
      2 O3         -2.0378    0.3370   -1.0413 O.2        1 <1>        0.000
      3 N3         -0.4563    0.6475    0.6491 N.am       1 <1>        0.000
      4 N4          0.7286    0.7357   -0.0085 N.am       1 <1>        0.000
      5 C16         1.7345   -0.1770    0.0899 C.2        1 <1>        0.000
      6 O4          1.7335   -1.3126    0.5312 O.2        1 <1>        0.000
      7 H          -2.3978   -0.0473    0.8304 H.spc      1 <1>        0.000
      8 H          -0.4431    0.8577    1.6471 H.spc      1 <1>        0.000
      9 H           0.8752    1.5405   -0.6177 H.spc      1 <1>        0.000
     10 H           2.6982    0.1643   -0.2880 H.spc      1 <1>        0.000
@<TRIPOS>BOND
     1    1    2 2  
     2    1    3 am 
     3    3    4 1  
     4    4    5 am 
     5    5    6 2  
     6    1    7 1  
     7    3    8 1  
     8    4    9 1  
     9    5   10 1  
# Name:          frag3-168-10/31924 -- energy: -0.731395
# Creation time: Sat Jun  5 12:52:06 2010


@<TRIPOS>MOLECULE
frag3-168-10/31924 -- energy: -0.731395
   10     9     1     1     1
SMALL
USER_CHARGES


@<TRIPOS>ATOM
      1 C15        -1.5236    0.3258    0.0951 C.2        1 <1>        0.000
      2 O3         -1.1945    1.5000    0.0075 O.2        1 <1>        0.000
      3 N3         -0.7868   -0.7918   -0.2256 N.am       1 <1>        0.000
      4 N4          0.5034   -0.7389   -0.6696 N.am       1 <1>        0.000
      5 C16         1.5118   -0.0691   -0.0181 C.2        1 <1>        0.000
      6 O4          1.5339    0.3120    1.1436 O.2        1 <1>        0.000
      7 H          -2.5281    0.1404    0.4755 H.spc      1 <1>        0.000
      8 H          -1.2272   -1.7065   -0.1265 H.spc      1 <1>        0.000
      9 H           0.7327   -1.2253   -1.5363 H.spc      1 <1>        0.000
     10 H           2.4009    0.1491   -0.6098 H.spc      1 <1>        0.000
@<TRIPOS>BOND
     1    1    2 2  
     2    1    3 am 
     3    3    4 1  
     4    4    5 am 
     5    5    6 2  
     6    1    7 1  
     7    3    8 1  
     8    4    9 1  
     9    5   10 1  
# Name:          frag3-168-10/31924 -- energy: -0.579361
# Creation time: Sat Jun  5 12:52:06 2010


@<TRIPOS>MOLECULE
frag3-168-10/31924 -- energy: -0.579361
   10     9     1     1     1
SMALL
USER_CHARGES


@<TRIPOS>ATOM
      1 C15        -1.2162    0.4412    0.1818 C.2        1 <1>        0.000
      2 O3         -2.3937    0.1322    0.0175 O.2        1 <1>        0.000
      3 N3         -0.2479    0.7480   -0.7281 N.am       1 <1>        0.000
      4 N4          1.1064    0.5849   -0.5543 N.am       1 <1>        0.000
      5 C16         1.6576   -0.3019    0.3090 C.2        1 <1>        0.000
      6 O4          1.1380   -1.0663    1.1071 O.2        1 <1>        0.000
      7 H          -0.8934    0.4757    1.2223 H.spc      1 <1>        0.000
      8 H          -0.5568    1.1342   -1.6202 H.spc      1 <1>        0.000
      9 H           1.7341    1.1669   -1.1090 H.spc      1 <1>        0.000
     10 H           2.7467   -0.3393    0.2876 H.spc      1 <1>        0.000
@<TRIPOS>BOND
     1    1    2 2  
     2    1    3 am 
     3    3    4 1  
     4    4    5 am 
     5    5    6 2  
     6    1    7 1  
     7    3    8 1  
     8    4    9 1  
     9    5   10 1  
