#      Rotatable Fragment
#      Build by yxyuan
#
# Name:          frag4-429-48/48856
# Creation time: Sat Jun  5 12:52:38 2010


@<TRIPOS>MOLECULE
frag4-429-48/48856
   38    42     1     1     1
SMALL
USER_CHARGES


@<TRIPOS>ATOM
      1 N1          9.4068   -4.5836    2.5650 N.4        1 <1>        0.000
      2 C1          8.9525   -3.2833    3.1212 C.3        1 <1>        0.000
      3 C2          8.9246   -2.2022    2.0001 C.3        1 <1>        0.000
      4 C3          7.9206   -2.6836    0.9250 C.3        1 <1>        0.000
      5 C4          7.4241   -1.6917   -0.1848 C.3        1 <1>        0.000
      6 O1          6.0704   -2.0142   -0.4605 O.3        1 <1>        0.000
      7 C5          5.5832   -2.4893    0.7134 C.ar       1 <1>        0.000
      8 C6          6.5946   -2.8533    1.6249 C.ar       1 <1>        0.000
      9 C14         8.5974   -0.7776    2.4598 C.3        1 <1>        0.000
     10 C7          6.3748   -3.2277    2.9603 C.ar       1 <1>        0.000
     11 C8          5.0306   -3.4010    3.2976 C.ar       1 <1>        0.000
     12 C9          3.9972   -3.1222    2.3976 C.ar       1 <1>        0.000
     13 C10         4.2805   -2.6536    1.1208 C.ar       1 <1>        0.000
     14 C11         7.5704   -3.3920    3.8546 C.3        1 <1>        0.000
     15 C12         7.4404   -0.2463    0.3094 C.3        1 <1>        0.000
     16 C13         8.5109    0.1834    1.2825 C.3        1 <1>        0.000
     17 C53         8.3467   -4.0559    0.3635 C.3        1 <1>        0.000
     18 C54         8.5469   -5.0824    1.4714 C.3        1 <1>        0.000
     19 H          10.3428   -4.4462    2.1836 H.spc      1 <1>        0.000
     20 H           9.3762   -5.2696    3.3192 H.spc      1 <1>        0.000
     21 H           9.6722   -2.9793    3.8812 H.spc      1 <1>        0.000
     22 H           9.9383   -2.1117    1.6098 H.spc      1 <1>        0.000
     23 H           8.0757   -1.7818   -1.0539 H.spc      1 <1>        0.000
     24 H           9.3921   -0.4385    3.1242 H.spc      1 <1>        0.000
     25 H           7.6319   -0.7915    2.9654 H.spc      1 <1>        0.000
     26 H           4.7791   -3.7650    4.2938 H.spc      1 <1>        0.000
     27 H           2.9611   -3.2738    2.7003 H.spc      1 <1>        0.000
     28 H           3.4651   -2.4148    0.4380 H.spc      1 <1>        0.000
     29 H           7.5339   -2.5853    4.5867 H.spc      1 <1>        0.000
     30 H           7.5140   -4.3935    4.2811 H.spc      1 <1>        0.000
     31 H           6.5030   -0.1250    0.8523 H.spc      1 <1>        0.000
     32 H           7.6162    0.3534   -0.5837 H.spc      1 <1>        0.000
     33 H           9.4705    0.1897    0.7656 H.spc      1 <1>        0.000
     34 H           8.2625    1.1756    1.6592 H.spc      1 <1>        0.000
     35 H           9.2925   -3.9318   -0.1639 H.spc      1 <1>        0.000
     36 H           7.5587   -4.4151   -0.2984 H.spc      1 <1>        0.000
     37 H           7.5689   -5.3127    1.8940 H.spc      1 <1>        0.000
     38 H           9.0339   -5.9544    1.0348 H.spc      1 <1>        0.000
@<TRIPOS>BOND
     1    8   10 ar 
     2    7    8 ar 
     3    1   18 1  
     4    5   15 1  
     5    4    8 1  
     6    5    6 1  
     7    2   14 1  
     8    2    3 1  
     9    7   13 ar 
    10    4    5 1  
    11    1    2 1  
    12    3    4 1  
    13    3    9 1  
    14    4   17 1  
    15    6    7 1  
    16   17   18 1  
    17   16    9 1  
    18   15   16 1  
    19   11   12 ar 
    20   12   13 ar 
    21   10   14 1  
    22   10   11 ar 
    23    1   19 1  
    24    1   20 1  
    25    2   21 1  
    26    3   22 1  
    27    5   23 1  
    28    9   24 1  
    29    9   25 1  
    30   11   26 1  
    31   12   27 1  
    32   13   28 1  
    33   14   29 1  
    34   14   30 1  
    35   15   31 1  
    36   15   32 1  
    37   16   33 1  
    38   16   34 1  
    39   17   35 1  
    40   17   36 1  
    41   18   37 1  
    42   18   38 1  
# Name:          frag4-429-48/48856 -- energy: -7.397342
# Creation time: Sat Jun  5 12:52:38 2010


@<TRIPOS>MOLECULE
frag4-429-48/48856 -- energy: -7.397342
   38    42     1     1     1
SMALL
USER_CHARGES


@<TRIPOS>ATOM
      1 N1          9.4068   -4.5836    2.5650 N.4        1 <1>        0.000
      2 C1          8.9525   -3.2833    3.1212 C.3        1 <1>        0.000
      3 C2          8.9246   -2.2022    2.0001 C.3        1 <1>        0.000
      4 C3          7.9206   -2.6836    0.9250 C.3        1 <1>        0.000
      5 C4          7.4241   -1.6917   -0.1848 C.3        1 <1>        0.000
      6 O1          6.0704   -2.0142   -0.4605 O.3        1 <1>        0.000
      7 C5          5.5832   -2.4893    0.7134 C.ar       1 <1>        0.000
      8 C6          6.5946   -2.8533    1.6249 C.ar       1 <1>        0.000
      9 C14         8.5974   -0.7776    2.4598 C.3        1 <1>        0.000
     10 C7          6.3748   -3.2277    2.9603 C.ar       1 <1>        0.000
     11 C8          5.0306   -3.4010    3.2976 C.ar       1 <1>        0.000
     12 C9          3.9972   -3.1222    2.3976 C.ar       1 <1>        0.000
     13 C10         4.2805   -2.6536    1.1208 C.ar       1 <1>        0.000
     14 C11         7.5704   -3.3920    3.8546 C.3        1 <1>        0.000
     15 C12         7.4404   -0.2463    0.3094 C.3        1 <1>        0.000
     16 C13         8.5109    0.1834    1.2825 C.3        1 <1>        0.000
     17 C53         8.3467   -4.0559    0.3635 C.3        1 <1>        0.000
     18 C54         8.5469   -5.0824    1.4714 C.3        1 <1>        0.000
     19 H          10.3428   -4.4462    2.1836 H.spc      1 <1>        0.000
     20 H           9.3762   -5.2696    3.3192 H.spc      1 <1>        0.000
     21 H           9.6722   -2.9793    3.8812 H.spc      1 <1>        0.000
     22 H           9.9383   -2.1117    1.6098 H.spc      1 <1>        0.000
     23 H           8.0757   -1.7818   -1.0539 H.spc      1 <1>        0.000
     24 H           9.3921   -0.4385    3.1242 H.spc      1 <1>        0.000
     25 H           7.6319   -0.7915    2.9654 H.spc      1 <1>        0.000
     26 H           4.7791   -3.7650    4.2938 H.spc      1 <1>        0.000
     27 H           2.9611   -3.2738    2.7003 H.spc      1 <1>        0.000
     28 H           3.4651   -2.4148    0.4380 H.spc      1 <1>        0.000
     29 H           7.5339   -2.5853    4.5867 H.spc      1 <1>        0.000
     30 H           7.5140   -4.3935    4.2811 H.spc      1 <1>        0.000
     31 H           6.5030   -0.1250    0.8523 H.spc      1 <1>        0.000
     32 H           7.6162    0.3534   -0.5837 H.spc      1 <1>        0.000
     33 H           9.4705    0.1897    0.7656 H.spc      1 <1>        0.000
     34 H           8.2625    1.1756    1.6592 H.spc      1 <1>        0.000
     35 H           9.2925   -3.9318   -0.1639 H.spc      1 <1>        0.000
     36 H           7.5587   -4.4151   -0.2984 H.spc      1 <1>        0.000
     37 H           7.5689   -5.3127    1.8940 H.spc      1 <1>        0.000
     38 H           9.0339   -5.9544    1.0348 H.spc      1 <1>        0.000
@<TRIPOS>BOND
     1    8   10 ar 
     2    7    8 ar 
     3    1   18 1  
     4    5   15 1  
     5    4    8 1  
     6    5    6 1  
     7    2   14 1  
     8    2    3 1  
     9    7   13 ar 
    10    4    5 1  
    11    1    2 1  
    12    3    4 1  
    13    3    9 1  
    14    4   17 1  
    15    6    7 1  
    16   17   18 1  
    17   16    9 1  
    18   15   16 1  
    19   11   12 ar 
    20   12   13 ar 
    21   10   14 1  
    22   10   11 ar 
    23    1   19 1  
    24    1   20 1  
    25    2   21 1  
    26    3   22 1  
    27    5   23 1  
    28    9   24 1  
    29    9   25 1  
    30   11   26 1  
    31   12   27 1  
    32   13   28 1  
    33   14   29 1  
    34   14   30 1  
    35   15   31 1  
    36   15   32 1  
    37   16   33 1  
    38   16   34 1  
    39   17   35 1  
    40   17   36 1  
    41   18   37 1  
    42   18   38 1  
