#      Rotatable Fragment
#      Build by yxyuan
#
# Name:          frag4-349-125/48856
# Creation time: Sat Jun  5 12:53:04 2010


@<TRIPOS>MOLECULE
frag4-349-125/48856
   23    25     1     1     1
SMALL
USER_CHARGES


@<TRIPOS>ATOM
      1 C1          2.5343   -2.4229    2.7800 C.ar       1 <1>        0.000
      2 C2          1.3457   -1.8996    2.2633 C.ar       1 <1>        0.000
      3 C3          1.3432   -1.1664    1.0692 C.ar       1 <1>        0.000
      4 C4          2.5436   -1.0256    0.3626 C.ar       1 <1>        0.000
      5 C5          3.7386   -1.5246    0.8898 C.ar       1 <1>        0.000
      6 C6          3.7376   -2.2216    2.1003 C.ar       1 <1>        0.000
      7 S1          2.5594   -0.2455   -1.2210 S.3        1 <1>        0.000
      8 C7          1.2244    0.8791   -0.9568 C.ar       1 <1>        0.000
      9 C8          0.1662    0.5332   -0.1081 C.ar       1 <1>        0.000
     10 C9         -0.9354    1.3943   -0.0179 C.ar       1 <1>        0.000
     11 C10        -0.9514    2.6106   -0.7063 C.ar       1 <1>        0.000
     12 C11         0.1377    2.9765   -1.5005 C.ar       1 <1>        0.000
     13 C12         1.2235    2.1067   -1.6260 C.ar       1 <1>        0.000
     14 N1          0.1878   -0.6070    0.6282 N.pl3      1 <1>        0.000
     15 H           2.5221   -2.9874    3.7123 H.spc      1 <1>        0.000
     16 H           0.4090   -2.0639    2.7959 H.spc      1 <1>        0.000
     17 H           4.6749   -1.3690    0.3539 H.spc      1 <1>        0.000
     18 H           4.6707   -2.6062    2.5121 H.spc      1 <1>        0.000
     19 H          -1.7903    1.1122    0.5966 H.spc      1 <1>        0.000
     20 H          -1.8131    3.2730   -0.6234 H.spc      1 <1>        0.000
     21 H           0.1404    3.9351   -2.0193 H.spc      1 <1>        0.000
     22 H           2.0737    2.3862   -2.2483 H.spc      1 <1>        0.000
     23 H          -0.6966   -1.0600    0.8585 H.spc      1 <1>        0.000
@<TRIPOS>BOND
     1    2    3 ar 
     2    9   10 ar 
     3    4    5 ar 
     4    8   13 ar 
     5    1    2 ar 
     6    3    4 ar 
     7    9   14 1  
     8   11   12 ar 
     9    5    6 ar 
    10   12   13 ar 
    11   10   11 ar 
    12    3   14 1  
    13    1    6 ar 
    14    4    7 1  
    15    8    9 ar 
    16    7    8 1  
    17    1   15 1  
    18    2   16 1  
    19    5   17 1  
    20    6   18 1  
    21   10   19 1  
    22   11   20 1  
    23   12   21 1  
    24   13   22 1  
    25   14   23 1  
# Name:          frag4-349-125/48856 -- energy: -1.099358
# Creation time: Sat Jun  5 12:53:04 2010


@<TRIPOS>MOLECULE
frag4-349-125/48856 -- energy: -1.099358
   23    25     1     1     1
SMALL
USER_CHARGES


@<TRIPOS>ATOM
      1 C1          2.5343   -2.4229    2.7800 C.ar       1 <1>        0.000
      2 C2          1.3457   -1.8996    2.2633 C.ar       1 <1>        0.000
      3 C3          1.3432   -1.1664    1.0692 C.ar       1 <1>        0.000
      4 C4          2.5436   -1.0256    0.3626 C.ar       1 <1>        0.000
      5 C5          3.7386   -1.5246    0.8898 C.ar       1 <1>        0.000
      6 C6          3.7376   -2.2216    2.1003 C.ar       1 <1>        0.000
      7 S1          2.5594   -0.2455   -1.2210 S.3        1 <1>        0.000
      8 C7          1.2244    0.8791   -0.9568 C.ar       1 <1>        0.000
      9 C8          0.1662    0.5332   -0.1081 C.ar       1 <1>        0.000
     10 C9         -0.9354    1.3943   -0.0179 C.ar       1 <1>        0.000
     11 C10        -0.9514    2.6106   -0.7063 C.ar       1 <1>        0.000
     12 C11         0.1377    2.9765   -1.5005 C.ar       1 <1>        0.000
     13 C12         1.2235    2.1067   -1.6260 C.ar       1 <1>        0.000
     14 N1          0.1878   -0.6070    0.6282 N.pl3      1 <1>        0.000
     15 H           2.5221   -2.9874    3.7123 H.spc      1 <1>        0.000
     16 H           0.4090   -2.0639    2.7959 H.spc      1 <1>        0.000
     17 H           4.6749   -1.3690    0.3539 H.spc      1 <1>        0.000
     18 H           4.6707   -2.6062    2.5121 H.spc      1 <1>        0.000
     19 H          -1.7903    1.1122    0.5966 H.spc      1 <1>        0.000
     20 H          -1.8131    3.2730   -0.6234 H.spc      1 <1>        0.000
     21 H           0.1404    3.9351   -2.0193 H.spc      1 <1>        0.000
     22 H           2.0737    2.3862   -2.2483 H.spc      1 <1>        0.000
     23 H          -0.6966   -1.0600    0.8585 H.spc      1 <1>        0.000
@<TRIPOS>BOND
     1    2    3 ar 
     2    9   10 ar 
     3    4    5 ar 
     4    8   13 ar 
     5    1    2 ar 
     6    3    4 ar 
     7    9   14 1  
     8   11   12 ar 
     9    5    6 ar 
    10   12   13 ar 
    11   10   11 ar 
    12    3   14 1  
    13    1    6 ar 
    14    4    7 1  
    15    8    9 ar 
    16    7    8 1  
    17    1   15 1  
    18    2   16 1  
    19    5   17 1  
    20    6   18 1  
    21   10   19 1  
    22   11   20 1  
    23   12   21 1  
    24   13   22 1  
    25   14   23 1  
