#      Rotatable Fragment
#      Build by yxyuan
#
# Name:          frag4-323-744/150395
# Creation time: Sat Jun  5 12:53:31 2010


@<TRIPOS>MOLECULE
frag4-323-744/150395
   13    13     1     1     1
SMALL
USER_CHARGES


@<TRIPOS>ATOM
      1 C1         -0.8092    1.0865    0.1904 C.3        1 <1>        0.000
      2 C2          0.4257    0.2653    0.0174 C.2        1 <1>        0.000
      3 C3         -2.0684    0.2841    0.1893 C.2        1 <1>        0.000
      4 C5          0.3230   -1.0696   -0.1200 C.2        1 <1>        0.000
      5 C7         -2.0058   -1.0520    0.0405 C.2        1 <1>        0.000
      6 N1         -0.8512   -1.7206   -0.1098 N.pl3      1 <1>        0.000
      7 H          -0.8620    1.7771   -0.6512 H.spc      1 <1>        0.000
      8 H          -0.7387    1.5811    1.1591 H.spc      1 <1>        0.000
      9 H           1.4048    0.7442    0.0025 H.spc      1 <1>        0.000
     10 H          -3.0329    0.7777    0.3083 H.spc      1 <1>        0.000
     11 H           1.2370   -1.6501   -0.2456 H.spc      1 <1>        0.000
     12 H          -2.9370   -1.6185    0.0421 H.spc      1 <1>        0.000
     13 H          -0.8663   -2.7348   -0.2175 H.spc      1 <1>        0.000
@<TRIPOS>BOND
     1    1    2 1  
     2    1    3 1  
     3    2    4 2  
     4    3    5 2  
     5    4    6 1  
     6    5    6 1  
     7    1    7 1  
     8    1    8 1  
     9    2    9 1  
    10    3   10 1  
    11    4   11 1  
    12    5   12 1  
    13    6   13 1  
# Name:          frag4-323-744/150395 -- energy: -0.094148
# Creation time: Sat Jun  5 12:53:31 2010


@<TRIPOS>MOLECULE
frag4-323-744/150395 -- energy: -0.094148
   13    13     1     1     1
SMALL
USER_CHARGES


@<TRIPOS>ATOM
      1 C1         -0.8092    1.0865    0.1904 C.3        1 <1>        0.000
      2 C2          0.4257    0.2653    0.0174 C.2        1 <1>        0.000
      3 C3         -2.0684    0.2841    0.1893 C.2        1 <1>        0.000
      4 C5          0.3230   -1.0696   -0.1200 C.2        1 <1>        0.000
      5 C7         -2.0058   -1.0520    0.0405 C.2        1 <1>        0.000
      6 N1         -0.8512   -1.7206   -0.1098 N.pl3      1 <1>        0.000
      7 H          -0.8620    1.7771   -0.6512 H.spc      1 <1>        0.000
      8 H          -0.7387    1.5811    1.1591 H.spc      1 <1>        0.000
      9 H           1.4048    0.7442    0.0025 H.spc      1 <1>        0.000
     10 H          -3.0329    0.7777    0.3083 H.spc      1 <1>        0.000
     11 H           1.2370   -1.6501   -0.2456 H.spc      1 <1>        0.000
     12 H          -2.9370   -1.6185    0.0421 H.spc      1 <1>        0.000
     13 H          -0.8663   -2.7348   -0.2175 H.spc      1 <1>        0.000
@<TRIPOS>BOND
     1    1    2 1  
     2    1    3 1  
     3    2    4 2  
     4    3    5 2  
     5    4    6 1  
     6    5    6 1  
     7    1    7 1  
     8    1    8 1  
     9    2    9 1  
    10    3   10 1  
    11    4   11 1  
    12    5   12 1  
    13    6   13 1  
