#      Rotatable Fragment
#      Build by yxyuan
#
# Name:          frag5-677-23/41815
# Creation time: Sat Jun  5 12:53:03 2010


@<TRIPOS>MOLECULE
frag5-677-23/41815
   17    18     1     1     1
SMALL
USER_CHARGES


@<TRIPOS>ATOM
      1 N1          2.3042    0.9654    0.1295 N.2        1 <1>        0.000
      2 C1          0.8381    0.7687   -0.0005 C.2        1 <1>        0.000
      3 N2         -0.1620    1.5415    0.0497 N.2        1 <1>        0.000
      4 C2         -1.4867    1.1091    0.0072 C.3        1 <1>        0.000
      5 N3         -1.5607   -0.2823   -0.0160 N.2        1 <1>        0.000
      6 C3         -0.7044   -1.2172   -0.0645 C.2        1 <1>        0.000
      7 C4          0.6672   -0.6892   -0.1780 C.2        1 <1>        0.000
      8 N4          1.8586   -1.2346   -0.3423 N.2        1 <1>        0.000
      9 C5          2.8589   -0.2231   -0.0661 C.2        1 <1>        0.000
     10 N5         -0.8726   -2.5444   -0.0057 N.pl3      1 <1>        0.000
     11 N6         -2.5482    1.9494    0.0334 N.3        1 <1>        0.000
     12 H          -2.3937    1.6519   -0.2588 H.spc      1 <1>        0.000
     13 H           3.9311   -0.4148   -0.0244 H.spc      1 <1>        0.000
     14 H          -1.8092   -2.9359    0.0935 H.spc      1 <1>        0.000
     15 H          -0.0641   -3.1639   -0.0601 H.spc      1 <1>        0.000
     16 H          -2.2166    2.9139    0.0464 H.spc      1 <1>        0.000
     17 H          -3.1216    1.7969   -0.7963 H.spc      1 <1>        0.000
@<TRIPOS>BOND
     1    8    9 1  
     2    6   10 1  
     3    6    7 1  
     4    7    8 2  
     5    1    2 1  
     6    1    9 2  
     7    2    3 2  
     8    2    7 1  
     9    3    4 1  
    10    4    5 1  
    11    4   11 1  
    12    5    6 2  
    13    4   12 1  
    14    9   13 1  
    15   10   14 1  
    16   10   15 1  
    17   11   16 1  
    18   11   17 1  
