#      Rotatable Fragment
#      Build by yxyuan
#
# Name:          frag5-671-24/41815
# Creation time: Sat Jun  5 12:53:03 2010


@<TRIPOS>MOLECULE
frag5-671-24/41815
   13    13     1     1     1
SMALL
USER_CHARGES


@<TRIPOS>ATOM
      1 C34         8.5735    0.4733    1.1818 C.3        1 <1>        0.000
      2 O14         9.3272    1.1593    0.2626 O.3        1 <1>        0.000
      3 C35        10.6921    1.2389    0.1929 C.3        1 <1>        0.000
      4 C36        11.3636    1.1484    1.5709 C.2        1 <1>        0.000
      5 C37        10.6125    0.4963    2.6820 C.2        1 <1>        0.000
      6 C38         9.3239    0.1867    2.4401 C.2        1 <1>        0.000
      7 O15        12.4974    1.5743    1.7807 O.2        1 <1>        0.000
      8 H           8.2878   -0.4799    0.7370 H.spc      1 <1>        0.000
      9 H           7.7127    1.0910    1.4378 H.spc      1 <1>        0.000
     10 H          10.9487    2.2053   -0.2411 H.spc      1 <1>        0.000
     11 H          11.0456    0.4001   -0.4068 H.spc      1 <1>        0.000
     12 H          11.0825    0.2810    3.6416 H.spc      1 <1>        0.000
     13 H           8.7789   -0.3198    3.2367 H.spc      1 <1>        0.000
@<TRIPOS>BOND
     1    1    2 1  
     2    1    6 1  
     3    2    3 1  
     4    3    4 1  
     5    4    5 1  
     6    4    7 2  
     7    5    6 2  
     8    1    8 1  
     9    1    9 1  
    10    3   10 1  
    11    3   11 1  
    12    5   12 1  
    13    6   13 1  
# Name:          frag5-671-24/41815 -- energy: -0.538872
# Creation time: Sat Jun  5 12:53:03 2010


@<TRIPOS>MOLECULE
frag5-671-24/41815 -- energy: -0.538872
   13    13     1     1     1
SMALL
USER_CHARGES


@<TRIPOS>ATOM
      1 C34         8.5735    0.4733    1.1818 C.3        1 <1>        0.000
      2 O14         9.3272    1.1593    0.2626 O.3        1 <1>        0.000
      3 C35        10.6921    1.2389    0.1929 C.3        1 <1>        0.000
      4 C36        11.3636    1.1484    1.5709 C.2        1 <1>        0.000
      5 C37        10.6125    0.4963    2.6820 C.2        1 <1>        0.000
      6 C38         9.3239    0.1867    2.4401 C.2        1 <1>        0.000
      7 O15        12.4974    1.5743    1.7807 O.2        1 <1>        0.000
      8 H           8.2878   -0.4799    0.7370 H.spc      1 <1>        0.000
      9 H           7.7127    1.0910    1.4378 H.spc      1 <1>        0.000
     10 H          10.9487    2.2053   -0.2411 H.spc      1 <1>        0.000
     11 H          11.0456    0.4001   -0.4068 H.spc      1 <1>        0.000
     12 H          11.0825    0.2810    3.6416 H.spc      1 <1>        0.000
     13 H           8.7789   -0.3198    3.2367 H.spc      1 <1>        0.000
@<TRIPOS>BOND
     1    1    2 1  
     2    1    6 1  
     3    2    3 1  
     4    3    4 1  
     5    4    5 1  
     6    4    7 2  
     7    5    6 2  
     8    1    8 1  
     9    1    9 1  
    10    3   10 1  
    11    3   11 1  
    12    5   12 1  
    13    6   13 1  
