#      Rotatable Fragment
#      Build by yxyuan
#
# Name:          frag5-690-22/41815
# Creation time: Sat Jun  5 12:53:04 2010


@<TRIPOS>MOLECULE
frag5-690-22/41815
   17    17     1     1     1
SMALL
USER_CHARGES


@<TRIPOS>ATOM
      1 N1          4.7453    0.5560   -0.2340 N.pl3      1 <1>        0.000
      2 C1          3.5748   -0.1031   -0.3108 C.2        1 <1>        0.000
      3 N2          3.5849   -1.3407   -0.6371 N.2        1 <1>        0.000
      4 C2          2.2867    0.5884   -0.0367 C.ar       1 <1>        0.000
      5 C3          1.1757    0.3014   -0.8470 C.ar       1 <1>        0.000
      6 C4         -0.0496    0.9372   -0.6418 C.ar       1 <1>        0.000
      7 C5         -0.1844    1.8755    0.3807 C.ar       1 <1>        0.000
      8 C6          0.9010    2.1589    1.2096 C.ar       1 <1>        0.000
      9 C7          2.1206    1.5037    1.0156 C.ar       1 <1>        0.000
     10 H           5.6189    0.0690   -0.4341 H.spc      1 <1>        0.000
     11 H           4.7590    1.5426    0.0243 H.spc      1 <1>        0.000
     12 H           2.7077   -1.8561   -0.7099 H.spc      1 <1>        0.000
     13 H           1.2722   -0.4300   -1.6494 H.spc      1 <1>        0.000
     14 H          -0.9006    0.7004   -1.2804 H.spc      1 <1>        0.000
     15 H          -1.1354    2.3862    0.5319 H.spc      1 <1>        0.000
     16 H           0.7982    2.8921    2.0096 H.spc      1 <1>        0.000
     17 H           2.9531    1.7057    1.6895 H.spc      1 <1>        0.000
@<TRIPOS>BOND
     1    7    8 ar 
     2    8    9 ar 
     3    1    2 1  
     4    2    3 2  
     5    2    4 1  
     6    4    5 ar 
     7    4    9 ar 
     8    5    6 ar 
     9    6    7 ar 
    10    1   10 1  
    11    1   11 1  
    12    3   12 1  
    13    5   13 1  
    14    6   14 1  
    15    7   15 1  
    16    8   16 1  
    17    9   17 1  
# Name:          frag5-690-22/41815
# Creation time: Sat Jun  5 12:53:04 2010


@<TRIPOS>MOLECULE
frag5-690-22/41815
   17    17     1     1     1
SMALL
USER_CHARGES


@<TRIPOS>ATOM
      1 N1          4.5298   -0.1029    0.6320 N.pl3      1 <1>        0.000
      2 C1          3.5788   -0.0961   -0.3198 C.2        1 <1>        0.000
      3 N2          3.8161   -0.6712   -1.4350 N.2        1 <1>        0.000
      4 C2          2.2720    0.5741   -0.0769 C.ar       1 <1>        0.000
      5 C3          2.2247    1.7897    0.6215 C.ar       1 <1>        0.000
      6 C4          1.0098    2.4301    0.8737 C.ar       1 <1>        0.000
      7 C5         -0.1830    1.8580    0.4343 C.ar       1 <1>        0.000
      8 C6         -0.1568    0.6597   -0.2780 C.ar       1 <1>        0.000
      9 C7          1.0637    0.0360   -0.5535 C.ar       1 <1>        0.000
     10 H           5.4233   -0.5626    0.4569 H.spc      1 <1>        0.000
     11 H           4.3572    0.3516    1.5287 H.spc      1 <1>        0.000
     12 H           3.1073   -0.6739   -2.1684 H.spc      1 <1>        0.000
     13 H           3.1520    2.2420    0.9732 H.spc      1 <1>        0.000
     14 H           0.9941    3.3767    1.4138 H.spc      1 <1>        0.000
     15 H          -1.1340    2.3463    0.6471 H.spc      1 <1>        0.000
     16 H          -1.0884    0.2090   -0.6202 H.spc      1 <1>        0.000
     17 H           1.0787   -0.8792   -1.1454 H.spc      1 <1>        0.000
@<TRIPOS>BOND
     1    7    8 ar 
     2    8    9 ar 
     3    1    2 1  
     4    2    3 2  
     5    2    4 1  
     6    4    5 ar 
     7    4    9 ar 
     8    5    6 ar 
     9    6    7 ar 
    10    1   10 1  
    11    1   11 1  
    12    3   12 1  
    13    5   13 1  
    14    6   14 1  
    15    7   15 1  
    16    8   16 1  
    17    9   17 1  
# Name:          frag5-690-22/41815 -- energy: -0.802575
# Creation time: Sat Jun  5 12:53:04 2010


@<TRIPOS>MOLECULE
frag5-690-22/41815 -- energy: -0.802575
   17    17     1     1     1
SMALL
USER_CHARGES


@<TRIPOS>ATOM
      1 N1          4.7453    0.5560   -0.2340 N.pl3      1 <1>        0.000
      2 C1          3.5748   -0.1031   -0.3108 C.2        1 <1>        0.000
      3 N2          3.5849   -1.3407   -0.6371 N.2        1 <1>        0.000
      4 C2          2.2867    0.5884   -0.0367 C.ar       1 <1>        0.000
      5 C3          1.1757    0.3014   -0.8470 C.ar       1 <1>        0.000
      6 C4         -0.0496    0.9372   -0.6418 C.ar       1 <1>        0.000
      7 C5         -0.1844    1.8755    0.3807 C.ar       1 <1>        0.000
      8 C6          0.9010    2.1589    1.2096 C.ar       1 <1>        0.000
      9 C7          2.1206    1.5037    1.0156 C.ar       1 <1>        0.000
     10 H           5.6189    0.0690   -0.4341 H.spc      1 <1>        0.000
     11 H           4.7590    1.5426    0.0243 H.spc      1 <1>        0.000
     12 H           2.7077   -1.8561   -0.7099 H.spc      1 <1>        0.000
     13 H           1.2722   -0.4300   -1.6494 H.spc      1 <1>        0.000
     14 H          -0.9006    0.7004   -1.2804 H.spc      1 <1>        0.000
     15 H          -1.1354    2.3862    0.5319 H.spc      1 <1>        0.000
     16 H           0.7982    2.8921    2.0096 H.spc      1 <1>        0.000
     17 H           2.9531    1.7057    1.6895 H.spc      1 <1>        0.000
@<TRIPOS>BOND
     1    7    8 ar 
     2    8    9 ar 
     3    1    2 1  
     4    2    3 2  
     5    2    4 1  
     6    4    5 ar 
     7    4    9 ar 
     8    5    6 ar 
     9    6    7 ar 
    10    1   10 1  
    11    1   11 1  
    12    3   12 1  
    13    5   13 1  
    14    6   14 1  
    15    7   15 1  
    16    8   16 1  
    17    9   17 1  
# Name:          frag5-690-22/41815 -- energy: -0.820180
# Creation time: Sat Jun  5 12:53:04 2010


@<TRIPOS>MOLECULE
frag5-690-22/41815 -- energy: -0.820180
   17    17     1     1     1
SMALL
USER_CHARGES


@<TRIPOS>ATOM
      1 N1          4.5298   -0.1029    0.6320 N.pl3      1 <1>        0.000
      2 C1          3.5788   -0.0961   -0.3198 C.2        1 <1>        0.000
      3 N2          3.8161   -0.6712   -1.4350 N.2        1 <1>        0.000
      4 C2          2.2720    0.5741   -0.0769 C.ar       1 <1>        0.000
      5 C3          2.2247    1.7897    0.6215 C.ar       1 <1>        0.000
      6 C4          1.0098    2.4301    0.8737 C.ar       1 <1>        0.000
      7 C5         -0.1830    1.8580    0.4343 C.ar       1 <1>        0.000
      8 C6         -0.1568    0.6597   -0.2780 C.ar       1 <1>        0.000
      9 C7          1.0637    0.0360   -0.5535 C.ar       1 <1>        0.000
     10 H           5.4233   -0.5626    0.4569 H.spc      1 <1>        0.000
     11 H           4.3572    0.3516    1.5287 H.spc      1 <1>        0.000
     12 H           3.1073   -0.6739   -2.1684 H.spc      1 <1>        0.000
     13 H           3.1520    2.2420    0.9732 H.spc      1 <1>        0.000
     14 H           0.9941    3.3767    1.4138 H.spc      1 <1>        0.000
     15 H          -1.1340    2.3463    0.6471 H.spc      1 <1>        0.000
     16 H          -1.0884    0.2090   -0.6202 H.spc      1 <1>        0.000
     17 H           1.0787   -0.8792   -1.1454 H.spc      1 <1>        0.000
@<TRIPOS>BOND
     1    7    8 ar 
     2    8    9 ar 
     3    1    2 1  
     4    2    3 2  
     5    2    4 1  
     6    4    5 ar 
     7    4    9 ar 
     8    5    6 ar 
     9    6    7 ar 
    10    1   10 1  
    11    1   11 1  
    12    3   12 1  
    13    5   13 1  
    14    6   14 1  
    15    7   15 1  
    16    8   16 1  
    17    9   17 1  
