#      Rotatable Fragment
#      Build by yxyuan
#
# Name:          frag5-552-58/41815
# Creation time: Sat Jun  5 12:52:53 2010


@<TRIPOS>MOLECULE
frag5-552-58/41815
   10    10     1     1     1
SMALL
USER_CHARGES


@<TRIPOS>ATOM
      1 F1          2.6767   -0.2555    0.0895 F          1 <1>        0.000
      2 C1          1.3463   -0.1413    0.0435 C.ar       1 <1>        0.000
      3 C2          0.7890    1.0683   -0.1003 C.ar       1 <1>        0.000
      4 N1         -0.5919    1.2213   -0.1739 N.ar       1 <1>        0.000
      5 C3         -1.3489    0.2132   -0.0333 C.ar       1 <1>        0.000
      6 N2         -0.7791   -1.0215    0.1294 N.ar       1 <1>        0.000
      7 C4          0.4559   -1.2690    0.2051 C.ar       1 <1>        0.000
      8 O1          0.9486   -2.3177    0.3614 O.2        1 <1>        0.000
      9 O2         -2.5205    0.3140   -0.0572 O.2        1 <1>        0.000
     10 H           1.4289    1.9486   -0.1607 H.spc      1 <1>        0.000
@<TRIPOS>BOND
     1    1    2 1  
     2    2    3 ar 
     3    2    7 ar 
     4    3    4 ar 
     5    4    5 ar 
     6    5    6 ar 
     7    6    7 ar 
     8    5    9 2  
     9    7    8 2  
    10    3   10 1  
# Name:          frag5-552-58/41815 -- energy: 0.215677
# Creation time: Sat Jun  5 12:52:53 2010


@<TRIPOS>MOLECULE
frag5-552-58/41815 -- energy: 0.215677
   10    10     1     1     1
SMALL
USER_CHARGES


@<TRIPOS>ATOM
      1 F1          2.6767   -0.2555    0.0895 F          1 <1>        0.000
      2 C1          1.3463   -0.1413    0.0435 C.ar       1 <1>        0.000
      3 C2          0.7890    1.0683   -0.1003 C.ar       1 <1>        0.000
      4 N1         -0.5919    1.2213   -0.1739 N.ar       1 <1>        0.000
      5 C3         -1.3489    0.2132   -0.0333 C.ar       1 <1>        0.000
      6 N2         -0.7791   -1.0215    0.1294 N.ar       1 <1>        0.000
      7 C4          0.4559   -1.2690    0.2051 C.ar       1 <1>        0.000
      8 O1          0.9486   -2.3177    0.3614 O.2        1 <1>        0.000
      9 O2         -2.5205    0.3140   -0.0572 O.2        1 <1>        0.000
     10 H           1.4289    1.9486   -0.1607 H.spc      1 <1>        0.000
@<TRIPOS>BOND
     1    1    2 1  
     2    2    3 ar 
     3    2    7 ar 
     4    3    4 ar 
     5    4    5 ar 
     6    5    6 ar 
     7    6    7 ar 
     8    5    9 2  
     9    7    8 2  
    10    3   10 1  
