#      Rotatable Fragment
#      Build by yxyuan
#
# Name:          frag3-128-36/31924
# Creation time: Sat Jun  5 12:52:02 2010


@<TRIPOS>MOLECULE
frag3-128-36/31924
   14    13     1     1     1
SMALL
USER_CHARGES


@<TRIPOS>ATOM
      1 N1          3.0454   -0.2753   -0.1584 N.am       1 <1>        0.000
      2 C10         1.9015    0.3275    0.2799 C.2        1 <1>        0.000
      3 O6          0.8133    0.0922   -0.2338 O.2        1 <1>        0.000
      4 C11         1.9878    1.2842    1.3933 C.2        1 <1>        0.000
      5 C12         0.9530    1.6699    2.1584 C.2        1 <1>        0.000
      6 C13         0.9656    2.6197    3.2297 C.2        1 <1>        0.000
      7 C14        -0.0699    2.9895    3.9819 C.2        1 <1>        0.000
      8 H           3.0078   -0.9397   -0.9314 H.spc      1 <1>        0.000
      9 H           3.9376   -0.0612    0.2871 H.spc      1 <1>        0.000
     10 H           2.9652    1.7128    1.6146 H.spc      1 <1>        0.000
     11 H          -0.0082    1.2056    1.9379 H.spc      1 <1>        0.000
     12 H           1.9233    3.0897    3.4534 H.spc      1 <1>        0.000
     13 H          -1.0539    2.5546    3.8064 H.spc      1 <1>        0.000
     14 H           0.0668    3.7270    4.7728 H.spc      1 <1>        0.000
@<TRIPOS>BOND
     1    1    2 am 
     2    2    3 2  
     3    2    4 1  
     4    4    5 2  
     5    5    6 1  
     6    6    7 2  
     7    1    8 1  
     8    1    9 1  
     9    4   10 1  
    10    5   11 1  
    11    6   12 1  
    12    7   13 1  
    13    7   14 1  
# Name:          frag3-128-36/31924
# Creation time: Sat Jun  5 12:52:03 2010


@<TRIPOS>MOLECULE
frag3-128-36/31924
   14    13     1     1     1
SMALL
USER_CHARGES


@<TRIPOS>ATOM
      1 N1          3.0416    0.0612    0.6264 N.am       1 <1>        0.000
      2 C10         1.7582    0.3242    0.2179 C.2        1 <1>        0.000
      3 O6          1.3195   -0.1398   -0.8345 O.2        1 <1>        0.000
      4 C11         0.9036    1.1744    1.0503 C.2        1 <1>        0.000
      5 C12         1.2666    1.7115    2.2299 C.2        1 <1>        0.000
      6 C13         0.4626    2.5179    3.0998 C.2        1 <1>        0.000
      7 C14         0.8446    3.0583    4.2611 C.2        1 <1>        0.000
      8 H           3.6482   -0.5270    0.0551 H.spc      1 <1>        0.000
      9 H           3.3889    0.4539    1.5014 H.spc      1 <1>        0.000
     10 H          -0.1017    1.3881    0.6871 H.spc      1 <1>        0.000
     11 H           2.2857    1.5107    2.5603 H.spc      1 <1>        0.000
     12 H          -0.5625    2.7097    2.7829 H.spc      1 <1>        0.000
     13 H           1.8586    2.9002    4.6284 H.spc      1 <1>        0.000
     14 H           0.1421    3.6571    4.8408 H.spc      1 <1>        0.000
@<TRIPOS>BOND
     1    1    2 am 
     2    2    3 2  
     3    2    4 1  
     4    4    5 2  
     5    5    6 1  
     6    6    7 2  
     7    1    8 1  
     8    1    9 1  
     9    4   10 1  
    10    5   11 1  
    11    6   12 1  
    12    7   13 1  
    13    7   14 1  
# Name:          frag3-128-36/31924
# Creation time: Sat Jun  5 12:52:03 2010


@<TRIPOS>MOLECULE
frag3-128-36/31924
   14    13     1     1     1
SMALL
USER_CHARGES


@<TRIPOS>ATOM
      1 N1          3.1320    0.0673   -0.1466 N.am       1 <1>        0.000
      2 C10         1.8849    0.4199    0.2897 C.2        1 <1>        0.000
      3 O6          0.8741    0.0200   -0.2625 O.2        1 <1>        0.000
      4 C11         1.7716    1.3093    1.4607 C.2        1 <1>        0.000
      5 C12         0.7680    1.2781    2.3513 C.2        1 <1>        0.000
      6 C13         0.5856    2.1392    3.4832 C.2        1 <1>        0.000
      7 C14         0.5806    3.4740    3.4750 C.2        1 <1>        0.000
      8 H           3.2350   -0.5464   -0.9548 H.spc      1 <1>        0.000
      9 H           3.9593    0.4179    0.3362 H.spc      1 <1>        0.000
     10 H           2.5605    2.0457    1.6141 H.spc      1 <1>        0.000
     11 H           0.0070    0.5131    2.1970 H.spc      1 <1>        0.000
     12 H           0.4359    1.6548    4.4481 H.spc      1 <1>        0.000
     13 H           0.7255    4.0138    2.5392 H.spc      1 <1>        0.000
     14 H           0.4316    4.0242    4.4041 H.spc      1 <1>        0.000
@<TRIPOS>BOND
     1    1    2 am 
     2    2    3 2  
     3    2    4 1  
     4    4    5 2  
     5    5    6 1  
     6    6    7 2  
     7    1    8 1  
     8    1    9 1  
     9    4   10 1  
    10    5   11 1  
    11    6   12 1  
    12    7   13 1  
    13    7   14 1  
# Name:          frag3-128-36/31924
# Creation time: Sat Jun  5 12:52:03 2010


@<TRIPOS>MOLECULE
frag3-128-36/31924
   14    13     1     1     1
SMALL
USER_CHARGES


@<TRIPOS>ATOM
      1 N1          3.1302   -0.1370    0.1571 N.am       1 <1>        0.000
      2 C10         1.8594    0.2949    0.3897 C.2        1 <1>        0.000
      3 O6          0.9454    0.0883   -0.4015 O.2        1 <1>        0.000
      4 C11         1.6348    1.0244    1.6387 C.2        1 <1>        0.000
      5 C12         0.7792    2.0466    1.7709 C.2        1 <1>        0.000
      6 C13         0.4953    2.8556    2.9135 C.2        1 <1>        0.000
      7 C14         0.7525    2.5350    4.1826 C.2        1 <1>        0.000
      8 H           3.3460   -0.6502   -0.6975 H.spc      1 <1>        0.000
      9 H           3.8659    0.0528    0.8376 H.spc      1 <1>        0.000
     10 H           2.2003    0.7159    2.5180 H.spc      1 <1>        0.000
     11 H           0.2156    2.2987    0.8726 H.spc      1 <1>        0.000
     12 H           0.0260    3.8225    2.7319 H.spc      1 <1>        0.000
     13 H           1.2210    1.5797    4.4192 H.spc      1 <1>        0.000
     14 H           0.4942    3.2284    4.9830 H.spc      1 <1>        0.000
@<TRIPOS>BOND
     1    1    2 am 
     2    2    3 2  
     3    2    4 1  
     4    4    5 2  
     5    5    6 1  
     6    6    7 2  
     7    1    8 1  
     8    1    9 1  
     9    4   10 1  
    10    5   11 1  
    11    6   12 1  
    12    7   13 1  
    13    7   14 1  
# Name:          frag3-128-36/31924
# Creation time: Sat Jun  5 12:52:03 2010


@<TRIPOS>MOLECULE
frag3-128-36/31924
   14    13     1     1     1
SMALL
USER_CHARGES


@<TRIPOS>ATOM
      1 N1          2.9535   -0.0731    0.4727 N.am       1 <1>        0.000
      2 C10         1.6721    0.3365    0.2677 C.2        1 <1>        0.000
      3 O6          0.9998   -0.0865   -0.6683 O.2        1 <1>        0.000
      4 C11         1.0823    1.3136    1.1976 C.2        1 <1>        0.000
      5 C12         1.7024    1.8282    2.2703 C.2        1 <1>        0.000
      6 C13         1.1710    2.7520    3.2259 C.2        1 <1>        0.000
      7 C14         0.0156    2.6369    3.8851 C.2        1 <1>        0.000
      8 H           3.3802   -0.7495   -0.1604 H.spc      1 <1>        0.000
      9 H           3.4873    0.2963    1.2595 H.spc      1 <1>        0.000
     10 H           0.0629    1.6446    0.9992 H.spc      1 <1>        0.000
     11 H           2.7306    1.5052    2.4331 H.spc      1 <1>        0.000
     12 H           1.7696    3.6383    3.4365 H.spc      1 <1>        0.000
     13 H          -0.6250    1.7715    3.7151 H.spc      1 <1>        0.000
     14 H          -0.2871    3.4083    4.5932 H.spc      1 <1>        0.000
@<TRIPOS>BOND
     1    1    2 am 
     2    2    3 2  
     3    2    4 1  
     4    4    5 2  
     5    5    6 1  
     6    6    7 2  
     7    1    8 1  
     8    1    9 1  
     9    4   10 1  
    10    5   11 1  
    11    6   12 1  
    12    7   13 1  
    13    7   14 1  
# Name:          frag3-128-36/31924 -- energy: -0.854721
# Creation time: Sat Jun  5 12:52:03 2010


@<TRIPOS>MOLECULE
frag3-128-36/31924 -- energy: -0.854721
   14    13     1     1     1
SMALL
USER_CHARGES


@<TRIPOS>ATOM
      1 N1          3.0454   -0.2753   -0.1584 N.am       1 <1>        0.000
      2 C10         1.9015    0.3275    0.2799 C.2        1 <1>        0.000
      3 O6          0.8133    0.0922   -0.2338 O.2        1 <1>        0.000
      4 C11         1.9878    1.2842    1.3933 C.2        1 <1>        0.000
      5 C12         0.9530    1.6699    2.1584 C.2        1 <1>        0.000
      6 C13         0.9656    2.6197    3.2297 C.2        1 <1>        0.000
      7 C14        -0.0699    2.9895    3.9819 C.2        1 <1>        0.000
      8 H           3.0078   -0.9397   -0.9314 H.spc      1 <1>        0.000
      9 H           3.9376   -0.0612    0.2871 H.spc      1 <1>        0.000
     10 H           2.9652    1.7128    1.6146 H.spc      1 <1>        0.000
     11 H          -0.0082    1.2056    1.9379 H.spc      1 <1>        0.000
     12 H           1.9233    3.0897    3.4534 H.spc      1 <1>        0.000
     13 H          -1.0539    2.5546    3.8064 H.spc      1 <1>        0.000
     14 H           0.0668    3.7270    4.7728 H.spc      1 <1>        0.000
@<TRIPOS>BOND
     1    1    2 am 
     2    2    3 2  
     3    2    4 1  
     4    4    5 2  
     5    5    6 1  
     6    6    7 2  
     7    1    8 1  
     8    1    9 1  
     9    4   10 1  
    10    5   11 1  
    11    6   12 1  
    12    7   13 1  
    13    7   14 1  
# Name:          frag3-128-36/31924 -- energy: -0.307374
# Creation time: Sat Jun  5 12:52:03 2010


@<TRIPOS>MOLECULE
frag3-128-36/31924 -- energy: -0.307374
   14    13     1     1     1
SMALL
USER_CHARGES


@<TRIPOS>ATOM
      1 N1          3.0416    0.0612    0.6264 N.am       1 <1>        0.000
      2 C10         1.7582    0.3242    0.2179 C.2        1 <1>        0.000
      3 O6          1.3195   -0.1398   -0.8345 O.2        1 <1>        0.000
      4 C11         0.9036    1.1744    1.0503 C.2        1 <1>        0.000
      5 C12         1.2666    1.7115    2.2299 C.2        1 <1>        0.000
      6 C13         0.4626    2.5179    3.0998 C.2        1 <1>        0.000
      7 C14         0.8446    3.0583    4.2611 C.2        1 <1>        0.000
      8 H           3.6482   -0.5270    0.0551 H.spc      1 <1>        0.000
      9 H           3.3889    0.4539    1.5014 H.spc      1 <1>        0.000
     10 H          -0.1017    1.3881    0.6871 H.spc      1 <1>        0.000
     11 H           2.2857    1.5107    2.5603 H.spc      1 <1>        0.000
     12 H          -0.5625    2.7097    2.7829 H.spc      1 <1>        0.000
     13 H           1.8586    2.9002    4.6284 H.spc      1 <1>        0.000
     14 H           0.1421    3.6571    4.8408 H.spc      1 <1>        0.000
@<TRIPOS>BOND
     1    1    2 am 
     2    2    3 2  
     3    2    4 1  
     4    4    5 2  
     5    5    6 1  
     6    6    7 2  
     7    1    8 1  
     8    1    9 1  
     9    4   10 1  
    10    5   11 1  
    11    6   12 1  
    12    7   13 1  
    13    7   14 1  
# Name:          frag3-128-36/31924 -- energy: -0.958562
# Creation time: Sat Jun  5 12:52:03 2010


@<TRIPOS>MOLECULE
frag3-128-36/31924 -- energy: -0.958562
   14    13     1     1     1
SMALL
USER_CHARGES


@<TRIPOS>ATOM
      1 N1          3.1320    0.0673   -0.1466 N.am       1 <1>        0.000
      2 C10         1.8849    0.4199    0.2897 C.2        1 <1>        0.000
      3 O6          0.8741    0.0200   -0.2625 O.2        1 <1>        0.000
      4 C11         1.7716    1.3093    1.4607 C.2        1 <1>        0.000
      5 C12         0.7680    1.2781    2.3513 C.2        1 <1>        0.000
      6 C13         0.5856    2.1392    3.4832 C.2        1 <1>        0.000
      7 C14         0.5806    3.4740    3.4750 C.2        1 <1>        0.000
      8 H           3.2350   -0.5464   -0.9548 H.spc      1 <1>        0.000
      9 H           3.9593    0.4179    0.3362 H.spc      1 <1>        0.000
     10 H           2.5605    2.0457    1.6141 H.spc      1 <1>        0.000
     11 H           0.0070    0.5131    2.1970 H.spc      1 <1>        0.000
     12 H           0.4359    1.6548    4.4481 H.spc      1 <1>        0.000
     13 H           0.7255    4.0138    2.5392 H.spc      1 <1>        0.000
     14 H           0.4316    4.0242    4.4041 H.spc      1 <1>        0.000
@<TRIPOS>BOND
     1    1    2 am 
     2    2    3 2  
     3    2    4 1  
     4    4    5 2  
     5    5    6 1  
     6    6    7 2  
     7    1    8 1  
     8    1    9 1  
     9    4   10 1  
    10    5   11 1  
    11    6   12 1  
    12    7   13 1  
    13    7   14 1  
# Name:          frag3-128-36/31924 -- energy: -0.961740
# Creation time: Sat Jun  5 12:52:03 2010


@<TRIPOS>MOLECULE
frag3-128-36/31924 -- energy: -0.961740
   14    13     1     1     1
SMALL
USER_CHARGES


@<TRIPOS>ATOM
      1 N1          3.1302   -0.1370    0.1571 N.am       1 <1>        0.000
      2 C10         1.8594    0.2949    0.3897 C.2        1 <1>        0.000
      3 O6          0.9454    0.0883   -0.4015 O.2        1 <1>        0.000
      4 C11         1.6348    1.0244    1.6387 C.2        1 <1>        0.000
      5 C12         0.7792    2.0466    1.7709 C.2        1 <1>        0.000
      6 C13         0.4953    2.8556    2.9135 C.2        1 <1>        0.000
      7 C14         0.7525    2.5350    4.1826 C.2        1 <1>        0.000
      8 H           3.3460   -0.6502   -0.6975 H.spc      1 <1>        0.000
      9 H           3.8659    0.0528    0.8376 H.spc      1 <1>        0.000
     10 H           2.2003    0.7159    2.5180 H.spc      1 <1>        0.000
     11 H           0.2156    2.2987    0.8726 H.spc      1 <1>        0.000
     12 H           0.0260    3.8225    2.7319 H.spc      1 <1>        0.000
     13 H           1.2210    1.5797    4.4192 H.spc      1 <1>        0.000
     14 H           0.4942    3.2284    4.9830 H.spc      1 <1>        0.000
@<TRIPOS>BOND
     1    1    2 am 
     2    2    3 2  
     3    2    4 1  
     4    4    5 2  
     5    5    6 1  
     6    6    7 2  
     7    1    8 1  
     8    1    9 1  
     9    4   10 1  
    10    5   11 1  
    11    6   12 1  
    12    7   13 1  
    13    7   14 1  
# Name:          frag3-128-36/31924 -- energy: -0.309000
# Creation time: Sat Jun  5 12:52:03 2010


@<TRIPOS>MOLECULE
frag3-128-36/31924 -- energy: -0.309000
   14    13     1     1     1
SMALL
USER_CHARGES


@<TRIPOS>ATOM
      1 N1          2.9535   -0.0731    0.4727 N.am       1 <1>        0.000
      2 C10         1.6721    0.3365    0.2677 C.2        1 <1>        0.000
      3 O6          0.9998   -0.0865   -0.6683 O.2        1 <1>        0.000
      4 C11         1.0823    1.3136    1.1976 C.2        1 <1>        0.000
      5 C12         1.7024    1.8282    2.2703 C.2        1 <1>        0.000
      6 C13         1.1710    2.7520    3.2259 C.2        1 <1>        0.000
      7 C14         0.0156    2.6369    3.8851 C.2        1 <1>        0.000
      8 H           3.3802   -0.7495   -0.1604 H.spc      1 <1>        0.000
      9 H           3.4873    0.2963    1.2595 H.spc      1 <1>        0.000
     10 H           0.0629    1.6446    0.9992 H.spc      1 <1>        0.000
     11 H           2.7306    1.5052    2.4331 H.spc      1 <1>        0.000
     12 H           1.7696    3.6383    3.4365 H.spc      1 <1>        0.000
     13 H          -0.6250    1.7715    3.7151 H.spc      1 <1>        0.000
     14 H          -0.2871    3.4083    4.5932 H.spc      1 <1>        0.000
@<TRIPOS>BOND
     1    1    2 am 
     2    2    3 2  
     3    2    4 1  
     4    4    5 2  
     5    5    6 1  
     6    6    7 2  
     7    1    8 1  
     8    1    9 1  
     9    4   10 1  
    10    5   11 1  
    11    6   12 1  
    12    7   13 1  
    13    7   14 1  
