#      Rotatable Fragment
#      Build by yxyuan
#
# Name:          frag5-600-107/138278
# Creation time: Sat Jun  5 12:53:46 2010


@<TRIPOS>MOLECULE
frag5-600-107/138278
   20    20     1     1     1
SMALL
USER_CHARGES


@<TRIPOS>ATOM
      1 C13         0.3139   -0.7014    0.9701 C.3        1 <1>        0.000
      2 C14         0.3176    0.8045    0.8239 C.3        1 <1>        0.000
      3 C15         1.6751   -1.3554    0.8870 C.3        1 <1>        0.000
      4 C16         1.3133    1.3092   -0.1938 C.3        1 <1>        0.000
      5 C17         2.6277   -0.6691   -0.0707 C.3        1 <1>        0.000
      6 N3          2.6523    0.7656   -0.0461 N.am       1 <1>        0.000
      7 C18         3.7627    1.4548    0.3540 C.2        1 <1>        0.000
      8 O1          3.5360    2.7724    0.2088 O.3        1 <1>        0.000
      9 O2          4.8171    1.0167    0.7778 O.2        1 <1>        0.000
     10 H          -0.2758   -1.0963    0.1428 H.spc      1 <1>        0.000
     11 H          -0.0801   -0.9201    1.9626 H.spc      1 <1>        0.000
     12 H           0.5944    1.2266    1.7900 H.spc      1 <1>        0.000
     13 H          -0.6750    1.1032    0.4868 H.spc      1 <1>        0.000
     14 H           2.1208   -1.3042    1.8804 H.spc      1 <1>        0.000
     15 H           1.5250   -2.3717    0.5227 H.spc      1 <1>        0.000
     16 H           0.9505    1.0025   -1.1748 H.spc      1 <1>        0.000
     17 H           1.3898    2.3880   -0.0579 H.spc      1 <1>        0.000
     18 H           3.6275   -0.9896    0.2223 H.spc      1 <1>        0.000
     19 H           2.2945   -0.9446   -1.0713 H.spc      1 <1>        0.000
     20 H           2.6506    2.9074   -0.1368 H.spc      1 <1>        0.000
@<TRIPOS>BOND
     1    6    7 am 
     2    4    6 1  
     3    5    6 1  
     4    3    5 1  
     5    1    2 1  
     6    1    3 1  
     7    2    4 1  
     8    7    9 2  
     9    7    8 1  
    10    1   10 1  
    11    1   11 1  
    12    2   12 1  
    13    2   13 1  
    14    3   14 1  
    15    3   15 1  
    16    4   16 1  
    17    4   17 1  
    18    5   18 1  
    19    5   19 1  
    20    8   20 1  
# Name:          frag5-600-107/138278
# Creation time: Sat Jun  5 12:53:46 2010


@<TRIPOS>MOLECULE
frag5-600-107/138278
   20    20     1     1     1
SMALL
USER_CHARGES


@<TRIPOS>ATOM
      1 C13         0.5746   -0.7402   -0.1230 C.3        1 <1>        0.000
      2 C14         0.2217    0.6889    0.2094 C.3        1 <1>        0.000
      3 C15         1.5679   -1.4043    0.7971 C.3        1 <1>        0.000
      4 C16         1.3356    1.4654    0.8674 C.3        1 <1>        0.000
      5 C17         2.6618   -0.4827    1.2714 C.3        1 <1>        0.000
      6 N3          2.6513    0.8733    0.7790 N.am       1 <1>        0.000
      7 C18         3.7249    1.4135    0.1445 C.2        1 <1>        0.000
      8 O1          3.5361    2.7285    0.0123 O.3        1 <1>        0.000
      9 O2          4.7417    0.8549   -0.2470 O.2        1 <1>        0.000
     10 H           1.0360   -0.7208   -1.1103 H.spc      1 <1>        0.000
     11 H          -0.3498   -1.3118   -0.0408 H.spc      1 <1>        0.000
     12 H          -0.6089    0.6589    0.9146 H.spc      1 <1>        0.000
     13 H          -0.0072    1.1902   -0.7310 H.spc      1 <1>        0.000
     14 H           1.0217   -1.7430    1.6775 H.spc      1 <1>        0.000
     15 H           2.0408   -2.2122    0.2387 H.spc      1 <1>        0.000
     16 H           1.3927    2.4222    0.3484 H.spc      1 <1>        0.000
     17 H           1.0911    1.5160    1.9284 H.spc      1 <1>        0.000
     18 H           2.5311   -0.4037    2.3507 H.spc      1 <1>        0.000
     19 H           3.5916   -0.9196    0.9072 H.spc      1 <1>        0.000
     20 H           2.6820    2.9666    0.3803 H.spc      1 <1>        0.000
@<TRIPOS>BOND
     1    6    7 am 
     2    4    6 1  
     3    5    6 1  
     4    3    5 1  
     5    1    2 1  
     6    1    3 1  
     7    2    4 1  
     8    7    9 2  
     9    7    8 1  
    10    1   10 1  
    11    1   11 1  
    12    2   12 1  
    13    2   13 1  
    14    3   14 1  
    15    3   15 1  
    16    4   16 1  
    17    4   17 1  
    18    5   18 1  
    19    5   19 1  
    20    8   20 1  
