#      Rotatable Fragment
#      Build by yxyuan
#
# Name:          frag2-082-1/92655
# Creation time: Sat Jun  5 12:51:58 2010


@<TRIPOS>MOLECULE
frag2-082-1/92655
   22    24     1     1     1
SMALL
USER_CHARGES


@<TRIPOS>ATOM
      1 C1         -0.4911   -2.0707   -0.1212 C.ar       1 <1>        0.000
      2 C2         -1.2000   -0.8642   -0.0484 C.ar       1 <1>        0.000
      3 C3         -0.4941    0.3487    0.0192 C.ar       1 <1>        0.000
      4 C4          0.9090    0.3380    0.0162 C.ar       1 <1>        0.000
      5 N2          1.6135    1.4952    0.0844 N.ar       1 <1>        0.000
      6 C5          2.9691    1.4825    0.0824 C.ar       1 <1>        0.000
      7 C6          3.6453    0.2775    0.0087 C.ar       1 <1>        0.000
      8 C12        -2.6004   -0.8482   -0.0412 C.ar       1 <1>        0.000
      9 N3          2.9520   -0.8728   -0.0605 N.ar       1 <1>        0.000
     10 C7          1.6036   -0.8762   -0.0574 C.ar       1 <1>        0.000
     11 C8          0.8978   -2.0748   -0.1264 C.ar       1 <1>        0.000
     12 C9         -1.2102    1.5562    0.0906 C.ar       1 <1>        0.000
     13 C10        -2.6035    1.5547    0.0973 C.ar       1 <1>        0.000
     14 C11        -3.2970    0.3541    0.0316 C.ar       1 <1>        0.000
     15 H          -1.0344   -3.0142   -0.1742 H.spc      1 <1>        0.000
     16 H           3.5247    2.4186    0.1387 H.spc      1 <1>        0.000
     17 H           4.7352    0.2607    0.0067 H.spc      1 <1>        0.000
     18 H          -3.1506   -1.7877   -0.0932 H.spc      1 <1>        0.000
     19 H           1.4376   -3.0200   -0.1847 H.spc      1 <1>        0.000
     20 H          -0.6708    2.5020    0.1412 H.spc      1 <1>        0.000
     21 H          -3.1491    2.4966    0.1542 H.spc      1 <1>        0.000
     22 H          -4.3870    0.3531    0.0370 H.spc      1 <1>        0.000
@<TRIPOS>BOND
     1    1   11 ar 
     2   13   14 ar 
     3    7    9 ar 
     4   12   13 ar 
     5    6    7 ar 
     6    5    6 ar 
     7   14    8 ar 
     8    3   12 ar 
     9   10   11 ar 
    10    2    3 ar 
    11    4   10 ar 
    12    3    4 ar 
    13    4    5 ar 
    14    9   10 ar 
    15    2    8 ar 
    16    1    2 ar 
    17    1   15 1  
    18    6   16 1  
    19    7   17 1  
    20    8   18 1  
    21   11   19 1  
    22   12   20 1  
    23   13   21 1  
    24   14   22 1  
# Name:          frag2-082-1/92655 -- energy: -0.339001
# Creation time: Sat Jun  5 12:51:58 2010


@<TRIPOS>MOLECULE
frag2-082-1/92655 -- energy: -0.339001
   22    24     1     1     1
SMALL
USER_CHARGES


@<TRIPOS>ATOM
      1 C1         -0.4911   -2.0707   -0.1212 C.ar       1 <1>        0.000
      2 C2         -1.2000   -0.8642   -0.0484 C.ar       1 <1>        0.000
      3 C3         -0.4941    0.3487    0.0192 C.ar       1 <1>        0.000
      4 C4          0.9090    0.3380    0.0162 C.ar       1 <1>        0.000
      5 N2          1.6135    1.4952    0.0844 N.ar       1 <1>        0.000
      6 C5          2.9691    1.4825    0.0824 C.ar       1 <1>        0.000
      7 C6          3.6453    0.2775    0.0087 C.ar       1 <1>        0.000
      8 C12        -2.6004   -0.8482   -0.0412 C.ar       1 <1>        0.000
      9 N3          2.9520   -0.8728   -0.0605 N.ar       1 <1>        0.000
     10 C7          1.6036   -0.8762   -0.0574 C.ar       1 <1>        0.000
     11 C8          0.8978   -2.0748   -0.1264 C.ar       1 <1>        0.000
     12 C9         -1.2102    1.5562    0.0906 C.ar       1 <1>        0.000
     13 C10        -2.6035    1.5547    0.0973 C.ar       1 <1>        0.000
     14 C11        -3.2970    0.3541    0.0316 C.ar       1 <1>        0.000
     15 H          -1.0344   -3.0142   -0.1742 H.spc      1 <1>        0.000
     16 H           3.5247    2.4186    0.1387 H.spc      1 <1>        0.000
     17 H           4.7352    0.2607    0.0067 H.spc      1 <1>        0.000
     18 H          -3.1506   -1.7877   -0.0932 H.spc      1 <1>        0.000
     19 H           1.4376   -3.0200   -0.1847 H.spc      1 <1>        0.000
     20 H          -0.6708    2.5020    0.1412 H.spc      1 <1>        0.000
     21 H          -3.1491    2.4966    0.1542 H.spc      1 <1>        0.000
     22 H          -4.3870    0.3531    0.0370 H.spc      1 <1>        0.000
@<TRIPOS>BOND
     1    1   11 ar 
     2   13   14 ar 
     3    7    9 ar 
     4   12   13 ar 
     5    6    7 ar 
     6    5    6 ar 
     7   14    8 ar 
     8    3   12 ar 
     9   10   11 ar 
    10    2    3 ar 
    11    4   10 ar 
    12    3    4 ar 
    13    4    5 ar 
    14    9   10 ar 
    15    2    8 ar 
    16    1    2 ar 
    17    1   15 1  
    18    6   16 1  
    19    7   17 1  
    20    8   18 1  
    21   11   19 1  
    22   12   20 1  
    23   13   21 1  
    24   14   22 1  
