#      Rotatable Fragment
#      Build by yxyuan
#
# Name:          frag3-235-5/96164
# Creation time: Sat Jun  5 12:53:15 2010


@<TRIPOS>MOLECULE
frag3-235-5/96164
   13    12     1     1     1
SMALL
USER_CHARGES


@<TRIPOS>ATOM
      1 N2         -0.5453   -0.4938    0.0494 N.am       1 <1>        0.000
      2 C6         -0.4994   -1.8479    0.0620 C.2        1 <1>        0.000
      3 C8          0.7538   -2.4256    0.5712 C.2        1 <1>        0.000
      4 O4         -1.4672   -2.5269   -0.2510 O.2        1 <1>        0.000
      5 C10         0.9935   -3.7305    0.3719 C.2        1 <1>        0.000
      6 C12         2.1903   -4.3794    0.9044 C.2        1 <1>        0.000
      7 O5          2.9434   -3.6420    1.7419 O.3        1 <1>        0.000
      8 O6          2.4771   -5.5275    0.6343 O.2        1 <1>        0.000
      9 H          -1.4028   -0.0151   -0.2262 H.spc      1 <1>        0.000
     10 H           0.2777    0.0469    0.3155 H.spc      1 <1>        0.000
     11 H           1.4754   -1.8041    1.1014 H.spc      1 <1>        0.000
     12 H           0.2786   -4.3211   -0.2009 H.spc      1 <1>        0.000
     13 H           2.5586   -2.7669    1.8300 H.spc      1 <1>        0.000
@<TRIPOS>BOND
     1    1    2 am 
     2    2    4 2  
     3    2    3 1  
     4    3    5 2  
     5    5    6 1  
     6    6    7 1  
     7    6    8 2  
     8    1    9 1  
     9    1   10 1  
    10    3   11 1  
    11    5   12 1  
    12    7   13 1  
# Name:          frag3-235-5/96164
# Creation time: Sat Jun  5 12:53:15 2010


@<TRIPOS>MOLECULE
frag3-235-5/96164
   13    12     1     1     1
SMALL
USER_CHARGES


@<TRIPOS>ATOM
      1 N2         -0.4440   -0.7197    0.3578 N.am       1 <1>        0.000
      2 C6         -0.6275   -1.9812   -0.0794 C.2        1 <1>        0.000
      3 C8          0.4490   -2.9874    0.0282 C.2        1 <1>        0.000
      4 O4         -1.6842   -2.2996   -0.6092 O.2        1 <1>        0.000
      5 C10         1.3002   -3.1359    1.0612 C.2        1 <1>        0.000
      6 C12         2.2951   -4.2048    1.0736 C.2        1 <1>        0.000
      7 O5          3.4547   -3.9465    1.6841 O.3        1 <1>        0.000
      8 O6          2.1029   -5.2984    0.5680 O.2        1 <1>        0.000
      9 H          -1.1861   -0.0287    0.2475 H.spc      1 <1>        0.000
     10 H           0.4370   -0.4559    0.7990 H.spc      1 <1>        0.000
     11 H           0.5655   -3.6757   -0.8089 H.spc      1 <1>        0.000
     12 H           1.2455   -2.4458    1.9032 H.spc      1 <1>        0.000
     13 H           3.4429   -3.0489    2.0244 H.spc      1 <1>        0.000
@<TRIPOS>BOND
     1    1    2 am 
     2    2    4 2  
     3    2    3 1  
     4    3    5 2  
     5    5    6 1  
     6    6    7 1  
     7    6    8 2  
     8    1    9 1  
     9    1   10 1  
    10    3   11 1  
    11    5   12 1  
    12    7   13 1  
# Name:          frag3-235-5/96164
# Creation time: Sat Jun  5 12:53:15 2010


@<TRIPOS>MOLECULE
frag3-235-5/96164
   13    12     1     1     1
SMALL
USER_CHARGES


@<TRIPOS>ATOM
      1 N2         -0.9419   -0.6303    0.5633 N.am       1 <1>        0.000
      2 C6         -0.5409   -1.8373    0.0822 C.2        1 <1>        0.000
      3 C8          0.5802   -2.5401    0.7474 C.2        1 <1>        0.000
      4 O4         -1.1102   -2.3240   -0.8847 O.2        1 <1>        0.000
      5 C10         1.1519   -3.6459    0.2405 C.2        1 <1>        0.000
      6 C12         2.2238   -4.3578    0.9306 C.2        1 <1>        0.000
      7 O5          3.4129   -3.7580    1.0295 O.3        1 <1>        0.000
      8 O6          2.0703   -5.4803    1.3754 O.2        1 <1>        0.000
      9 H          -1.7144   -0.1349    0.1180 H.spc      1 <1>        0.000
     10 H          -0.4702   -0.2203    1.3694 H.spc      1 <1>        0.000
     11 H           0.9583   -2.1431    1.6895 H.spc      1 <1>        0.000
     12 H           0.8029   -4.0248   -0.7201 H.spc      1 <1>        0.000
     13 H           3.3639   -2.8853    0.6325 H.spc      1 <1>        0.000
@<TRIPOS>BOND
     1    1    2 am 
     2    2    4 2  
     3    2    3 1  
     4    3    5 2  
     5    5    6 1  
     6    6    7 1  
     7    6    8 2  
     8    1    9 1  
     9    1   10 1  
    10    3   11 1  
    11    5   12 1  
    12    7   13 1  
# Name:          frag3-235-5/96164
# Creation time: Sat Jun  5 12:53:15 2010


@<TRIPOS>MOLECULE
frag3-235-5/96164
   13    12     1     1     1
SMALL
USER_CHARGES


@<TRIPOS>ATOM
      1 N2         -0.5091   -0.6199   -0.6377 N.am       1 <1>        0.000
      2 C6         -0.5056   -1.8124    0.0170 C.2        1 <1>        0.000
      3 C8          0.7935   -2.5025    0.2000 C.2        1 <1>        0.000
      4 O4         -1.5458   -2.2987    0.4472 O.2        1 <1>        0.000
      5 C10         0.9121   -3.6966    0.8286 C.2        1 <1>        0.000
      6 C12         2.2308   -4.3233    1.0103 C.2        1 <1>        0.000
      7 O5          2.1953   -5.5828    1.4511 O.3        1 <1>        0.000
      8 O6          3.2750   -3.7375    0.7677 O.2        1 <1>        0.000
      9 H          -1.3855   -0.1170   -0.7767 H.spc      1 <1>        0.000
     10 H           0.3647   -0.2287   -0.9896 H.spc      1 <1>        0.000
     11 H           1.6942   -2.0276   -0.1889 H.spc      1 <1>        0.000
     12 H           0.0205   -4.1988    1.2040 H.spc      1 <1>        0.000
     13 H           1.2822   -5.8506    1.5779 H.spc      1 <1>        0.000
@<TRIPOS>BOND
     1    1    2 am 
     2    2    4 2  
     3    2    3 1  
     4    3    5 2  
     5    5    6 1  
     6    6    7 1  
     7    6    8 2  
     8    1    9 1  
     9    1   10 1  
    10    3   11 1  
    11    5   12 1  
    12    7   13 1  
# Name:          frag3-235-5/96164
# Creation time: Sat Jun  5 12:53:15 2010


@<TRIPOS>MOLECULE
frag3-235-5/96164
   13    12     1     1     1
SMALL
USER_CHARGES


@<TRIPOS>ATOM
      1 N2         -1.6756   -2.2854    0.3668 N.am       1 <1>        0.000
      2 C6         -0.4909   -1.7784   -0.0184 C.2        1 <1>        0.000
      3 C8          0.7679   -2.5402    0.1841 C.2        1 <1>        0.000
      4 O4         -0.4121   -0.6823   -0.5478 O.2        1 <1>        0.000
      5 C10         0.9187   -3.6825    0.8816 C.2        1 <1>        0.000
      6 C12         2.2080   -4.3773    1.0168 C.2        1 <1>        0.000
      7 O5          3.2746   -3.6345    1.2768 O.3        1 <1>        0.000
      8 O6          2.2556   -5.5930    0.9242 O.2        1 <1>        0.000
      9 H          -2.5316   -1.7511    0.2180 H.spc      1 <1>        0.000
     10 H          -1.7180   -3.2042    0.8077 H.spc      1 <1>        0.000
     11 H           1.6649   -2.1315   -0.2811 H.spc      1 <1>        0.000
     12 H           0.0437   -4.1125    1.3690 H.spc      1 <1>        0.000
     13 H           3.0194   -2.7095    1.3066 H.spc      1 <1>        0.000
@<TRIPOS>BOND
     1    1    2 am 
     2    2    4 2  
     3    2    3 1  
     4    3    5 2  
     5    5    6 1  
     6    6    7 1  
     7    6    8 2  
     8    1    9 1  
     9    1   10 1  
    10    3   11 1  
    11    5   12 1  
    12    7   13 1  
# Name:          frag3-235-5/96164 -- energy: -0.800213
# Creation time: Sat Jun  5 12:53:15 2010


@<TRIPOS>MOLECULE
frag3-235-5/96164 -- energy: -0.800213
   13    12     1     1     1
SMALL
USER_CHARGES


@<TRIPOS>ATOM
      1 N2         -0.4440   -0.7197    0.3578 N.am       1 <1>        0.000
      2 C6         -0.6275   -1.9812   -0.0794 C.2        1 <1>        0.000
      3 C8          0.4490   -2.9874    0.0282 C.2        1 <1>        0.000
      4 O4         -1.6842   -2.2996   -0.6092 O.2        1 <1>        0.000
      5 C10         1.3002   -3.1359    1.0612 C.2        1 <1>        0.000
      6 C12         2.2951   -4.2048    1.0736 C.2        1 <1>        0.000
      7 O5          3.4547   -3.9465    1.6841 O.3        1 <1>        0.000
      8 O6          2.1029   -5.2984    0.5680 O.2        1 <1>        0.000
      9 H          -1.1861   -0.0287    0.2475 H.spc      1 <1>        0.000
     10 H           0.4370   -0.4559    0.7990 H.spc      1 <1>        0.000
     11 H           0.5655   -3.6757   -0.8089 H.spc      1 <1>        0.000
     12 H           1.2455   -2.4458    1.9032 H.spc      1 <1>        0.000
     13 H           3.4429   -3.0489    2.0244 H.spc      1 <1>        0.000
@<TRIPOS>BOND
     1    1    2 am 
     2    2    4 2  
     3    2    3 1  
     4    3    5 2  
     5    5    6 1  
     6    6    7 1  
     7    6    8 2  
     8    1    9 1  
     9    1   10 1  
    10    3   11 1  
    11    5   12 1  
    12    7   13 1  
# Name:          frag3-235-5/96164 -- energy: -0.789906
# Creation time: Sat Jun  5 12:53:15 2010


@<TRIPOS>MOLECULE
frag3-235-5/96164 -- energy: -0.789906
   13    12     1     1     1
SMALL
USER_CHARGES


@<TRIPOS>ATOM
      1 N2         -0.9419   -0.6303    0.5633 N.am       1 <1>        0.000
      2 C6         -0.5409   -1.8373    0.0822 C.2        1 <1>        0.000
      3 C8          0.5802   -2.5401    0.7474 C.2        1 <1>        0.000
      4 O4         -1.1102   -2.3240   -0.8847 O.2        1 <1>        0.000
      5 C10         1.1519   -3.6459    0.2405 C.2        1 <1>        0.000
      6 C12         2.2238   -4.3578    0.9306 C.2        1 <1>        0.000
      7 O5          3.4129   -3.7580    1.0295 O.3        1 <1>        0.000
      8 O6          2.0703   -5.4803    1.3754 O.2        1 <1>        0.000
      9 H          -1.7144   -0.1349    0.1180 H.spc      1 <1>        0.000
     10 H          -0.4702   -0.2203    1.3694 H.spc      1 <1>        0.000
     11 H           0.9583   -2.1431    1.6895 H.spc      1 <1>        0.000
     12 H           0.8029   -4.0248   -0.7201 H.spc      1 <1>        0.000
     13 H           3.3639   -2.8853    0.6325 H.spc      1 <1>        0.000
@<TRIPOS>BOND
     1    1    2 am 
     2    2    4 2  
     3    2    3 1  
     4    3    5 2  
     5    5    6 1  
     6    6    7 1  
     7    6    8 2  
     8    1    9 1  
     9    1   10 1  
    10    3   11 1  
    11    5   12 1  
    12    7   13 1  
# Name:          frag3-235-5/96164 -- energy: -0.478491
# Creation time: Sat Jun  5 12:53:15 2010


@<TRIPOS>MOLECULE
frag3-235-5/96164 -- energy: -0.478491
   13    12     1     1     1
SMALL
USER_CHARGES


@<TRIPOS>ATOM
      1 N2         -0.5091   -0.6199   -0.6377 N.am       1 <1>        0.000
      2 C6         -0.5056   -1.8124    0.0170 C.2        1 <1>        0.000
      3 C8          0.7935   -2.5025    0.2000 C.2        1 <1>        0.000
      4 O4         -1.5458   -2.2987    0.4472 O.2        1 <1>        0.000
      5 C10         0.9121   -3.6966    0.8286 C.2        1 <1>        0.000
      6 C12         2.2308   -4.3233    1.0103 C.2        1 <1>        0.000
      7 O5          2.1953   -5.5828    1.4511 O.3        1 <1>        0.000
      8 O6          3.2750   -3.7375    0.7677 O.2        1 <1>        0.000
      9 H          -1.3855   -0.1170   -0.7767 H.spc      1 <1>        0.000
     10 H           0.3647   -0.2287   -0.9896 H.spc      1 <1>        0.000
     11 H           1.6942   -2.0276   -0.1889 H.spc      1 <1>        0.000
     12 H           0.0205   -4.1988    1.2040 H.spc      1 <1>        0.000
     13 H           1.2822   -5.8506    1.5779 H.spc      1 <1>        0.000
@<TRIPOS>BOND
     1    1    2 am 
     2    2    4 2  
     3    2    3 1  
     4    3    5 2  
     5    5    6 1  
     6    6    7 1  
     7    6    8 2  
     8    1    9 1  
     9    1   10 1  
    10    3   11 1  
    11    5   12 1  
    12    7   13 1  
# Name:          frag3-235-5/96164 -- energy: -0.627910
# Creation time: Sat Jun  5 12:53:15 2010


@<TRIPOS>MOLECULE
frag3-235-5/96164 -- energy: -0.627910
   13    12     1     1     1
SMALL
USER_CHARGES


@<TRIPOS>ATOM
      1 N2         -1.6756   -2.2854    0.3668 N.am       1 <1>        0.000
      2 C6         -0.4909   -1.7784   -0.0184 C.2        1 <1>        0.000
      3 C8          0.7679   -2.5402    0.1841 C.2        1 <1>        0.000
      4 O4         -0.4121   -0.6823   -0.5478 O.2        1 <1>        0.000
      5 C10         0.9187   -3.6825    0.8816 C.2        1 <1>        0.000
      6 C12         2.2080   -4.3773    1.0168 C.2        1 <1>        0.000
      7 O5          3.2746   -3.6345    1.2768 O.3        1 <1>        0.000
      8 O6          2.2556   -5.5930    0.9242 O.2        1 <1>        0.000
      9 H          -2.5316   -1.7511    0.2180 H.spc      1 <1>        0.000
     10 H          -1.7180   -3.2042    0.8077 H.spc      1 <1>        0.000
     11 H           1.6649   -2.1315   -0.2811 H.spc      1 <1>        0.000
     12 H           0.0437   -4.1125    1.3690 H.spc      1 <1>        0.000
     13 H           3.0194   -2.7095    1.3066 H.spc      1 <1>        0.000
@<TRIPOS>BOND
     1    1    2 am 
     2    2    4 2  
     3    2    3 1  
     4    3    5 2  
     5    5    6 1  
     6    6    7 1  
     7    6    8 2  
     8    1    9 1  
     9    1   10 1  
    10    3   11 1  
    11    5   12 1  
    12    7   13 1  
