#      Rotatable Fragment
#      Build by yxyuan
#
# Name:          frag3-253-3/31924
# Creation time: Sat Jun  5 12:52:39 2010


@<TRIPOS>MOLECULE
frag3-253-3/31924
   12    11     1     1     1
SMALL
USER_CHARGES


@<TRIPOS>ATOM
      1 C9          2.4520    0.1809    0.0355 C.2        1 <1>        0.000
      2 C10         1.2723   -0.4064   -0.2189 C.2        1 <1>        0.000
      3 C11        -0.0015    0.2852    0.1220 C.2        1 <1>        0.000
      4 O3         -0.0061    1.3767    0.6863 O.2        1 <1>        0.000
      5 C12        -1.2703   -0.3998   -0.2496 C.2        1 <1>        0.000
      6 C13        -2.4549    0.1656    0.0326 C.2        1 <1>        0.000
      7 H           2.4811    1.1693    0.4940 H.spc      1 <1>        0.000
      8 H           3.3810   -0.3306   -0.2164 H.spc      1 <1>        0.000
      9 H           1.2466   -1.3949   -0.6775 H.spc      1 <1>        0.000
     10 H          -1.2372   -1.3657   -0.7536 H.spc      1 <1>        0.000
     11 H          -2.4916    1.1314    0.5365 H.spc      1 <1>        0.000
     12 H          -3.3800   -0.3412   -0.2422 H.spc      1 <1>        0.000
@<TRIPOS>BOND
     1    1    2 2  
     2    2    3 1  
     3    3    4 2  
     4    3    5 1  
     5    5    6 2  
     6    1    7 1  
     7    1    8 1  
     8    2    9 1  
     9    5   10 1  
    10    6   11 1  
    11    6   12 1  
# Name:          frag3-253-3/31924
# Creation time: Sat Jun  5 12:52:39 2010


@<TRIPOS>MOLECULE
frag3-253-3/31924
   12    11     1     1     1
SMALL
USER_CHARGES


@<TRIPOS>ATOM
      1 C9          2.1447   -0.0258   -0.4634 C.2        1 <1>        0.000
      2 C10         0.9572   -0.4535   -0.0307 C.2        1 <1>        0.000
      3 C11        -0.0390    0.5333    0.4335 C.2        1 <1>        0.000
      4 O3          0.2728    1.5841    0.9804 O.2        1 <1>        0.000
      5 C12        -1.4621    0.1835    0.2347 C.2        1 <1>        0.000
      6 C13        -1.8820   -0.6193   -0.7465 C.2        1 <1>        0.000
      7 H           2.3701    1.0406   -0.4714 H.spc      1 <1>        0.000
      8 H           2.8894   -0.7428   -0.8089 H.spc      1 <1>        0.000
      9 H           0.7250   -1.5184   -0.0199 H.spc      1 <1>        0.000
     10 H          -2.2012    0.5994    0.9195 H.spc      1 <1>        0.000
     11 H          -1.1634   -1.0483   -1.4448 H.spc      1 <1>        0.000
     12 H          -2.9433   -0.8455   -0.8490 H.spc      1 <1>        0.000
@<TRIPOS>BOND
     1    1    2 2  
     2    2    3 1  
     3    3    4 2  
     4    3    5 1  
     5    5    6 2  
     6    1    7 1  
     7    1    8 1  
     8    2    9 1  
     9    5   10 1  
    10    6   11 1  
    11    6   12 1  
# Name:          frag3-253-3/31924
# Creation time: Sat Jun  5 12:52:39 2010


@<TRIPOS>MOLECULE
frag3-253-3/31924
   12    11     1     1     1
SMALL
USER_CHARGES


@<TRIPOS>ATOM
      1 C9         -1.5582   -0.9538   -0.4053 C.2        1 <1>        0.000
      2 C10        -1.2434    0.3440   -0.3026 C.2        1 <1>        0.000
      3 C11        -0.0169    0.7696    0.4270 C.2        1 <1>        0.000
      4 O3          0.0417    1.8464    1.0081 O.2        1 <1>        0.000
      5 C12         1.1363   -0.1730    0.4193 C.2        1 <1>        0.000
      6 C13         1.6321   -0.6309   -0.7385 C.2        1 <1>        0.000
      7 H          -0.9145   -1.7082    0.0471 H.spc      1 <1>        0.000
      8 H          -2.4580   -1.2556   -0.9413 H.spc      1 <1>        0.000
      9 H          -1.8902    1.0947   -0.7567 H.spc      1 <1>        0.000
     10 H           1.5802   -0.4927    1.3621 H.spc      1 <1>        0.000
     11 H           1.1912   -0.3138   -1.6836 H.spc      1 <1>        0.000
     12 H           2.4762   -1.3205   -0.7351 H.spc      1 <1>        0.000
@<TRIPOS>BOND
     1    1    2 2  
     2    2    3 1  
     3    3    4 2  
     4    3    5 1  
     5    5    6 2  
     6    1    7 1  
     7    1    8 1  
     8    2    9 1  
     9    5   10 1  
    10    6   11 1  
    11    6   12 1  
# Name:          frag3-253-3/31924
# Creation time: Sat Jun  5 12:52:39 2010


@<TRIPOS>MOLECULE
frag3-253-3/31924
   12    11     1     1     1
SMALL
USER_CHARGES


@<TRIPOS>ATOM
      1 C9         -1.9002   -0.4318   -0.6622 C.2        1 <1>        0.000
      2 C10        -1.0887   -0.3075    0.3980 C.2        1 <1>        0.000
      3 C11         0.0090    0.6827    0.3777 C.2        1 <1>        0.000
      4 O3         -0.1094    1.7594    0.9534 O.2        1 <1>        0.000
      5 C12         1.2481    0.3517   -0.3641 C.2        1 <1>        0.000
      6 C13         1.8329   -0.8522   -0.2948 C.2        1 <1>        0.000
      7 H          -1.7508    0.1974   -1.5396 H.spc      1 <1>        0.000
      8 H          -2.7093   -1.1620   -0.6466 H.spc      1 <1>        0.000
      9 H          -1.2384   -0.9368    1.2753 H.spc      1 <1>        0.000
     10 H           1.7025    1.1184   -0.9916 H.spc      1 <1>        0.000
     11 H           1.3970   -1.6349    0.3261 H.spc      1 <1>        0.000
     12 H           2.7444   -1.0486   -0.8593 H.spc      1 <1>        0.000
@<TRIPOS>BOND
     1    1    2 2  
     2    2    3 1  
     3    3    4 2  
     4    3    5 1  
     5    5    6 2  
     6    1    7 1  
     7    1    8 1  
     8    2    9 1  
     9    5   10 1  
    10    6   11 1  
    11    6   12 1  
# Name:          frag3-253-3/31924 -- energy: -0.513981
# Creation time: Sat Jun  5 12:52:39 2010


@<TRIPOS>MOLECULE
frag3-253-3/31924 -- energy: -0.513981
   12    11     1     1     1
SMALL
USER_CHARGES


@<TRIPOS>ATOM
      1 C9          2.4520    0.1809    0.0355 C.2        1 <1>        0.000
      2 C10         1.2723   -0.4064   -0.2189 C.2        1 <1>        0.000
      3 C11        -0.0015    0.2852    0.1220 C.2        1 <1>        0.000
      4 O3         -0.0061    1.3767    0.6863 O.2        1 <1>        0.000
      5 C12        -1.2703   -0.3998   -0.2496 C.2        1 <1>        0.000
      6 C13        -2.4549    0.1656    0.0326 C.2        1 <1>        0.000
      7 H           2.4811    1.1693    0.4940 H.spc      1 <1>        0.000
      8 H           3.3810   -0.3306   -0.2164 H.spc      1 <1>        0.000
      9 H           1.2466   -1.3949   -0.6775 H.spc      1 <1>        0.000
     10 H          -1.2372   -1.3657   -0.7536 H.spc      1 <1>        0.000
     11 H          -2.4916    1.1314    0.5365 H.spc      1 <1>        0.000
     12 H          -3.3800   -0.3412   -0.2422 H.spc      1 <1>        0.000
@<TRIPOS>BOND
     1    1    2 2  
     2    2    3 1  
     3    3    4 2  
     4    3    5 1  
     5    5    6 2  
     6    1    7 1  
     7    1    8 1  
     8    2    9 1  
     9    5   10 1  
    10    6   11 1  
    11    6   12 1  
# Name:          frag3-253-3/31924 -- energy: -0.679141
# Creation time: Sat Jun  5 12:52:39 2010


@<TRIPOS>MOLECULE
frag3-253-3/31924 -- energy: -0.679141
   12    11     1     1     1
SMALL
USER_CHARGES


@<TRIPOS>ATOM
      1 C9          2.1447   -0.0258   -0.4634 C.2        1 <1>        0.000
      2 C10         0.9572   -0.4535   -0.0307 C.2        1 <1>        0.000
      3 C11        -0.0390    0.5333    0.4335 C.2        1 <1>        0.000
      4 O3          0.2728    1.5841    0.9804 O.2        1 <1>        0.000
      5 C12        -1.4621    0.1835    0.2347 C.2        1 <1>        0.000
      6 C13        -1.8820   -0.6193   -0.7465 C.2        1 <1>        0.000
      7 H           2.3701    1.0406   -0.4714 H.spc      1 <1>        0.000
      8 H           2.8894   -0.7428   -0.8089 H.spc      1 <1>        0.000
      9 H           0.7250   -1.5184   -0.0199 H.spc      1 <1>        0.000
     10 H          -2.2012    0.5994    0.9195 H.spc      1 <1>        0.000
     11 H          -1.1634   -1.0483   -1.4448 H.spc      1 <1>        0.000
     12 H          -2.9433   -0.8455   -0.8490 H.spc      1 <1>        0.000
@<TRIPOS>BOND
     1    1    2 2  
     2    2    3 1  
     3    3    4 2  
     4    3    5 1  
     5    5    6 2  
     6    1    7 1  
     7    1    8 1  
     8    2    9 1  
     9    5   10 1  
    10    6   11 1  
    11    6   12 1  
# Name:          frag3-253-3/31924 -- energy: -0.811699
# Creation time: Sat Jun  5 12:52:39 2010


@<TRIPOS>MOLECULE
frag3-253-3/31924 -- energy: -0.811699
   12    11     1     1     1
SMALL
USER_CHARGES


@<TRIPOS>ATOM
      1 C9         -1.5582   -0.9538   -0.4053 C.2        1 <1>        0.000
      2 C10        -1.2434    0.3440   -0.3026 C.2        1 <1>        0.000
      3 C11        -0.0169    0.7696    0.4270 C.2        1 <1>        0.000
      4 O3          0.0417    1.8464    1.0081 O.2        1 <1>        0.000
      5 C12         1.1363   -0.1730    0.4193 C.2        1 <1>        0.000
      6 C13         1.6321   -0.6309   -0.7385 C.2        1 <1>        0.000
      7 H          -0.9145   -1.7082    0.0471 H.spc      1 <1>        0.000
      8 H          -2.4580   -1.2556   -0.9413 H.spc      1 <1>        0.000
      9 H          -1.8902    1.0947   -0.7567 H.spc      1 <1>        0.000
     10 H           1.5802   -0.4927    1.3621 H.spc      1 <1>        0.000
     11 H           1.1912   -0.3138   -1.6836 H.spc      1 <1>        0.000
     12 H           2.4762   -1.3205   -0.7351 H.spc      1 <1>        0.000
@<TRIPOS>BOND
     1    1    2 2  
     2    2    3 1  
     3    3    4 2  
     4    3    5 1  
     5    5    6 2  
     6    1    7 1  
     7    1    8 1  
     8    2    9 1  
     9    5   10 1  
    10    6   11 1  
    11    6   12 1  
# Name:          frag3-253-3/31924 -- energy: -0.874665
# Creation time: Sat Jun  5 12:52:39 2010


@<TRIPOS>MOLECULE
frag3-253-3/31924 -- energy: -0.874665
   12    11     1     1     1
SMALL
USER_CHARGES


@<TRIPOS>ATOM
      1 C9         -1.9002   -0.4318   -0.6622 C.2        1 <1>        0.000
      2 C10        -1.0887   -0.3075    0.3980 C.2        1 <1>        0.000
      3 C11         0.0090    0.6827    0.3777 C.2        1 <1>        0.000
      4 O3         -0.1094    1.7594    0.9534 O.2        1 <1>        0.000
      5 C12         1.2481    0.3517   -0.3641 C.2        1 <1>        0.000
      6 C13         1.8329   -0.8522   -0.2948 C.2        1 <1>        0.000
      7 H          -1.7508    0.1974   -1.5396 H.spc      1 <1>        0.000
      8 H          -2.7093   -1.1620   -0.6466 H.spc      1 <1>        0.000
      9 H          -1.2384   -0.9368    1.2753 H.spc      1 <1>        0.000
     10 H           1.7025    1.1184   -0.9916 H.spc      1 <1>        0.000
     11 H           1.3970   -1.6349    0.3261 H.spc      1 <1>        0.000
     12 H           2.7444   -1.0486   -0.8593 H.spc      1 <1>        0.000
@<TRIPOS>BOND
     1    1    2 2  
     2    2    3 1  
     3    3    4 2  
     4    3    5 1  
     5    5    6 2  
     6    1    7 1  
     7    1    8 1  
     8    2    9 1  
     9    5   10 1  
    10    6   11 1  
    11    6   12 1  
