#      Rotatable Fragment
#      Build by yxyuan
#
# Name:          frag4-357-366/150395
# Creation time: Sat Jun  5 12:53:32 2010


@<TRIPOS>MOLECULE
frag4-357-366/150395
   16    16     1     1     1
SMALL
USER_CHARGES


@<TRIPOS>ATOM
      1 C1         -1.9909   -0.6211    0.0209 C.2        1 <1>        0.000
      2 C2         -3.3093    0.1008    0.1016 C.3        1 <1>        0.000
      3 C3         -1.8900   -1.9578   -0.0495 C.2        1 <1>        0.000
      4 C5         -4.4958   -0.8042   -0.2858 C.3        1 <1>        0.000
      5 C8         -3.0844   -2.8737   -0.0409 C.3        1 <1>        0.000
      6 C11        -4.3682   -2.1594    0.4268 C.3        1 <1>        0.000
      7 H          -1.0748   -0.0305    0.0196 H.spc      1 <1>        0.000
      8 H          -3.2801    0.9377   -0.5961 H.spc      1 <1>        0.000
      9 H          -3.4543    0.4265    1.1317 H.spc      1 <1>        0.000
     10 H          -0.8963   -2.4008   -0.1160 H.spc      1 <1>        0.000
     11 H          -4.4929   -0.9616   -1.3644 H.spc      1 <1>        0.000
     12 H          -5.4281   -0.3252    0.0133 H.spc      1 <1>        0.000
     13 H          -2.8797   -3.6889    0.6531 H.spc      1 <1>        0.000
     14 H          -3.2464   -3.2268   -1.0593 H.spc      1 <1>        0.000
     15 H          -5.2334   -2.7771    0.1861 H.spc      1 <1>        0.000
     16 H          -4.3200   -1.9982    1.5037 H.spc      1 <1>        0.000
@<TRIPOS>BOND
     1    1    2 1  
     2    1    3 2  
     3    2    4 1  
     4    3    5 1  
     5    4    6 1  
     6    5    6 1  
     7    1    7 1  
     8    2    8 1  
     9    2    9 1  
    10    3   10 1  
    11    4   11 1  
    12    4   12 1  
    13    5   13 1  
    14    5   14 1  
    15    6   15 1  
    16    6   16 1  
# Name:          frag4-357-366/150395 -- energy: -0.980687
# Creation time: Sat Jun  5 12:53:32 2010


@<TRIPOS>MOLECULE
frag4-357-366/150395 -- energy: -0.980687
   16    16     1     1     1
SMALL
USER_CHARGES


@<TRIPOS>ATOM
      1 C1         -1.9909   -0.6211    0.0209 C.2        1 <1>        0.000
      2 C2         -3.3093    0.1008    0.1016 C.3        1 <1>        0.000
      3 C3         -1.8900   -1.9578   -0.0495 C.2        1 <1>        0.000
      4 C5         -4.4958   -0.8042   -0.2858 C.3        1 <1>        0.000
      5 C8         -3.0844   -2.8737   -0.0409 C.3        1 <1>        0.000
      6 C11        -4.3682   -2.1594    0.4268 C.3        1 <1>        0.000
      7 H          -1.0748   -0.0305    0.0196 H.spc      1 <1>        0.000
      8 H          -3.2801    0.9377   -0.5961 H.spc      1 <1>        0.000
      9 H          -3.4543    0.4265    1.1317 H.spc      1 <1>        0.000
     10 H          -0.8963   -2.4008   -0.1160 H.spc      1 <1>        0.000
     11 H          -4.4929   -0.9616   -1.3644 H.spc      1 <1>        0.000
     12 H          -5.4281   -0.3252    0.0133 H.spc      1 <1>        0.000
     13 H          -2.8797   -3.6889    0.6531 H.spc      1 <1>        0.000
     14 H          -3.2464   -3.2268   -1.0593 H.spc      1 <1>        0.000
     15 H          -5.2334   -2.7771    0.1861 H.spc      1 <1>        0.000
     16 H          -4.3200   -1.9982    1.5037 H.spc      1 <1>        0.000
@<TRIPOS>BOND
     1    1    2 1  
     2    1    3 2  
     3    2    4 1  
     4    3    5 1  
     5    4    6 1  
     6    5    6 1  
     7    1    7 1  
     8    2    8 1  
     9    2    9 1  
    10    3   10 1  
    11    4   11 1  
    12    4   12 1  
    13    5   13 1  
    14    5   14 1  
    15    6   15 1  
    16    6   16 1  
