#      Rotatable Fragment
#      Build by yxyuan
#
# Name:          frag5-494-892/138278
# Creation time: Sat Jun  5 12:53:39 2010


@<TRIPOS>MOLECULE
frag5-494-892/138278
   27    29     1     1     1
SMALL
USER_CHARGES


@<TRIPOS>ATOM
      1 C7          0.7582    1.8092    0.2382 C.ar       1 <1>        0.000
      2 C9         -0.4811    2.4281    0.3037 C.ar       1 <1>        0.000
      3 C10         0.8279    0.5116   -0.2456 C.ar       1 <1>        0.000
      4 C12        -1.6280    1.7013   -0.0576 C.ar       1 <1>        0.000
      5 C13        -0.3610   -0.1620   -0.5736 C.ar       1 <1>        0.000
      6 C15        -1.6244    0.2918   -0.1437 C.ar       1 <1>        0.000
      7 C16        -2.8291   -0.5495   -0.1366 C.ar       1 <1>        0.000
      8 N5         -2.4747   -0.8444    4.3089 N.2        1 <1>        0.000
      9 C17        -3.1682   -1.3609    0.9400 C.ar       1 <1>        0.000
     10 C18        -3.8850   -0.4404   -1.0384 C.ar       1 <1>        0.000
     11 C19        -2.4663   -1.2620    2.1782 C.3        1 <1>        0.000
     12 C20        -4.1349   -2.3699    0.8541 C.ar       1 <1>        0.000
     13 C21        -4.7838   -1.4885   -1.2194 C.ar       1 <1>        0.000
     14 N3         -3.2394   -0.8512    3.2491 N.2        1 <1>        0.000
     15 N4         -1.1780   -1.5332    2.6717 N.2        1 <1>        0.000
     16 C22        -4.8929   -2.4850   -0.2785 C.ar       1 <1>        0.000
     17 N6         -1.1998   -1.2669    3.8953 N.2        1 <1>        0.000
     18 H           1.6588    2.3319    0.5603 H.spc      1 <1>        0.000
     19 H          -0.5643    3.4644    0.6311 H.spc      1 <1>        0.000
     20 H           1.7928    0.0202   -0.3700 H.spc      1 <1>        0.000
     21 H          -2.5485    2.2419   -0.2781 H.spc      1 <1>        0.000
     22 H          -0.3043   -1.0655   -1.1807 H.spc      1 <1>        0.000
     23 H          -4.0096    0.4788   -1.6108 H.spc      1 <1>        0.000
     24 H          -1.9648   -1.3916    1.2192 H.spc      1 <1>        0.000
     25 H          -4.2826   -3.0597    1.6850 H.spc      1 <1>        0.000
     26 H          -5.4057   -1.5191   -2.1140 H.spc      1 <1>        0.000
     27 H          -5.5585   -3.3349   -0.4295 H.spc      1 <1>        0.000
@<TRIPOS>BOND
     1    8   17 1  
     2   15   17 2  
     3   11   14 1  
     4    9   12 ar 
     5    5    6 ar 
     6   13   16 ar 
     7   12   16 ar 
     8   14    8 2  
     9    6    7 1  
    10    2    4 ar 
    11    9   11 1  
    12    1    3 ar 
    13    7    9 ar 
    14    7   10 ar 
    15    4    6 ar 
    16   10   13 ar 
    17    1    2 ar 
    18   11   15 1  
    19    3    5 ar 
    20    1   18 1  
    21    2   19 1  
    22    3   20 1  
    23    4   21 1  
    24    5   22 1  
    25   10   23 1  
    26   11   24 1  
    27   12   25 1  
    28   13   26 1  
    29   16   27 1  
# Name:          frag5-494-892/138278
# Creation time: Sat Jun  5 12:53:39 2010


@<TRIPOS>MOLECULE
frag5-494-892/138278
   27    29     1     1     1
SMALL
USER_CHARGES


@<TRIPOS>ATOM
      1 C7          0.7256    1.9263   -0.5439 C.ar       1 <1>        0.000
      2 C9          0.7741    0.7509    0.1876 C.ar       1 <1>        0.000
      3 C10        -0.5046    2.5121   -0.7944 C.ar       1 <1>        0.000
      4 C12        -0.4240    0.1477    0.5918 C.ar       1 <1>        0.000
      5 C13        -1.6733    1.8525   -0.3775 C.ar       1 <1>        0.000
      6 C15        -1.6729    0.4909    0.0297 C.ar       1 <1>        0.000
      7 C16        -2.8337   -0.4035    0.0242 C.ar       1 <1>        0.000
      8 N5         -2.1893   -0.7481    4.2461 N.2        1 <1>        0.000
      9 C17        -3.1467   -1.3823    0.9812 C.ar       1 <1>        0.000
     10 C18        -3.8490   -0.2997   -0.9094 C.ar       1 <1>        0.000
     11 C19        -2.5123   -1.5270    2.2273 C.3        1 <1>        0.000
     12 C20        -4.0029   -2.4401    0.7576 C.ar       1 <1>        0.000
     13 C21        -4.6855   -1.3743   -1.2139 C.ar       1 <1>        0.000
     14 N3         -2.7986   -0.5057    3.1254 N.2        1 <1>        0.000
     15 N4         -1.7110   -2.4408    2.9278 N.2        1 <1>        0.000
     16 C22        -4.7280   -2.4694   -0.3828 C.ar       1 <1>        0.000
     17 N6         -1.5282   -1.9615    4.0689 N.2        1 <1>        0.000
     18 H           1.6420    2.3836   -0.9170 H.spc      1 <1>        0.000
     19 H           1.7328    0.3008    0.4455 H.spc      1 <1>        0.000
     20 H          -0.5652    3.4716   -1.3079 H.spc      1 <1>        0.000
     21 H          -0.3908   -0.6153    1.3695 H.spc      1 <1>        0.000
     22 H          -2.6131    2.4045   -0.3660 H.spc      1 <1>        0.000
     23 H          -4.0002    0.6499   -1.4226 H.spc      1 <1>        0.000
     24 H          -2.2285   -2.1415    1.3729 H.spc      1 <1>        0.000
     25 H          -4.0937   -3.2417    1.4906 H.spc      1 <1>        0.000
     26 H          -5.3051   -1.3458   -2.1102 H.spc      1 <1>        0.000
     27 H          -5.3320   -3.3402   -0.6377 H.spc      1 <1>        0.000
@<TRIPOS>BOND
     1    8   17 1  
     2   15   17 2  
     3   11   14 1  
     4    9   12 ar 
     5    5    6 ar 
     6   13   16 ar 
     7   12   16 ar 
     8   14    8 2  
     9    6    7 1  
    10    2    4 ar 
    11    9   11 1  
    12    1    3 ar 
    13    7    9 ar 
    14    7   10 ar 
    15    4    6 ar 
    16   10   13 ar 
    17    1    2 ar 
    18   11   15 1  
    19    3    5 ar 
    20    1   18 1  
    21    2   19 1  
    22    3   20 1  
    23    4   21 1  
    24    5   22 1  
    25   10   23 1  
    26   11   24 1  
    27   12   25 1  
    28   13   26 1  
    29   16   27 1  
# Name:          frag5-494-892/138278
# Creation time: Sat Jun  5 12:53:39 2010


@<TRIPOS>MOLECULE
frag5-494-892/138278
   27    29     1     1     1
SMALL
USER_CHARGES


@<TRIPOS>ATOM
      1 C7          0.9346    1.5441    0.0454 C.ar       1 <1>        0.000
      2 C9         -0.0286    1.7982    1.0091 C.ar       1 <1>        0.000
      3 C10         0.5693    0.8722   -1.1107 C.ar       1 <1>        0.000
      4 C12        -1.3278    1.3065    0.8251 C.ar       1 <1>        0.000
      5 C13        -0.7445    0.3887   -1.2347 C.ar       1 <1>        0.000
      6 C15        -1.6297    0.3071   -0.1334 C.ar       1 <1>        0.000
      7 C16        -2.8217   -0.5513   -0.1125 C.ar       1 <1>        0.000
      8 N5         -2.7088   -0.7873    4.3394 N.2        1 <1>        0.000
      9 C17        -3.1905   -1.3309    0.9618 C.ar       1 <1>        0.000
     10 C18        -3.7833   -0.5731   -1.1025 C.ar       1 <1>        0.000
     11 C19        -2.5324   -1.1544    2.1856 C.3        1 <1>        0.000
     12 C20        -4.0723   -2.4226    0.8794 C.ar       1 <1>        0.000
     13 C21        -4.6438   -1.6581   -1.2711 C.ar       1 <1>        0.000
     14 N3         -3.3968   -0.9420    3.2478 N.2        1 <1>        0.000
     15 N4         -1.2459   -1.1472    2.7406 N.2        1 <1>        0.000
     16 C22        -4.7561   -2.6096   -0.2818 C.ar       1 <1>        0.000
     17 N6         -1.3822   -0.9118    3.9585 N.2        1 <1>        0.000
     18 H           1.9646    1.8680    0.1945 H.spc      1 <1>        0.000
     19 H           0.2217    2.3740    1.9001 H.spc      1 <1>        0.000
     20 H           1.2914    0.7208   -1.9130 H.spc      1 <1>        0.000
     21 H          -2.1339    1.7064    1.4403 H.spc      1 <1>        0.000
     22 H          -1.0945    0.0647   -2.2148 H.spc      1 <1>        0.000
     23 H          -3.8729    0.2823   -1.7720 H.spc      1 <1>        0.000
     24 H          -1.9693   -1.2584    1.2581 H.spc      1 <1>        0.000
     25 H          -4.2045   -3.1006    1.7226 H.spc      1 <1>        0.000
     26 H          -5.2278   -1.7529   -2.1866 H.spc      1 <1>        0.000
     27 H          -5.3788   -3.4926   -0.4259 H.spc      1 <1>        0.000
@<TRIPOS>BOND
     1    8   17 1  
     2   15   17 2  
     3   11   14 1  
     4    9   12 ar 
     5    5    6 ar 
     6   13   16 ar 
     7   12   16 ar 
     8   14    8 2  
     9    6    7 1  
    10    2    4 ar 
    11    9   11 1  
    12    1    3 ar 
    13    7    9 ar 
    14    7   10 ar 
    15    4    6 ar 
    16   10   13 ar 
    17    1    2 ar 
    18   11   15 1  
    19    3    5 ar 
    20    1   18 1  
    21    2   19 1  
    22    3   20 1  
    23    4   21 1  
    24    5   22 1  
    25   10   23 1  
    26   11   24 1  
    27   12   25 1  
    28   13   26 1  
    29   16   27 1  
# Name:          frag5-494-892/138278
# Creation time: Sat Jun  5 12:53:39 2010


@<TRIPOS>MOLECULE
frag5-494-892/138278
   27    29     1     1     1
SMALL
USER_CHARGES


@<TRIPOS>ATOM
      1 C7          0.9688    1.5383   -0.0217 C.ar       1 <1>        0.000
      2 C9          0.0452    1.7516    0.9885 C.ar       1 <1>        0.000
      3 C10         0.5606    0.9122   -1.1881 C.ar       1 <1>        0.000
      4 C12        -1.2573    1.2615    0.8372 C.ar       1 <1>        0.000
      5 C13        -0.7547    0.4325   -1.2816 C.ar       1 <1>        0.000
      6 C15        -1.5982    0.3049   -0.1483 C.ar       1 <1>        0.000
      7 C16        -2.7697   -0.5668   -0.1078 C.ar       1 <1>        0.000
      8 N5         -1.4477   -1.3657    3.9583 N.2        1 <1>        0.000
      9 C17        -3.2053   -1.3187    0.9758 C.ar       1 <1>        0.000
     10 C18        -3.7712   -0.5588   -1.0744 C.ar       1 <1>        0.000
     11 C19        -2.8204   -1.0641    2.2921 C.3        1 <1>        0.000
     12 C20        -3.9856   -2.4591    0.8560 C.ar       1 <1>        0.000
     13 C21        -4.6407   -1.6376   -1.2519 C.ar       1 <1>        0.000
     14 N3         -1.6663   -1.7015    2.7315 N.2        1 <1>        0.000
     15 N4         -3.2431   -0.2933    3.3598 N.2        1 <1>        0.000
     16 C22        -4.7160   -2.6137   -0.2791 C.ar       1 <1>        0.000
     17 N6         -2.4588   -0.4934    4.2996 N.2        1 <1>        0.000
     18 H           2.0035    1.8590    0.0996 H.spc      1 <1>        0.000
     19 H           0.3292    2.2944    1.8901 H.spc      1 <1>        0.000
     20 H           1.2521    0.7938   -2.0223 H.spc      1 <1>        0.000
     21 H          -2.0376    1.6303    1.5030 H.spc      1 <1>        0.000
     22 H          -1.1421    0.1478   -2.2599 H.spc      1 <1>        0.000
     23 H          -3.8805    0.3174   -1.7134 H.spc      1 <1>        0.000
     24 H          -3.7254   -0.7592    1.7667 H.spc      1 <1>        0.000
     25 H          -4.0120   -3.2078    1.6477 H.spc      1 <1>        0.000
     26 H          -5.2540   -1.7078   -2.1503 H.spc      1 <1>        0.000
     27 H          -5.3484   -3.4905   -0.4186 H.spc      1 <1>        0.000
@<TRIPOS>BOND
     1    8   17 1  
     2   15   17 2  
     3   11   14 1  
     4    9   12 ar 
     5    5    6 ar 
     6   13   16 ar 
     7   12   16 ar 
     8   14    8 2  
     9    6    7 1  
    10    2    4 ar 
    11    9   11 1  
    12    1    3 ar 
    13    7    9 ar 
    14    7   10 ar 
    15    4    6 ar 
    16   10   13 ar 
    17    1    2 ar 
    18   11   15 1  
    19    3    5 ar 
    20    1   18 1  
    21    2   19 1  
    22    3   20 1  
    23    4   21 1  
    24    5   22 1  
    25   10   23 1  
    26   11   24 1  
    27   12   25 1  
    28   13   26 1  
    29   16   27 1  
# Name:          frag5-494-892/138278
# Creation time: Sat Jun  5 12:53:39 2010


@<TRIPOS>MOLECULE
frag5-494-892/138278
   27    29     1     1     1
SMALL
USER_CHARGES


@<TRIPOS>ATOM
      1 C7          0.5353    2.2200   -0.5140 C.ar       1 <1>        0.000
      2 C9          0.3982    1.1286   -1.3565 C.ar       1 <1>        0.000
      3 C10        -0.1671    2.2319    0.6798 C.ar       1 <1>        0.000
      4 C12        -0.4946    0.1058   -1.0068 C.ar       1 <1>        0.000
      5 C13        -1.0549    1.1772    0.9582 C.ar       1 <1>        0.000
      6 C15        -1.5080    0.2866   -0.0485 C.ar       1 <1>        0.000
      7 C16        -2.6961   -0.5801   -0.0395 C.ar       1 <1>        0.000
      8 N5         -2.4340   -0.4275    4.2703 N.2        1 <1>        0.000
      9 C17        -3.1406   -1.4027    1.0079 C.ar       1 <1>        0.000
     10 C18        -3.6456   -0.5110   -1.0525 C.ar       1 <1>        0.000
     11 C19        -2.6044   -1.3864    2.3291 C.3        1 <1>        0.000
     12 C20        -4.0806   -2.4071    0.8404 C.ar       1 <1>        0.000
     13 C21        -4.5250   -1.5597   -1.2962 C.ar       1 <1>        0.000
     14 N3         -2.9696   -0.2912    3.0858 N.2        1 <1>        0.000
     15 N4         -1.8803   -2.2499    3.1702 N.2        1 <1>        0.000
     16 C22        -4.7191   -2.5398   -0.3554 C.ar       1 <1>        0.000
     17 N6         -1.7741   -1.6665    4.2738 N.2        1 <1>        0.000
     18 H           1.1835    3.0533   -0.7854 H.spc      1 <1>        0.000
     19 H           0.9764    1.0661   -2.2784 H.spc      1 <1>        0.000
     20 H          -0.0339    3.0459    1.3923 H.spc      1 <1>        0.000
     21 H          -0.4000   -0.8641   -1.4950 H.spc      1 <1>        0.000
     22 H          -1.4062    1.0397    1.9808 H.spc      1 <1>        0.000
     23 H          -3.7018    0.3857   -1.6696 H.spc      1 <1>        0.000
     24 H          -2.1535   -1.9889    1.5405 H.spc      1 <1>        0.000
     25 H          -4.3078   -3.0873    1.6613 H.spc      1 <1>        0.000
     26 H          -5.0647   -1.6039   -2.2422 H.spc      1 <1>        0.000
     27 H          -5.3627   -3.3958   -0.5583 H.spc      1 <1>        0.000
@<TRIPOS>BOND
     1    8   17 1  
     2   15   17 2  
     3   11   14 1  
     4    9   12 ar 
     5    5    6 ar 
     6   13   16 ar 
     7   12   16 ar 
     8   14    8 2  
     9    6    7 1  
    10    2    4 ar 
    11    9   11 1  
    12    1    3 ar 
    13    7    9 ar 
    14    7   10 ar 
    15    4    6 ar 
    16   10   13 ar 
    17    1    2 ar 
    18   11   15 1  
    19    3    5 ar 
    20    1   18 1  
    21    2   19 1  
    22    3   20 1  
    23    4   21 1  
    24    5   22 1  
    25   10   23 1  
    26   11   24 1  
    27   12   25 1  
    28   13   26 1  
    29   16   27 1  
# Name:          frag5-494-892/138278
# Creation time: Sat Jun  5 12:53:39 2010


@<TRIPOS>MOLECULE
frag5-494-892/138278
   27    29     1     1     1
SMALL
USER_CHARGES


@<TRIPOS>ATOM
      1 C7          0.7257    1.9249    0.1197 C.ar       1 <1>        0.000
      2 C9         -0.4515    2.4467   -0.3900 C.ar       1 <1>        0.000
      3 C10         0.8389    0.5534    0.2843 C.ar       1 <1>        0.000
      4 C12        -1.5195    1.5820   -0.6558 C.ar       1 <1>        0.000
      5 C13        -0.2713   -0.2620    0.0177 C.ar       1 <1>        0.000
      6 C15        -1.5748    0.2610   -0.1448 C.ar       1 <1>        0.000
      7 C16        -2.8114   -0.5219   -0.0868 C.ar       1 <1>        0.000
      8 N5         -1.3440   -1.9117    3.8198 N.2        1 <1>        0.000
      9 C17        -3.2359   -1.3001    0.9831 C.ar       1 <1>        0.000
     10 C18        -3.8920   -0.3094   -0.9344 C.ar       1 <1>        0.000
     11 C19        -2.6879   -1.1884    2.2565 C.3        1 <1>        0.000
     12 C20        -4.1558   -2.3408    0.8419 C.ar       1 <1>        0.000
     13 C21        -4.8904   -1.2678   -1.1176 C.ar       1 <1>        0.000
     14 N3         -1.7487   -2.1532    2.6191 N.2        1 <1>        0.000
     15 N4         -2.7470   -0.3119    3.3355 N.2        1 <1>        0.000
     16 C22        -4.9967   -2.3132   -0.2244 C.ar       1 <1>        0.000
     17 N6         -1.9983   -0.7593    4.2221 N.2        1 <1>        0.000
     18 H           1.5517    2.5837    0.3877 H.spc      1 <1>        0.000
     19 H          -0.5450    3.5157   -0.5815 H.spc      1 <1>        0.000
     20 H           1.7791    0.1135    0.6169 H.spc      1 <1>        0.000
     21 H          -2.3397    1.9379   -1.2793 H.spc      1 <1>        0.000
     22 H          -0.1234   -1.3386   -0.0673 H.spc      1 <1>        0.000
     23 H          -3.9622    0.6355   -1.4732 H.spc      1 <1>        0.000
     24 H          -3.5453   -0.6738    1.8227 H.spc      1 <1>        0.000
     25 H          -4.1980   -3.1531    1.5674 H.spc      1 <1>        0.000
     26 H          -5.5794   -1.1906   -1.9587 H.spc      1 <1>        0.000
     27 H          -5.7380   -3.0988   -0.3707 H.spc      1 <1>        0.000
@<TRIPOS>BOND
     1    8   17 1  
     2   15   17 2  
     3   11   14 1  
     4    9   12 ar 
     5    5    6 ar 
     6   13   16 ar 
     7   12   16 ar 
     8   14    8 2  
     9    6    7 1  
    10    2    4 ar 
    11    9   11 1  
    12    1    3 ar 
    13    7    9 ar 
    14    7   10 ar 
    15    4    6 ar 
    16   10   13 ar 
    17    1    2 ar 
    18   11   15 1  
    19    3    5 ar 
    20    1   18 1  
    21    2   19 1  
    22    3   20 1  
    23    4   21 1  
    24    5   22 1  
    25   10   23 1  
    26   11   24 1  
    27   12   25 1  
    28   13   26 1  
    29   16   27 1  
# Name:          frag5-494-892/138278
# Creation time: Sat Jun  5 12:53:39 2010


@<TRIPOS>MOLECULE
frag5-494-892/138278
   27    29     1     1     1
SMALL
USER_CHARGES


@<TRIPOS>ATOM
      1 C7          0.7122    1.9686   -0.6767 C.ar       1 <1>        0.000
      2 C9          0.7852    0.5931   -0.8273 C.ar       1 <1>        0.000
      3 C10        -0.3606    2.5140    0.0103 C.ar       1 <1>        0.000
      4 C12        -0.2631   -0.2041   -0.3464 C.ar       1 <1>        0.000
      5 C13        -1.3913    1.6672    0.4575 C.ar       1 <1>        0.000
      6 C15        -1.5215    0.3286    0.0028 C.ar       1 <1>        0.000
      7 C16        -2.7196   -0.5061    0.0125 C.ar       1 <1>        0.000
      8 N5         -1.4276   -1.6702    3.9819 N.2        1 <1>        0.000
      9 C17        -3.2024   -1.3311    1.0265 C.ar       1 <1>        0.000
     10 C18        -3.7073   -0.3624   -0.9506 C.ar       1 <1>        0.000
     11 C19        -2.8226   -1.2309    2.3621 C.3        1 <1>        0.000
     12 C20        -4.0354   -2.4179    0.7939 C.ar       1 <1>        0.000
     13 C21        -4.6267   -1.3780   -1.2318 C.ar       1 <1>        0.000
     14 N3         -1.6311   -1.8557    2.7216 N.2        1 <1>        0.000
     15 N4         -3.2941   -0.6409    3.5258 N.2        1 <1>        0.000
     16 C22        -4.7618   -2.4321   -0.3519 C.ar       1 <1>        0.000
     17 N6         -2.4928   -0.9137    4.4356 N.2        1 <1>        0.000
     18 H           1.4873    2.6123   -1.0926 H.spc      1 <1>        0.000
     19 H           1.6471    0.1364   -1.3137 H.spc      1 <1>        0.000
     20 H          -0.4054    3.5861    0.2019 H.spc      1 <1>        0.000
     21 H          -0.0993   -1.2763   -0.2383 H.spc      1 <1>        0.000
     22 H          -2.1140    2.0517    1.1771 H.spc      1 <1>        0.000
     23 H          -3.7690    0.5730   -1.5067 H.spc      1 <1>        0.000
     24 H          -3.7201   -0.8786    1.8537 H.spc      1 <1>        0.000
     25 H          -4.1036   -3.2358    1.5112 H.spc      1 <1>        0.000
     26 H          -5.2311   -1.3372   -2.1380 H.spc      1 <1>        0.000
     27 H          -5.4375   -3.2584   -0.5725 H.spc      1 <1>        0.000
@<TRIPOS>BOND
     1    8   17 1  
     2   15   17 2  
     3   11   14 1  
     4    9   12 ar 
     5    5    6 ar 
     6   13   16 ar 
     7   12   16 ar 
     8   14    8 2  
     9    6    7 1  
    10    2    4 ar 
    11    9   11 1  
    12    1    3 ar 
    13    7    9 ar 
    14    7   10 ar 
    15    4    6 ar 
    16   10   13 ar 
    17    1    2 ar 
    18   11   15 1  
    19    3    5 ar 
    20    1   18 1  
    21    2   19 1  
    22    3   20 1  
    23    4   21 1  
    24    5   22 1  
    25   10   23 1  
    26   11   24 1  
    27   12   25 1  
    28   13   26 1  
    29   16   27 1  
# Name:          frag5-494-892/138278 -- energy: 2.399788
# Creation time: Sat Jun  5 12:53:39 2010


@<TRIPOS>MOLECULE
frag5-494-892/138278 -- energy: 2.399788
   27    29     1     1     1
SMALL
USER_CHARGES


@<TRIPOS>ATOM
      1 C7          0.7256    1.9263   -0.5439 C.ar       1 <1>        0.000
      2 C9          0.7741    0.7509    0.1876 C.ar       1 <1>        0.000
      3 C10        -0.5046    2.5121   -0.7944 C.ar       1 <1>        0.000
      4 C12        -0.4240    0.1477    0.5918 C.ar       1 <1>        0.000
      5 C13        -1.6733    1.8525   -0.3775 C.ar       1 <1>        0.000
      6 C15        -1.6729    0.4909    0.0297 C.ar       1 <1>        0.000
      7 C16        -2.8337   -0.4035    0.0242 C.ar       1 <1>        0.000
      8 N5         -2.1893   -0.7481    4.2461 N.2        1 <1>        0.000
      9 C17        -3.1467   -1.3823    0.9812 C.ar       1 <1>        0.000
     10 C18        -3.8490   -0.2997   -0.9094 C.ar       1 <1>        0.000
     11 C19        -2.5123   -1.5270    2.2273 C.3        1 <1>        0.000
     12 C20        -4.0029   -2.4401    0.7576 C.ar       1 <1>        0.000
     13 C21        -4.6855   -1.3743   -1.2139 C.ar       1 <1>        0.000
     14 N3         -2.7986   -0.5057    3.1254 N.2        1 <1>        0.000
     15 N4         -1.7110   -2.4408    2.9278 N.2        1 <1>        0.000
     16 C22        -4.7280   -2.4694   -0.3828 C.ar       1 <1>        0.000
     17 N6         -1.5282   -1.9615    4.0689 N.2        1 <1>        0.000
     18 H           1.6420    2.3836   -0.9170 H.spc      1 <1>        0.000
     19 H           1.7328    0.3008    0.4455 H.spc      1 <1>        0.000
     20 H          -0.5652    3.4716   -1.3079 H.spc      1 <1>        0.000
     21 H          -0.3908   -0.6153    1.3695 H.spc      1 <1>        0.000
     22 H          -2.6131    2.4045   -0.3660 H.spc      1 <1>        0.000
     23 H          -4.0002    0.6499   -1.4226 H.spc      1 <1>        0.000
     24 H          -2.2285   -2.1415    1.3729 H.spc      1 <1>        0.000
     25 H          -4.0937   -3.2417    1.4906 H.spc      1 <1>        0.000
     26 H          -5.3051   -1.3458   -2.1102 H.spc      1 <1>        0.000
     27 H          -5.3320   -3.3402   -0.6377 H.spc      1 <1>        0.000
@<TRIPOS>BOND
     1    8   17 1  
     2   15   17 2  
     3   11   14 1  
     4    9   12 ar 
     5    5    6 ar 
     6   13   16 ar 
     7   12   16 ar 
     8   14    8 2  
     9    6    7 1  
    10    2    4 ar 
    11    9   11 1  
    12    1    3 ar 
    13    7    9 ar 
    14    7   10 ar 
    15    4    6 ar 
    16   10   13 ar 
    17    1    2 ar 
    18   11   15 1  
    19    3    5 ar 
    20    1   18 1  
    21    2   19 1  
    22    3   20 1  
    23    4   21 1  
    24    5   22 1  
    25   10   23 1  
    26   11   24 1  
    27   12   25 1  
    28   13   26 1  
    29   16   27 1  
# Name:          frag5-494-892/138278 -- energy: 1.663669
# Creation time: Sat Jun  5 12:53:39 2010


@<TRIPOS>MOLECULE
frag5-494-892/138278 -- energy: 1.663669
   27    29     1     1     1
SMALL
USER_CHARGES


@<TRIPOS>ATOM
      1 C7          0.9688    1.5383   -0.0217 C.ar       1 <1>        0.000
      2 C9          0.0452    1.7516    0.9885 C.ar       1 <1>        0.000
      3 C10         0.5606    0.9122   -1.1881 C.ar       1 <1>        0.000
      4 C12        -1.2573    1.2615    0.8372 C.ar       1 <1>        0.000
      5 C13        -0.7547    0.4325   -1.2816 C.ar       1 <1>        0.000
      6 C15        -1.5982    0.3049   -0.1483 C.ar       1 <1>        0.000
      7 C16        -2.7697   -0.5668   -0.1078 C.ar       1 <1>        0.000
      8 N5         -1.4477   -1.3657    3.9583 N.2        1 <1>        0.000
      9 C17        -3.2053   -1.3187    0.9758 C.ar       1 <1>        0.000
     10 C18        -3.7712   -0.5588   -1.0744 C.ar       1 <1>        0.000
     11 C19        -2.8204   -1.0641    2.2921 C.3        1 <1>        0.000
     12 C20        -3.9856   -2.4591    0.8560 C.ar       1 <1>        0.000
     13 C21        -4.6407   -1.6376   -1.2519 C.ar       1 <1>        0.000
     14 N3         -1.6663   -1.7015    2.7315 N.2        1 <1>        0.000
     15 N4         -3.2431   -0.2933    3.3598 N.2        1 <1>        0.000
     16 C22        -4.7160   -2.6137   -0.2791 C.ar       1 <1>        0.000
     17 N6         -2.4588   -0.4934    4.2996 N.2        1 <1>        0.000
     18 H           2.0035    1.8590    0.0996 H.spc      1 <1>        0.000
     19 H           0.3292    2.2944    1.8901 H.spc      1 <1>        0.000
     20 H           1.2521    0.7938   -2.0223 H.spc      1 <1>        0.000
     21 H          -2.0376    1.6303    1.5030 H.spc      1 <1>        0.000
     22 H          -1.1421    0.1478   -2.2599 H.spc      1 <1>        0.000
     23 H          -3.8805    0.3174   -1.7134 H.spc      1 <1>        0.000
     24 H          -3.7254   -0.7592    1.7667 H.spc      1 <1>        0.000
     25 H          -4.0120   -3.2078    1.6477 H.spc      1 <1>        0.000
     26 H          -5.2540   -1.7078   -2.1503 H.spc      1 <1>        0.000
     27 H          -5.3484   -3.4905   -0.4186 H.spc      1 <1>        0.000
@<TRIPOS>BOND
     1    8   17 1  
     2   15   17 2  
     3   11   14 1  
     4    9   12 ar 
     5    5    6 ar 
     6   13   16 ar 
     7   12   16 ar 
     8   14    8 2  
     9    6    7 1  
    10    2    4 ar 
    11    9   11 1  
    12    1    3 ar 
    13    7    9 ar 
    14    7   10 ar 
    15    4    6 ar 
    16   10   13 ar 
    17    1    2 ar 
    18   11   15 1  
    19    3    5 ar 
    20    1   18 1  
    21    2   19 1  
    22    3   20 1  
    23    4   21 1  
    24    5   22 1  
    25   10   23 1  
    26   11   24 1  
    27   12   25 1  
    28   13   26 1  
    29   16   27 1  
# Name:          frag5-494-892/138278 -- energy: -0.496586
# Creation time: Sat Jun  5 12:53:39 2010


@<TRIPOS>MOLECULE
frag5-494-892/138278 -- energy: -0.496586
   27    29     1     1     1
SMALL
USER_CHARGES


@<TRIPOS>ATOM
      1 C7          0.5353    2.2200   -0.5140 C.ar       1 <1>        0.000
      2 C9          0.3982    1.1286   -1.3565 C.ar       1 <1>        0.000
      3 C10        -0.1671    2.2319    0.6798 C.ar       1 <1>        0.000
      4 C12        -0.4946    0.1058   -1.0068 C.ar       1 <1>        0.000
      5 C13        -1.0549    1.1772    0.9582 C.ar       1 <1>        0.000
      6 C15        -1.5080    0.2866   -0.0485 C.ar       1 <1>        0.000
      7 C16        -2.6961   -0.5801   -0.0395 C.ar       1 <1>        0.000
      8 N5         -2.4340   -0.4275    4.2703 N.2        1 <1>        0.000
      9 C17        -3.1406   -1.4027    1.0079 C.ar       1 <1>        0.000
     10 C18        -3.6456   -0.5110   -1.0525 C.ar       1 <1>        0.000
     11 C19        -2.6044   -1.3864    2.3291 C.3        1 <1>        0.000
     12 C20        -4.0806   -2.4071    0.8404 C.ar       1 <1>        0.000
     13 C21        -4.5250   -1.5597   -1.2962 C.ar       1 <1>        0.000
     14 N3         -2.9696   -0.2912    3.0858 N.2        1 <1>        0.000
     15 N4         -1.8803   -2.2499    3.1702 N.2        1 <1>        0.000
     16 C22        -4.7191   -2.5398   -0.3554 C.ar       1 <1>        0.000
     17 N6         -1.7741   -1.6665    4.2738 N.2        1 <1>        0.000
     18 H           1.1835    3.0533   -0.7854 H.spc      1 <1>        0.000
     19 H           0.9764    1.0661   -2.2784 H.spc      1 <1>        0.000
     20 H          -0.0339    3.0459    1.3923 H.spc      1 <1>        0.000
     21 H          -0.4000   -0.8641   -1.4950 H.spc      1 <1>        0.000
     22 H          -1.4062    1.0397    1.9808 H.spc      1 <1>        0.000
     23 H          -3.7018    0.3857   -1.6696 H.spc      1 <1>        0.000
     24 H          -2.1535   -1.9889    1.5405 H.spc      1 <1>        0.000
     25 H          -4.3078   -3.0873    1.6613 H.spc      1 <1>        0.000
     26 H          -5.0647   -1.6039   -2.2422 H.spc      1 <1>        0.000
     27 H          -5.3627   -3.3958   -0.5583 H.spc      1 <1>        0.000
@<TRIPOS>BOND
     1    8   17 1  
     2   15   17 2  
     3   11   14 1  
     4    9   12 ar 
     5    5    6 ar 
     6   13   16 ar 
     7   12   16 ar 
     8   14    8 2  
     9    6    7 1  
    10    2    4 ar 
    11    9   11 1  
    12    1    3 ar 
    13    7    9 ar 
    14    7   10 ar 
    15    4    6 ar 
    16   10   13 ar 
    17    1    2 ar 
    18   11   15 1  
    19    3    5 ar 
    20    1   18 1  
    21    2   19 1  
    22    3   20 1  
    23    4   21 1  
    24    5   22 1  
    25   10   23 1  
    26   11   24 1  
    27   12   25 1  
    28   13   26 1  
    29   16   27 1  
# Name:          frag5-494-892/138278 -- energy: 1.097195
# Creation time: Sat Jun  5 12:53:39 2010


@<TRIPOS>MOLECULE
frag5-494-892/138278 -- energy: 1.097195
   27    29     1     1     1
SMALL
USER_CHARGES


@<TRIPOS>ATOM
      1 C7          0.7257    1.9249    0.1197 C.ar       1 <1>        0.000
      2 C9         -0.4515    2.4467   -0.3900 C.ar       1 <1>        0.000
      3 C10         0.8389    0.5534    0.2843 C.ar       1 <1>        0.000
      4 C12        -1.5195    1.5820   -0.6558 C.ar       1 <1>        0.000
      5 C13        -0.2713   -0.2620    0.0177 C.ar       1 <1>        0.000
      6 C15        -1.5748    0.2610   -0.1448 C.ar       1 <1>        0.000
      7 C16        -2.8114   -0.5219   -0.0868 C.ar       1 <1>        0.000
      8 N5         -1.3440   -1.9117    3.8198 N.2        1 <1>        0.000
      9 C17        -3.2359   -1.3001    0.9831 C.ar       1 <1>        0.000
     10 C18        -3.8920   -0.3094   -0.9344 C.ar       1 <1>        0.000
     11 C19        -2.6879   -1.1884    2.2565 C.3        1 <1>        0.000
     12 C20        -4.1558   -2.3408    0.8419 C.ar       1 <1>        0.000
     13 C21        -4.8904   -1.2678   -1.1176 C.ar       1 <1>        0.000
     14 N3         -1.7487   -2.1532    2.6191 N.2        1 <1>        0.000
     15 N4         -2.7470   -0.3119    3.3355 N.2        1 <1>        0.000
     16 C22        -4.9967   -2.3132   -0.2244 C.ar       1 <1>        0.000
     17 N6         -1.9983   -0.7593    4.2221 N.2        1 <1>        0.000
     18 H           1.5517    2.5837    0.3877 H.spc      1 <1>        0.000
     19 H          -0.5450    3.5157   -0.5815 H.spc      1 <1>        0.000
     20 H           1.7791    0.1135    0.6169 H.spc      1 <1>        0.000
     21 H          -2.3397    1.9379   -1.2793 H.spc      1 <1>        0.000
     22 H          -0.1234   -1.3386   -0.0673 H.spc      1 <1>        0.000
     23 H          -3.9622    0.6355   -1.4732 H.spc      1 <1>        0.000
     24 H          -3.5453   -0.6738    1.8227 H.spc      1 <1>        0.000
     25 H          -4.1980   -3.1531    1.5674 H.spc      1 <1>        0.000
     26 H          -5.5794   -1.1906   -1.9587 H.spc      1 <1>        0.000
     27 H          -5.7380   -3.0988   -0.3707 H.spc      1 <1>        0.000
@<TRIPOS>BOND
     1    8   17 1  
     2   15   17 2  
     3   11   14 1  
     4    9   12 ar 
     5    5    6 ar 
     6   13   16 ar 
     7   12   16 ar 
     8   14    8 2  
     9    6    7 1  
    10    2    4 ar 
    11    9   11 1  
    12    1    3 ar 
    13    7    9 ar 
    14    7   10 ar 
    15    4    6 ar 
    16   10   13 ar 
    17    1    2 ar 
    18   11   15 1  
    19    3    5 ar 
    20    1   18 1  
    21    2   19 1  
    22    3   20 1  
    23    4   21 1  
    24    5   22 1  
    25   10   23 1  
    26   11   24 1  
    27   12   25 1  
    28   13   26 1  
    29   16   27 1  
