#      Rotatable Fragment
#      Build by yxyuan
#
# Name:          frag3-210-4/31924
# Creation time: Sat Jun  5 12:52:20 2010


@<TRIPOS>MOLECULE
frag3-210-4/31924
   10     9     1     1     1
SMALL
USER_CHARGES


@<TRIPOS>ATOM
      1 C4          2.2862    1.3336   -0.1287 C.2        1 <1>        0.000
      2 N1          1.3973    2.1425   -0.5543 N.2        1 <1>        0.000
      3 O1          0.1476    1.7039   -0.0686 O.3        1 <1>        0.000
      4 C5         -0.7350    1.5804   -1.0695 C.2        1 <1>        0.000
      5 O2         -1.6591    0.7802   -1.0307 O.2        1 <1>        0.000
      6 N2         -0.5129    2.4098   -2.1109 N.am       1 <1>        0.000
      7 H           1.9991    0.4875    0.4956 H.spc      1 <1>        0.000
      8 H           3.3333    1.4882   -0.3892 H.spc      1 <1>        0.000
      9 H          -1.1328    2.3890   -2.9207 H.spc      1 <1>        0.000
     10 H           0.2748    3.0574   -2.0881 H.spc      1 <1>        0.000
@<TRIPOS>BOND
     1    1    2 2  
     2    2    3 1  
     3    3    4 1  
     4    4    5 2  
     5    4    6 am 
     6    1    7 1  
     7    1    8 1  
     8    6    9 1  
     9    6   10 1  
# Name:          frag3-210-4/31924
# Creation time: Sat Jun  5 12:52:20 2010


@<TRIPOS>MOLECULE
frag3-210-4/31924
   10     9     1     1     1
SMALL
USER_CHARGES


@<TRIPOS>ATOM
      1 C4          1.9405    1.9375    0.4061 C.2        1 <1>        0.000
      2 N1          1.5279    1.8554   -0.7971 N.2        1 <1>        0.000
      3 O1          0.4727    0.9205   -0.8290 O.3        1 <1>        0.000
      4 C5         -0.6886    1.5220   -1.1212 C.2        1 <1>        0.000
      5 O2         -1.7565    1.1376   -0.6665 O.2        1 <1>        0.000
      6 N2         -0.5719    2.5773   -1.9549 N.am       1 <1>        0.000
      7 H           1.4732    1.3347    1.1848 H.spc      1 <1>        0.000
      8 H           2.7606    2.6105    0.6563 H.spc      1 <1>        0.000
      9 H          -1.4019    3.0991   -2.2364 H.spc      1 <1>        0.000
     10 H           0.3463    2.8529   -2.3033 H.spc      1 <1>        0.000
@<TRIPOS>BOND
     1    1    2 2  
     2    2    3 1  
     3    3    4 1  
     4    4    5 2  
     5    4    6 am 
     6    1    7 1  
     7    1    8 1  
     8    6    9 1  
     9    6   10 1  
# Name:          frag3-210-4/31924
# Creation time: Sat Jun  5 12:52:20 2010


@<TRIPOS>MOLECULE
frag3-210-4/31924
   10     9     1     1     1
SMALL
USER_CHARGES


@<TRIPOS>ATOM
      1 C4          1.7938    1.2017    0.5273 C.2        1 <1>        0.000
      2 N1          1.5593    1.4004   -0.7025 N.2        1 <1>        0.000
      3 O1          0.5331    2.3510   -0.8171 O.3        1 <1>        0.000
      4 C5         -0.6220    1.7778   -1.1867 C.2        1 <1>        0.000
      5 O2         -0.8545    0.5945   -1.0005 O.2        1 <1>        0.000
      6 N2         -1.4854    2.6249   -1.7831 N.am       1 <1>        0.000
      7 H           1.2251    1.7412    1.2847 H.spc      1 <1>        0.000
      8 H           2.5642    0.4914    0.8274 H.spc      1 <1>        0.000
      9 H          -2.3911    2.2856   -2.1070 H.spc      1 <1>        0.000
     10 H          -1.2327    3.6049   -1.9103 H.spc      1 <1>        0.000
@<TRIPOS>BOND
     1    1    2 2  
     2    2    3 1  
     3    3    4 1  
     4    4    5 2  
     5    4    6 am 
     6    1    7 1  
     7    1    8 1  
     8    6    9 1  
     9    6   10 1  
# Name:          frag3-210-4/31924
# Creation time: Sat Jun  5 12:52:20 2010


@<TRIPOS>MOLECULE
frag3-210-4/31924
   10     9     1     1     1
SMALL
USER_CHARGES


@<TRIPOS>ATOM
      1 C4          1.9685    0.9438   -0.2236 C.2        1 <1>        0.000
      2 N1          1.1240    1.7411    0.2791 N.2        1 <1>        0.000
      3 O1          0.4880    2.4443   -0.7493 O.3        1 <1>        0.000
      4 C5         -0.5612    1.7591   -1.2366 C.2        1 <1>        0.000
      5 O2         -0.8658    0.6525   -0.8248 O.2        1 <1>        0.000
      6 N2         -1.2294    2.4095   -2.2075 N.am       1 <1>        0.000
      7 H           2.0966    0.8963   -1.3050 H.spc      1 <1>        0.000
      8 H           2.5678    0.3046    0.4248 H.spc      1 <1>        0.000
      9 H          -2.0433    1.9769   -2.6443 H.spc      1 <1>        0.000
     10 H          -0.9218    3.3349   -2.5064 H.spc      1 <1>        0.000
@<TRIPOS>BOND
     1    1    2 2  
     2    2    3 1  
     3    3    4 1  
     4    4    5 2  
     5    4    6 am 
     6    1    7 1  
     7    1    8 1  
     8    6    9 1  
     9    6   10 1  
# Name:          frag3-210-4/31924
# Creation time: Sat Jun  5 12:52:20 2010


@<TRIPOS>MOLECULE
frag3-210-4/31924
   10     9     1     1     1
SMALL
USER_CHARGES


@<TRIPOS>ATOM
      1 C4          2.3797    1.8110   -0.1111 C.2        1 <1>        0.000
      2 N1          1.1254    1.9225    0.0843 N.2        1 <1>        0.000
      3 O1          0.4706    1.0337   -0.7923 O.3        1 <1>        0.000
      4 C5         -0.6974    1.5443   -1.2063 C.2        1 <1>        0.000
      5 O2         -1.7512    1.3198   -0.6292 O.2        1 <1>        0.000
      6 N2         -0.6029    2.3191   -2.3080 N.am       1 <1>        0.000
      7 H           2.7548    1.1114   -0.8580 H.spc      1 <1>        0.000
      8 H           3.0774    2.4152    0.4687 H.spc      1 <1>        0.000
      9 H          -1.4390    2.7520   -2.7003 H.spc      1 <1>        0.000
     10 H           0.3046    2.4715   -2.7480 H.spc      1 <1>        0.000
@<TRIPOS>BOND
     1    1    2 2  
     2    2    3 1  
     3    3    4 1  
     4    4    5 2  
     5    4    6 am 
     6    1    7 1  
     7    1    8 1  
     8    6    9 1  
     9    6   10 1  
# Name:          frag3-210-4/31924
# Creation time: Sat Jun  5 12:52:21 2010


@<TRIPOS>MOLECULE
frag3-210-4/31924
   10     9     1     1     1
SMALL
USER_CHARGES


@<TRIPOS>ATOM
      1 C4          2.3765    1.7196   -0.1373 C.2        1 <1>        0.000
      2 N1          1.2567    1.1199   -0.2059 N.2        1 <1>        0.000
      3 O1          0.2435    2.0940   -0.2822 O.3        1 <1>        0.000
      4 C5         -0.7122    1.7285   -1.1477 C.2        1 <1>        0.000
      5 O2         -1.3898    0.7251   -0.9895 O.2        1 <1>        0.000
      6 N2         -0.8505    2.5633   -2.2001 N.am       1 <1>        0.000
      7 H           2.4127    2.8090   -0.1451 H.spc      1 <1>        0.000
      8 H           3.2998    1.1441   -0.0707 H.spc      1 <1>        0.000
      9 H          -1.5506    2.3696   -2.9162 H.spc      1 <1>        0.000
     10 H          -0.2549    3.3876   -2.2789 H.spc      1 <1>        0.000
@<TRIPOS>BOND
     1    1    2 2  
     2    2    3 1  
     3    3    4 1  
     4    4    5 2  
     5    4    6 am 
     6    1    7 1  
     7    1    8 1  
     8    6    9 1  
     9    6   10 1  
# Name:          frag3-210-4/31924 -- energy: 0.823530
# Creation time: Sat Jun  5 12:52:21 2010


@<TRIPOS>MOLECULE
frag3-210-4/31924 -- energy: 0.823530
   10     9     1     1     1
SMALL
USER_CHARGES


@<TRIPOS>ATOM
      1 C4          2.2862    1.3336   -0.1287 C.2        1 <1>        0.000
      2 N1          1.3973    2.1425   -0.5543 N.2        1 <1>        0.000
      3 O1          0.1476    1.7039   -0.0686 O.3        1 <1>        0.000
      4 C5         -0.7350    1.5804   -1.0695 C.2        1 <1>        0.000
      5 O2         -1.6591    0.7802   -1.0307 O.2        1 <1>        0.000
      6 N2         -0.5129    2.4098   -2.1109 N.am       1 <1>        0.000
      7 H           1.9991    0.4875    0.4956 H.spc      1 <1>        0.000
      8 H           3.3333    1.4882   -0.3892 H.spc      1 <1>        0.000
      9 H          -1.1328    2.3890   -2.9207 H.spc      1 <1>        0.000
     10 H           0.2748    3.0574   -2.0881 H.spc      1 <1>        0.000
@<TRIPOS>BOND
     1    1    2 2  
     2    2    3 1  
     3    3    4 1  
     4    4    5 2  
     5    4    6 am 
     6    1    7 1  
     7    1    8 1  
     8    6    9 1  
     9    6   10 1  
# Name:          frag3-210-4/31924 -- energy: 0.457514
# Creation time: Sat Jun  5 12:52:21 2010


@<TRIPOS>MOLECULE
frag3-210-4/31924 -- energy: 0.457514
   10     9     1     1     1
SMALL
USER_CHARGES


@<TRIPOS>ATOM
      1 C4          1.9405    1.9375    0.4061 C.2        1 <1>        0.000
      2 N1          1.5279    1.8554   -0.7971 N.2        1 <1>        0.000
      3 O1          0.4727    0.9205   -0.8290 O.3        1 <1>        0.000
      4 C5         -0.6886    1.5220   -1.1212 C.2        1 <1>        0.000
      5 O2         -1.7565    1.1376   -0.6665 O.2        1 <1>        0.000
      6 N2         -0.5719    2.5773   -1.9549 N.am       1 <1>        0.000
      7 H           1.4732    1.3347    1.1848 H.spc      1 <1>        0.000
      8 H           2.7606    2.6105    0.6563 H.spc      1 <1>        0.000
      9 H          -1.4019    3.0991   -2.2364 H.spc      1 <1>        0.000
     10 H           0.3463    2.8529   -2.3033 H.spc      1 <1>        0.000
@<TRIPOS>BOND
     1    1    2 2  
     2    2    3 1  
     3    3    4 1  
     4    4    5 2  
     5    4    6 am 
     6    1    7 1  
     7    1    8 1  
     8    6    9 1  
     9    6   10 1  
# Name:          frag3-210-4/31924 -- energy: -0.229715
# Creation time: Sat Jun  5 12:52:21 2010


@<TRIPOS>MOLECULE
frag3-210-4/31924 -- energy: -0.229715
   10     9     1     1     1
SMALL
USER_CHARGES


@<TRIPOS>ATOM
      1 C4          1.7938    1.2017    0.5273 C.2        1 <1>        0.000
      2 N1          1.5593    1.4004   -0.7025 N.2        1 <1>        0.000
      3 O1          0.5331    2.3510   -0.8171 O.3        1 <1>        0.000
      4 C5         -0.6220    1.7778   -1.1867 C.2        1 <1>        0.000
      5 O2         -0.8545    0.5945   -1.0005 O.2        1 <1>        0.000
      6 N2         -1.4854    2.6249   -1.7831 N.am       1 <1>        0.000
      7 H           1.2251    1.7412    1.2847 H.spc      1 <1>        0.000
      8 H           2.5642    0.4914    0.8274 H.spc      1 <1>        0.000
      9 H          -2.3911    2.2856   -2.1070 H.spc      1 <1>        0.000
     10 H          -1.2327    3.6049   -1.9103 H.spc      1 <1>        0.000
@<TRIPOS>BOND
     1    1    2 2  
     2    2    3 1  
     3    3    4 1  
     4    4    5 2  
     5    4    6 am 
     6    1    7 1  
     7    1    8 1  
     8    6    9 1  
     9    6   10 1  
# Name:          frag3-210-4/31924 -- energy: -0.013728
# Creation time: Sat Jun  5 12:52:21 2010


@<TRIPOS>MOLECULE
frag3-210-4/31924 -- energy: -0.013728
   10     9     1     1     1
SMALL
USER_CHARGES


@<TRIPOS>ATOM
      1 C4          1.9685    0.9438   -0.2236 C.2        1 <1>        0.000
      2 N1          1.1240    1.7411    0.2791 N.2        1 <1>        0.000
      3 O1          0.4880    2.4443   -0.7493 O.3        1 <1>        0.000
      4 C5         -0.5612    1.7591   -1.2366 C.2        1 <1>        0.000
      5 O2         -0.8658    0.6525   -0.8248 O.2        1 <1>        0.000
      6 N2         -1.2294    2.4095   -2.2075 N.am       1 <1>        0.000
      7 H           2.0966    0.8963   -1.3050 H.spc      1 <1>        0.000
      8 H           2.5678    0.3046    0.4248 H.spc      1 <1>        0.000
      9 H          -2.0433    1.9769   -2.6443 H.spc      1 <1>        0.000
     10 H          -0.9218    3.3349   -2.5064 H.spc      1 <1>        0.000
@<TRIPOS>BOND
     1    1    2 2  
     2    2    3 1  
     3    3    4 1  
     4    4    5 2  
     5    4    6 am 
     6    1    7 1  
     7    1    8 1  
     8    6    9 1  
     9    6   10 1  
# Name:          frag3-210-4/31924 -- energy: -0.477521
# Creation time: Sat Jun  5 12:52:21 2010


@<TRIPOS>MOLECULE
frag3-210-4/31924 -- energy: -0.477521
   10     9     1     1     1
SMALL
USER_CHARGES


@<TRIPOS>ATOM
      1 C4          2.3797    1.8110   -0.1111 C.2        1 <1>        0.000
      2 N1          1.1254    1.9225    0.0843 N.2        1 <1>        0.000
      3 O1          0.4706    1.0337   -0.7923 O.3        1 <1>        0.000
      4 C5         -0.6974    1.5443   -1.2063 C.2        1 <1>        0.000
      5 O2         -1.7512    1.3198   -0.6292 O.2        1 <1>        0.000
      6 N2         -0.6029    2.3191   -2.3080 N.am       1 <1>        0.000
      7 H           2.7548    1.1114   -0.8580 H.spc      1 <1>        0.000
      8 H           3.0774    2.4152    0.4687 H.spc      1 <1>        0.000
      9 H          -1.4390    2.7520   -2.7003 H.spc      1 <1>        0.000
     10 H           0.3046    2.4715   -2.7480 H.spc      1 <1>        0.000
@<TRIPOS>BOND
     1    1    2 2  
     2    2    3 1  
     3    3    4 1  
     4    4    5 2  
     5    4    6 am 
     6    1    7 1  
     7    1    8 1  
     8    6    9 1  
     9    6   10 1  
# Name:          frag3-210-4/31924 -- energy: -0.400161
# Creation time: Sat Jun  5 12:52:21 2010


@<TRIPOS>MOLECULE
frag3-210-4/31924 -- energy: -0.400161
   10     9     1     1     1
SMALL
USER_CHARGES


@<TRIPOS>ATOM
      1 C4          2.3765    1.7196   -0.1373 C.2        1 <1>        0.000
      2 N1          1.2567    1.1199   -0.2059 N.2        1 <1>        0.000
      3 O1          0.2435    2.0940   -0.2822 O.3        1 <1>        0.000
      4 C5         -0.7122    1.7285   -1.1477 C.2        1 <1>        0.000
      5 O2         -1.3898    0.7251   -0.9895 O.2        1 <1>        0.000
      6 N2         -0.8505    2.5633   -2.2001 N.am       1 <1>        0.000
      7 H           2.4127    2.8090   -0.1451 H.spc      1 <1>        0.000
      8 H           3.2998    1.1441   -0.0707 H.spc      1 <1>        0.000
      9 H          -1.5506    2.3696   -2.9162 H.spc      1 <1>        0.000
     10 H          -0.2549    3.3876   -2.2789 H.spc      1 <1>        0.000
@<TRIPOS>BOND
     1    1    2 2  
     2    2    3 1  
     3    3    4 1  
     4    4    5 2  
     5    4    6 am 
     6    1    7 1  
     7    1    8 1  
     8    6    9 1  
     9    6   10 1  
