#      Rotatable Fragment
#      Build by yxyuan
#
# Name:          frag3-167-14/96164
# Creation time: Sat Jun  5 12:53:07 2010


@<TRIPOS>MOLECULE
frag3-167-14/96164
    6     5     1     1     1
SMALL
USER_CHARGES


@<TRIPOS>ATOM
      1 C2         -0.2200    0.5708   -0.0158 C.2        1 <1>        0.000
      2 C4          0.4342   -0.5745    0.0023 C.2        1 <1>        0.000
      3 Cl1        -1.9429    0.6126    0.0933 Cl         1 <1>        0.000
      4 H           0.3353    1.5049   -0.1009 H.spc      1 <1>        0.000
      5 H          -0.1130   -1.5134    0.0871 H.spc      1 <1>        0.000
      6 H           1.5219   -0.5820   -0.0676 H.spc      1 <1>        0.000
@<TRIPOS>BOND
     1    1    2 2  
     2    1    3 1  
     3    1    4 1  
     4    2    5 1  
     5    2    6 1  
# Name:          frag3-167-14/96164 -- energy: -0.106803
# Creation time: Sat Jun  5 12:53:07 2010


@<TRIPOS>MOLECULE
frag3-167-14/96164 -- energy: -0.106803
    6     5     1     1     1
SMALL
USER_CHARGES


@<TRIPOS>ATOM
      1 C2         -0.2200    0.5708   -0.0158 C.2        1 <1>        0.000
      2 C4          0.4342   -0.5745    0.0023 C.2        1 <1>        0.000
      3 Cl1        -1.9429    0.6126    0.0933 Cl         1 <1>        0.000
      4 H           0.3353    1.5049   -0.1009 H.spc      1 <1>        0.000
      5 H          -0.1130   -1.5134    0.0871 H.spc      1 <1>        0.000
      6 H           1.5219   -0.5820   -0.0676 H.spc      1 <1>        0.000
@<TRIPOS>BOND
     1    1    2 2  
     2    1    3 1  
     3    1    4 1  
     4    2    5 1  
     5    2    6 1  
