#      Rotatable Fragment
#      Build by yxyuan
#
# Name:          frag5-604-99/138278
# Creation time: Sat Jun  5 12:53:46 2010


@<TRIPOS>MOLECULE
frag5-604-99/138278
    9     9     1     1     1
SMALL
USER_CHARGES


@<TRIPOS>ATOM
      1 N1          0.9336   -0.9999    0.0287 N.2        1 <1>        0.000
      2 C1          0.8708    0.5522    0.0672 C.2        1 <1>        0.000
      3 C2         -0.3204   -1.3820   -0.0458 C.2        1 <1>        0.000
      4 N2         -0.3629    0.9585    0.0074 N.2        1 <1>        0.000
      5 C5         -1.2469   -0.1729   -0.0638 C.3        1 <1>        0.000
      6 Cl1        -2.8867   -0.0557   -0.1445 Cl         1 <1>        0.000
      7 H           1.7388    1.2081    0.1348 H.spc      1 <1>        0.000
      8 H          -0.6521   -2.4194   -0.0888 H.spc      1 <1>        0.000
      9 H          -2.2939   -0.4707   -0.1206 H.spc      1 <1>        0.000
@<TRIPOS>BOND
     1    1    2 1  
     2    1    3 2  
     3    2    4 2  
     4    3    5 1  
     5    4    5 1  
     6    5    6 1  
     7    2    7 1  
     8    3    8 1  
     9    5    9 1  
# Name:          frag5-604-99/138278 -- energy: -0.330443
# Creation time: Sat Jun  5 12:53:46 2010


@<TRIPOS>MOLECULE
frag5-604-99/138278 -- energy: -0.330443
    9     9     1     1     1
SMALL
USER_CHARGES


@<TRIPOS>ATOM
      1 N1          0.9336   -0.9999    0.0287 N.2        1 <1>        0.000
      2 C1          0.8708    0.5522    0.0672 C.2        1 <1>        0.000
      3 C2         -0.3204   -1.3820   -0.0458 C.2        1 <1>        0.000
      4 N2         -0.3629    0.9585    0.0074 N.2        1 <1>        0.000
      5 C5         -1.2469   -0.1729   -0.0638 C.3        1 <1>        0.000
      6 Cl1        -2.8867   -0.0557   -0.1445 Cl         1 <1>        0.000
      7 H           1.7388    1.2081    0.1348 H.spc      1 <1>        0.000
      8 H          -0.6521   -2.4194   -0.0888 H.spc      1 <1>        0.000
      9 H          -2.2939   -0.4707   -0.1206 H.spc      1 <1>        0.000
@<TRIPOS>BOND
     1    1    2 1  
     2    1    3 2  
     3    2    4 2  
     4    3    5 1  
     5    4    5 1  
     6    5    6 1  
     7    2    7 1  
     8    3    8 1  
     9    5    9 1  
