#      Rotatable Fragment
#      Build by yxyuan
#
# Name:          frag5-652-26/41815
# Creation time: Sat Jun  5 12:53:01 2010


@<TRIPOS>MOLECULE
frag5-652-26/41815
   18    18     1     1     1
SMALL
USER_CHARGES


@<TRIPOS>ATOM
      1 N1          3.8142   -1.3450   -1.3507 N.am       1 <1>        0.000
      2 C11         3.7704   -0.0706   -0.9381 C.2        1 <1>        0.000
      3 O2          2.7644    0.6105   -1.0255 O.2        1 <1>        0.000
      4 C12         5.0074    0.4895   -0.3606 C.2        1 <1>        0.000
      5 C13         5.0844    1.7627    0.0793 C.2        1 <1>        0.000
      6 C14         6.1546    2.5151    0.6756 C.ar       1 <1>        0.000
      7 C15         7.4763    2.4571    0.0759 C.ar       1 <1>        0.000
      8 N2          8.4667    3.0725    0.6260 N.ar       1 <1>        0.000
      9 C16         8.3339    3.7784    1.7766 C.ar       1 <1>        0.000
     10 N3          7.1866    3.8464    2.2936 N.ar       1 <1>        0.000
     11 C17         6.0785    3.2545    1.7748 C.ar       1 <1>        0.000
     12 O3          5.1153    3.4496    2.4062 O.2        1 <1>        0.000
     13 O4          9.3334    4.2471    2.1616 O.2        1 <1>        0.000
     14 H           2.9846   -1.7787   -1.7558 H.spc      1 <1>        0.000
     15 H           4.6771   -1.8812   -1.2597 H.spc      1 <1>        0.000
     16 H           5.8891   -0.1471   -0.2869 H.spc      1 <1>        0.000
     17 H           4.1601    2.3279   -0.0400 H.spc      1 <1>        0.000
     18 H           7.6314    1.8912   -0.8427 H.spc      1 <1>        0.000
@<TRIPOS>BOND
     1    4    5 2  
     2    9   10 ar 
     3   11   12 2  
     4   10   11 ar 
     5    6    7 ar 
     6    8    9 ar 
     7    7    8 ar 
     8    6   11 ar 
     9    9   13 2  
    10    5    6 1  
    11    1    2 am 
    12    2    3 2  
    13    2    4 1  
    14    1   14 1  
    15    1   15 1  
    16    4   16 1  
    17    5   17 1  
    18    7   18 1  
# Name:          frag5-652-26/41815
# Creation time: Sat Jun  5 12:53:01 2010


@<TRIPOS>MOLECULE
frag5-652-26/41815
   18    18     1     1     1
SMALL
USER_CHARGES


@<TRIPOS>ATOM
      1 N1          3.1176   -1.1108   -0.3147 N.am       1 <1>        0.000
      2 C11         3.6531    0.0221   -0.8038 C.2        1 <1>        0.000
      3 O2          3.3467    0.5005   -1.8846 O.2        1 <1>        0.000
      4 C12         4.6324    0.7026    0.0507 C.2        1 <1>        0.000
      5 C13         5.3911    1.7417   -0.3261 C.2        1 <1>        0.000
      6 C14         6.3417    2.4956    0.4490 C.ar       1 <1>        0.000
      7 C15         7.6198    2.8645   -0.1434 C.ar       1 <1>        0.000
      8 N2          8.4972    3.5011    0.5495 N.ar       1 <1>        0.000
      9 C16         8.2854    3.8545    1.8410 C.ar       1 <1>        0.000
     10 N3          7.1764    3.5336    2.3515 N.ar       1 <1>        0.000
     11 C17         6.1743    2.8707    1.7151 C.ar       1 <1>        0.000
     12 O3          5.1995    2.6626    2.3308 O.2        1 <1>        0.000
     13 O4          9.1513    4.4292    2.3797 O.2        1 <1>        0.000
     14 H           2.4160   -1.6177   -0.8543 H.spc      1 <1>        0.000
     15 H           3.4131   -1.4630    0.5958 H.spc      1 <1>        0.000
     16 H           4.7523    0.3353    1.0699 H.spc      1 <1>        0.000
     17 H           5.2718    2.0595   -1.3619 H.spc      1 <1>        0.000
     18 H           7.8342    2.6000   -1.1789 H.spc      1 <1>        0.000
@<TRIPOS>BOND
     1    4    5 2  
     2    9   10 ar 
     3   11   12 2  
     4   10   11 ar 
     5    6    7 ar 
     6    8    9 ar 
     7    7    8 ar 
     8    6   11 ar 
     9    9   13 2  
    10    5    6 1  
    11    1    2 am 
    12    2    3 2  
    13    2    4 1  
    14    1   14 1  
    15    1   15 1  
    16    4   16 1  
    17    5   17 1  
    18    7   18 1  
# Name:          frag5-652-26/41815
# Creation time: Sat Jun  5 12:53:01 2010


@<TRIPOS>MOLECULE
frag5-652-26/41815
   18    18     1     1     1
SMALL
USER_CHARGES


@<TRIPOS>ATOM
      1 N1          3.8561   -0.7573   -2.1627 N.am       1 <1>        0.000
      2 C11         3.7798   -0.0317   -1.0287 C.2        1 <1>        0.000
      3 O2          2.7995   -0.0365   -0.3012 O.2        1 <1>        0.000
      4 C12         4.9493    0.8037   -0.6824 C.2        1 <1>        0.000
      5 C13         5.0848    1.4828    0.4776 C.2        1 <1>        0.000
      6 C14         6.1477    2.3361    0.9535 C.ar       1 <1>        0.000
      7 C15         7.5014    2.0244    0.4964 C.ar       1 <1>        0.000
      8 N2          8.5004    2.7492    0.8521 N.ar       1 <1>        0.000
      9 C16         8.3559    3.8198    1.6691 C.ar       1 <1>        0.000
     10 N3          7.1866    4.0885    2.0656 N.ar       1 <1>        0.000
     11 C17         6.0537    3.3989    1.7442 C.ar       1 <1>        0.000
     12 O3          5.0367    3.7869    2.1731 O.2        1 <1>        0.000
     13 O4          9.3347    4.4032    1.9379 O.2        1 <1>        0.000
     14 H           3.0717   -1.3444   -2.4462 H.spc      1 <1>        0.000
     15 H           4.6982   -0.7190   -2.7370 H.spc      1 <1>        0.000
     16 H           5.7561    0.8766   -1.4117 H.spc      1 <1>        0.000
     17 H           4.2516    1.3670    1.1707 H.spc      1 <1>        0.000
     18 H           7.6648    1.1657   -0.1547 H.spc      1 <1>        0.000
@<TRIPOS>BOND
     1    4    5 2  
     2    9   10 ar 
     3   11   12 2  
     4   10   11 ar 
     5    6    7 ar 
     6    8    9 ar 
     7    7    8 ar 
     8    6   11 ar 
     9    9   13 2  
    10    5    6 1  
    11    1    2 am 
    12    2    3 2  
    13    2    4 1  
    14    1   14 1  
    15    1   15 1  
    16    4   16 1  
    17    5   17 1  
    18    7   18 1  
# Name:          frag5-652-26/41815
# Creation time: Sat Jun  5 12:53:01 2010


@<TRIPOS>MOLECULE
frag5-652-26/41815
   18    18     1     1     1
SMALL
USER_CHARGES


@<TRIPOS>ATOM
      1 N1          2.5920    0.4368   -1.7008 N.am       1 <1>        0.000
      2 C11         3.6384    0.1109   -0.9208 C.2        1 <1>        0.000
      3 O2          3.8877   -1.0370   -0.5873 O.2        1 <1>        0.000
      4 C12         4.4903    1.2161   -0.4554 C.2        1 <1>        0.000
      5 C13         5.5853    1.0683    0.3071 C.2        1 <1>        0.000
      6 C14         6.4572    2.0908    0.8336 C.ar       1 <1>        0.000
      7 C15         7.8590    2.0888    0.4328 C.ar       1 <1>        0.000
      8 N2          8.6576    3.0063    0.8645 N.ar       1 <1>        0.000
      9 C16         8.2461    3.9946    1.7026 C.ar       1 <1>        0.000
     10 N3          7.0296    3.9971    2.0392 N.ar       1 <1>        0.000
     11 C17         6.0926    3.0941    1.6297 C.ar       1 <1>        0.000
     12 O3          4.9924    3.2326    2.0031 O.2        1 <1>        0.000
     13 O4          9.0582    4.7685    2.0464 O.2        1 <1>        0.000
     14 H           1.9638   -0.2909   -2.0417 H.spc      1 <1>        0.000
     15 H           2.4268    1.4116   -1.9514 H.spc      1 <1>        0.000
     16 H           4.2125    2.2278   -0.7509 H.spc      1 <1>        0.000
     17 H           5.8505    0.0422    0.5618 H.spc      1 <1>        0.000
     18 H           8.2333    1.3109   -0.2327 H.spc      1 <1>        0.000
@<TRIPOS>BOND
     1    4    5 2  
     2    9   10 ar 
     3   11   12 2  
     4   10   11 ar 
     5    6    7 ar 
     6    8    9 ar 
     7    7    8 ar 
     8    6   11 ar 
     9    9   13 2  
    10    5    6 1  
    11    1    2 am 
    12    2    3 2  
    13    2    4 1  
    14    1   14 1  
    15    1   15 1  
    16    4   16 1  
    17    5   17 1  
    18    7   18 1  
# Name:          frag5-652-26/41815
# Creation time: Sat Jun  5 12:53:01 2010


@<TRIPOS>MOLECULE
frag5-652-26/41815
   18    18     1     1     1
SMALL
USER_CHARGES


@<TRIPOS>ATOM
      1 N1          3.3569   -0.8497   -0.2787 N.am       1 <1>        0.000
      2 C11         3.7569    0.0818   -1.1538 C.2        1 <1>        0.000
      3 O2          3.2492    0.2239   -2.2573 O.2        1 <1>        0.000
      4 C12         4.8712    0.9693   -0.7774 C.2        1 <1>        0.000
      5 C13         5.1534    1.3982    0.4706 C.2        1 <1>        0.000
      6 C14         6.1898    2.2788    0.9524 C.ar       1 <1>        0.000
      7 C15         7.4249    2.3443    0.1735 C.ar       1 <1>        0.000
      8 N2          8.3865    3.1173    0.5245 N.ar       1 <1>        0.000
      9 C16         8.3102    3.8955    1.6261 C.ar       1 <1>        0.000
     10 N3          7.2449    3.8413    2.2998 N.ar       1 <1>        0.000
     11 C17         6.1568    3.0687    2.0198 C.ar       1 <1>        0.000
     12 O3          5.2344    3.1455    2.7344 O.2        1 <1>        0.000
     13 O4          9.2514    4.5530    1.8607 O.2        1 <1>        0.000
     14 H           2.5946   -1.4828   -0.5205 H.spc      1 <1>        0.000
     15 H           3.8146   -0.9261    0.6296 H.spc      1 <1>        0.000
     16 H           5.5265    1.3100   -1.5790 H.spc      1 <1>        0.000
     17 H           4.4871    1.0155    1.2437 H.spc      1 <1>        0.000
     18 H           7.5304    1.7272   -0.7188 H.spc      1 <1>        0.000
@<TRIPOS>BOND
     1    4    5 2  
     2    9   10 ar 
     3   11   12 2  
     4   10   11 ar 
     5    6    7 ar 
     6    8    9 ar 
     7    7    8 ar 
     8    6   11 ar 
     9    9   13 2  
    10    5    6 1  
    11    1    2 am 
    12    2    3 2  
    13    2    4 1  
    14    1   14 1  
    15    1   15 1  
    16    4   16 1  
    17    5   17 1  
    18    7   18 1  
# Name:          frag5-652-26/41815
# Creation time: Sat Jun  5 12:53:01 2010


@<TRIPOS>MOLECULE
frag5-652-26/41815
   18    18     1     1     1
SMALL
USER_CHARGES


@<TRIPOS>ATOM
      1 N1          2.6442   -0.0935   -0.3196 N.am       1 <1>        0.000
      2 C11         3.8144   -0.0928   -0.9728 C.2        1 <1>        0.000
      3 O2          3.9663   -0.6162   -2.0669 O.2        1 <1>        0.000
      4 C12         4.9742    0.5457   -0.3177 C.2        1 <1>        0.000
      5 C13         5.0539    1.8462    0.0217 C.2        1 <1>        0.000
      6 C14         6.1272    2.5691    0.6657 C.ar       1 <1>        0.000
      7 C15         7.3910    2.6990   -0.0592 C.ar       1 <1>        0.000
      8 N2          8.4030    3.2797    0.4945 N.ar       1 <1>        0.000
      9 C16         8.3487    3.7903    1.7552 C.ar       1 <1>        0.000
     10 N3          7.2550    3.6768    2.3781 N.ar       1 <1>        0.000
     11 C17         6.1185    3.0977    1.8881 C.ar       1 <1>        0.000
     12 O3          5.1642    3.0686    2.5632 O.2        1 <1>        0.000
     13 O4          9.3259    4.2971    2.1643 O.2        1 <1>        0.000
     14 H           1.8290   -0.5450   -0.7342 H.spc      1 <1>        0.000
     15 H           2.5688    0.3575    0.5922 H.spc      1 <1>        0.000
     16 H           5.8333   -0.0858   -0.0912 H.spc      1 <1>        0.000
     17 H           4.1769    2.4440   -0.2266 H.spc      1 <1>        0.000
     18 H           7.4790    2.3039   -1.0713 H.spc      1 <1>        0.000
@<TRIPOS>BOND
     1    4    5 2  
     2    9   10 ar 
     3   11   12 2  
     4   10   11 ar 
     5    6    7 ar 
     6    8    9 ar 
     7    7    8 ar 
     8    6   11 ar 
     9    9   13 2  
    10    5    6 1  
    11    1    2 am 
    12    2    3 2  
    13    2    4 1  
    14    1   14 1  
    15    1   15 1  
    16    4   16 1  
    17    5   17 1  
    18    7   18 1  
# Name:          frag5-652-26/41815
# Creation time: Sat Jun  5 12:53:01 2010


@<TRIPOS>MOLECULE
frag5-652-26/41815
   18    18     1     1     1
SMALL
USER_CHARGES


@<TRIPOS>ATOM
      1 N1          4.0879   -0.8404   -1.4786 N.am       1 <1>        0.000
      2 C11         3.5213    0.2053   -0.8631 C.2        1 <1>        0.000
      3 O2          2.3114    0.3596   -0.7890 O.2        1 <1>        0.000
      4 C12         4.3770    1.2356   -0.2723 C.2        1 <1>        0.000
      5 C13         5.6437    1.1089    0.1387 C.2        1 <1>        0.000
      6 C14         6.5030    2.0993    0.7299 C.ar       1 <1>        0.000
      7 C15         7.8976    2.1611    0.3144 C.ar       1 <1>        0.000
      8 N2          8.6835    3.0491    0.8127 N.ar       1 <1>        0.000
      9 C16         8.2663    3.9507    1.7365 C.ar       1 <1>        0.000
     10 N3          7.0544    3.8996    2.0864 N.ar       1 <1>        0.000
     11 C17         6.1309    3.0203    1.6150 C.ar       1 <1>        0.000
     12 O3          5.0397    3.1163    2.0285 O.2        1 <1>        0.000
     13 O4          9.0698    4.7026    2.1354 O.2        1 <1>        0.000
     14 H           3.5034   -1.5544   -1.9133 H.spc      1 <1>        0.000
     15 H           5.1040   -0.9229   -1.5127 H.spc      1 <1>        0.000
     16 H           3.9293    2.2223   -0.1532 H.spc      1 <1>        0.000
     17 H           6.0846    0.1207    0.0078 H.spc      1 <1>        0.000
     18 H           8.2767    1.4521   -0.4216 H.spc      1 <1>        0.000
@<TRIPOS>BOND
     1    4    5 2  
     2    9   10 ar 
     3   11   12 2  
     4   10   11 ar 
     5    6    7 ar 
     6    8    9 ar 
     7    7    8 ar 
     8    6   11 ar 
     9    9   13 2  
    10    5    6 1  
    11    1    2 am 
    12    2    3 2  
    13    2    4 1  
    14    1   14 1  
    15    1   15 1  
    16    4   16 1  
    17    5   17 1  
    18    7   18 1  
# Name:          frag5-652-26/41815 -- energy: -0.872628
# Creation time: Sat Jun  5 12:53:01 2010


@<TRIPOS>MOLECULE
frag5-652-26/41815 -- energy: -0.872628
   18    18     1     1     1
SMALL
USER_CHARGES


@<TRIPOS>ATOM
      1 N1          3.8142   -1.3450   -1.3507 N.am       1 <1>        0.000
      2 C11         3.7704   -0.0706   -0.9381 C.2        1 <1>        0.000
      3 O2          2.7644    0.6105   -1.0255 O.2        1 <1>        0.000
      4 C12         5.0074    0.4895   -0.3606 C.2        1 <1>        0.000
      5 C13         5.0844    1.7627    0.0793 C.2        1 <1>        0.000
      6 C14         6.1546    2.5151    0.6756 C.ar       1 <1>        0.000
      7 C15         7.4763    2.4571    0.0759 C.ar       1 <1>        0.000
      8 N2          8.4667    3.0725    0.6260 N.ar       1 <1>        0.000
      9 C16         8.3339    3.7784    1.7766 C.ar       1 <1>        0.000
     10 N3          7.1866    3.8464    2.2936 N.ar       1 <1>        0.000
     11 C17         6.0785    3.2545    1.7748 C.ar       1 <1>        0.000
     12 O3          5.1153    3.4496    2.4062 O.2        1 <1>        0.000
     13 O4          9.3334    4.2471    2.1616 O.2        1 <1>        0.000
     14 H           2.9846   -1.7787   -1.7558 H.spc      1 <1>        0.000
     15 H           4.6771   -1.8812   -1.2597 H.spc      1 <1>        0.000
     16 H           5.8891   -0.1471   -0.2869 H.spc      1 <1>        0.000
     17 H           4.1601    2.3279   -0.0400 H.spc      1 <1>        0.000
     18 H           7.6314    1.8912   -0.8427 H.spc      1 <1>        0.000
@<TRIPOS>BOND
     1    4    5 2  
     2    9   10 ar 
     3   11   12 2  
     4   10   11 ar 
     5    6    7 ar 
     6    8    9 ar 
     7    7    8 ar 
     8    6   11 ar 
     9    9   13 2  
    10    5    6 1  
    11    1    2 am 
    12    2    3 2  
    13    2    4 1  
    14    1   14 1  
    15    1   15 1  
    16    4   16 1  
    17    5   17 1  
    18    7   18 1  
# Name:          frag5-652-26/41815 -- energy: -0.956080
# Creation time: Sat Jun  5 12:53:01 2010


@<TRIPOS>MOLECULE
frag5-652-26/41815 -- energy: -0.956080
   18    18     1     1     1
SMALL
USER_CHARGES


@<TRIPOS>ATOM
      1 N1          3.1176   -1.1108   -0.3147 N.am       1 <1>        0.000
      2 C11         3.6531    0.0221   -0.8038 C.2        1 <1>        0.000
      3 O2          3.3467    0.5005   -1.8846 O.2        1 <1>        0.000
      4 C12         4.6324    0.7026    0.0507 C.2        1 <1>        0.000
      5 C13         5.3911    1.7417   -0.3261 C.2        1 <1>        0.000
      6 C14         6.3417    2.4956    0.4490 C.ar       1 <1>        0.000
      7 C15         7.6198    2.8645   -0.1434 C.ar       1 <1>        0.000
      8 N2          8.4972    3.5011    0.5495 N.ar       1 <1>        0.000
      9 C16         8.2854    3.8545    1.8410 C.ar       1 <1>        0.000
     10 N3          7.1764    3.5336    2.3515 N.ar       1 <1>        0.000
     11 C17         6.1743    2.8707    1.7151 C.ar       1 <1>        0.000
     12 O3          5.1995    2.6626    2.3308 O.2        1 <1>        0.000
     13 O4          9.1513    4.4292    2.3797 O.2        1 <1>        0.000
     14 H           2.4160   -1.6177   -0.8543 H.spc      1 <1>        0.000
     15 H           3.4131   -1.4630    0.5958 H.spc      1 <1>        0.000
     16 H           4.7523    0.3353    1.0699 H.spc      1 <1>        0.000
     17 H           5.2718    2.0595   -1.3619 H.spc      1 <1>        0.000
     18 H           7.8342    2.6000   -1.1789 H.spc      1 <1>        0.000
@<TRIPOS>BOND
     1    4    5 2  
     2    9   10 ar 
     3   11   12 2  
     4   10   11 ar 
     5    6    7 ar 
     6    8    9 ar 
     7    7    8 ar 
     8    6   11 ar 
     9    9   13 2  
    10    5    6 1  
    11    1    2 am 
    12    2    3 2  
    13    2    4 1  
    14    1   14 1  
    15    1   15 1  
    16    4   16 1  
    17    5   17 1  
    18    7   18 1  
# Name:          frag5-652-26/41815 -- energy: -0.926825
# Creation time: Sat Jun  5 12:53:01 2010


@<TRIPOS>MOLECULE
frag5-652-26/41815 -- energy: -0.926825
   18    18     1     1     1
SMALL
USER_CHARGES


@<TRIPOS>ATOM
      1 N1          3.8561   -0.7573   -2.1627 N.am       1 <1>        0.000
      2 C11         3.7798   -0.0317   -1.0287 C.2        1 <1>        0.000
      3 O2          2.7995   -0.0365   -0.3012 O.2        1 <1>        0.000
      4 C12         4.9493    0.8037   -0.6824 C.2        1 <1>        0.000
      5 C13         5.0848    1.4828    0.4776 C.2        1 <1>        0.000
      6 C14         6.1477    2.3361    0.9535 C.ar       1 <1>        0.000
      7 C15         7.5014    2.0244    0.4964 C.ar       1 <1>        0.000
      8 N2          8.5004    2.7492    0.8521 N.ar       1 <1>        0.000
      9 C16         8.3559    3.8198    1.6691 C.ar       1 <1>        0.000
     10 N3          7.1866    4.0885    2.0656 N.ar       1 <1>        0.000
     11 C17         6.0537    3.3989    1.7442 C.ar       1 <1>        0.000
     12 O3          5.0367    3.7869    2.1731 O.2        1 <1>        0.000
     13 O4          9.3347    4.4032    1.9379 O.2        1 <1>        0.000
     14 H           3.0717   -1.3444   -2.4462 H.spc      1 <1>        0.000
     15 H           4.6982   -0.7190   -2.7370 H.spc      1 <1>        0.000
     16 H           5.7561    0.8766   -1.4117 H.spc      1 <1>        0.000
     17 H           4.2516    1.3670    1.1707 H.spc      1 <1>        0.000
     18 H           7.6648    1.1657   -0.1547 H.spc      1 <1>        0.000
@<TRIPOS>BOND
     1    4    5 2  
     2    9   10 ar 
     3   11   12 2  
     4   10   11 ar 
     5    6    7 ar 
     6    8    9 ar 
     7    7    8 ar 
     8    6   11 ar 
     9    9   13 2  
    10    5    6 1  
    11    1    2 am 
    12    2    3 2  
    13    2    4 1  
    14    1   14 1  
    15    1   15 1  
    16    4   16 1  
    17    5   17 1  
    18    7   18 1  
# Name:          frag5-652-26/41815 -- energy: -0.982568
# Creation time: Sat Jun  5 12:53:01 2010


@<TRIPOS>MOLECULE
frag5-652-26/41815 -- energy: -0.982568
   18    18     1     1     1
SMALL
USER_CHARGES


@<TRIPOS>ATOM
      1 N1          2.5920    0.4368   -1.7008 N.am       1 <1>        0.000
      2 C11         3.6384    0.1109   -0.9208 C.2        1 <1>        0.000
      3 O2          3.8877   -1.0370   -0.5873 O.2        1 <1>        0.000
      4 C12         4.4903    1.2161   -0.4554 C.2        1 <1>        0.000
      5 C13         5.5853    1.0683    0.3071 C.2        1 <1>        0.000
      6 C14         6.4572    2.0908    0.8336 C.ar       1 <1>        0.000
      7 C15         7.8590    2.0888    0.4328 C.ar       1 <1>        0.000
      8 N2          8.6576    3.0063    0.8645 N.ar       1 <1>        0.000
      9 C16         8.2461    3.9946    1.7026 C.ar       1 <1>        0.000
     10 N3          7.0296    3.9971    2.0392 N.ar       1 <1>        0.000
     11 C17         6.0926    3.0941    1.6297 C.ar       1 <1>        0.000
     12 O3          4.9924    3.2326    2.0031 O.2        1 <1>        0.000
     13 O4          9.0582    4.7685    2.0464 O.2        1 <1>        0.000
     14 H           1.9638   -0.2909   -2.0417 H.spc      1 <1>        0.000
     15 H           2.4268    1.4116   -1.9514 H.spc      1 <1>        0.000
     16 H           4.2125    2.2278   -0.7509 H.spc      1 <1>        0.000
     17 H           5.8505    0.0422    0.5618 H.spc      1 <1>        0.000
     18 H           8.2333    1.3109   -0.2327 H.spc      1 <1>        0.000
@<TRIPOS>BOND
     1    4    5 2  
     2    9   10 ar 
     3   11   12 2  
     4   10   11 ar 
     5    6    7 ar 
     6    8    9 ar 
     7    7    8 ar 
     8    6   11 ar 
     9    9   13 2  
    10    5    6 1  
    11    1    2 am 
    12    2    3 2  
    13    2    4 1  
    14    1   14 1  
    15    1   15 1  
    16    4   16 1  
    17    5   17 1  
    18    7   18 1  
# Name:          frag5-652-26/41815 -- energy: -0.986575
# Creation time: Sat Jun  5 12:53:01 2010


@<TRIPOS>MOLECULE
frag5-652-26/41815 -- energy: -0.986575
   18    18     1     1     1
SMALL
USER_CHARGES


@<TRIPOS>ATOM
      1 N1          3.3569   -0.8497   -0.2787 N.am       1 <1>        0.000
      2 C11         3.7569    0.0818   -1.1538 C.2        1 <1>        0.000
      3 O2          3.2492    0.2239   -2.2573 O.2        1 <1>        0.000
      4 C12         4.8712    0.9693   -0.7774 C.2        1 <1>        0.000
      5 C13         5.1534    1.3982    0.4706 C.2        1 <1>        0.000
      6 C14         6.1898    2.2788    0.9524 C.ar       1 <1>        0.000
      7 C15         7.4249    2.3443    0.1735 C.ar       1 <1>        0.000
      8 N2          8.3865    3.1173    0.5245 N.ar       1 <1>        0.000
      9 C16         8.3102    3.8955    1.6261 C.ar       1 <1>        0.000
     10 N3          7.2449    3.8413    2.2998 N.ar       1 <1>        0.000
     11 C17         6.1568    3.0687    2.0198 C.ar       1 <1>        0.000
     12 O3          5.2344    3.1455    2.7344 O.2        1 <1>        0.000
     13 O4          9.2514    4.5530    1.8607 O.2        1 <1>        0.000
     14 H           2.5946   -1.4828   -0.5205 H.spc      1 <1>        0.000
     15 H           3.8146   -0.9261    0.6296 H.spc      1 <1>        0.000
     16 H           5.5265    1.3100   -1.5790 H.spc      1 <1>        0.000
     17 H           4.4871    1.0155    1.2437 H.spc      1 <1>        0.000
     18 H           7.5304    1.7272   -0.7188 H.spc      1 <1>        0.000
@<TRIPOS>BOND
     1    4    5 2  
     2    9   10 ar 
     3   11   12 2  
     4   10   11 ar 
     5    6    7 ar 
     6    8    9 ar 
     7    7    8 ar 
     8    6   11 ar 
     9    9   13 2  
    10    5    6 1  
    11    1    2 am 
    12    2    3 2  
    13    2    4 1  
    14    1   14 1  
    15    1   15 1  
    16    4   16 1  
    17    5   17 1  
    18    7   18 1  
# Name:          frag5-652-26/41815 -- energy: -1.150718
# Creation time: Sat Jun  5 12:53:02 2010


@<TRIPOS>MOLECULE
frag5-652-26/41815 -- energy: -1.150718
   18    18     1     1     1
SMALL
USER_CHARGES


@<TRIPOS>ATOM
      1 N1          2.6442   -0.0935   -0.3196 N.am       1 <1>        0.000
      2 C11         3.8144   -0.0928   -0.9728 C.2        1 <1>        0.000
      3 O2          3.9663   -0.6162   -2.0669 O.2        1 <1>        0.000
      4 C12         4.9742    0.5457   -0.3177 C.2        1 <1>        0.000
      5 C13         5.0539    1.8462    0.0217 C.2        1 <1>        0.000
      6 C14         6.1272    2.5691    0.6657 C.ar       1 <1>        0.000
      7 C15         7.3910    2.6990   -0.0592 C.ar       1 <1>        0.000
      8 N2          8.4030    3.2797    0.4945 N.ar       1 <1>        0.000
      9 C16         8.3487    3.7903    1.7552 C.ar       1 <1>        0.000
     10 N3          7.2550    3.6768    2.3781 N.ar       1 <1>        0.000
     11 C17         6.1185    3.0977    1.8881 C.ar       1 <1>        0.000
     12 O3          5.1642    3.0686    2.5632 O.2        1 <1>        0.000
     13 O4          9.3259    4.2971    2.1643 O.2        1 <1>        0.000
     14 H           1.8290   -0.5450   -0.7342 H.spc      1 <1>        0.000
     15 H           2.5688    0.3575    0.5922 H.spc      1 <1>        0.000
     16 H           5.8333   -0.0858   -0.0912 H.spc      1 <1>        0.000
     17 H           4.1769    2.4440   -0.2266 H.spc      1 <1>        0.000
     18 H           7.4790    2.3039   -1.0713 H.spc      1 <1>        0.000
@<TRIPOS>BOND
     1    4    5 2  
     2    9   10 ar 
     3   11   12 2  
     4   10   11 ar 
     5    6    7 ar 
     6    8    9 ar 
     7    7    8 ar 
     8    6   11 ar 
     9    9   13 2  
    10    5    6 1  
    11    1    2 am 
    12    2    3 2  
    13    2    4 1  
    14    1   14 1  
    15    1   15 1  
    16    4   16 1  
    17    5   17 1  
    18    7   18 1  
# Name:          frag5-652-26/41815 -- energy: -1.010173
# Creation time: Sat Jun  5 12:53:02 2010


@<TRIPOS>MOLECULE
frag5-652-26/41815 -- energy: -1.010173
   18    18     1     1     1
SMALL
USER_CHARGES


@<TRIPOS>ATOM
      1 N1          4.0879   -0.8404   -1.4786 N.am       1 <1>        0.000
      2 C11         3.5213    0.2053   -0.8631 C.2        1 <1>        0.000
      3 O2          2.3114    0.3596   -0.7890 O.2        1 <1>        0.000
      4 C12         4.3770    1.2356   -0.2723 C.2        1 <1>        0.000
      5 C13         5.6437    1.1089    0.1387 C.2        1 <1>        0.000
      6 C14         6.5030    2.0993    0.7299 C.ar       1 <1>        0.000
      7 C15         7.8976    2.1611    0.3144 C.ar       1 <1>        0.000
      8 N2          8.6835    3.0491    0.8127 N.ar       1 <1>        0.000
      9 C16         8.2663    3.9507    1.7365 C.ar       1 <1>        0.000
     10 N3          7.0544    3.8996    2.0864 N.ar       1 <1>        0.000
     11 C17         6.1309    3.0203    1.6150 C.ar       1 <1>        0.000
     12 O3          5.0397    3.1163    2.0285 O.2        1 <1>        0.000
     13 O4          9.0698    4.7026    2.1354 O.2        1 <1>        0.000
     14 H           3.5034   -1.5544   -1.9133 H.spc      1 <1>        0.000
     15 H           5.1040   -0.9229   -1.5127 H.spc      1 <1>        0.000
     16 H           3.9293    2.2223   -0.1532 H.spc      1 <1>        0.000
     17 H           6.0846    0.1207    0.0078 H.spc      1 <1>        0.000
     18 H           8.2767    1.4521   -0.4216 H.spc      1 <1>        0.000
@<TRIPOS>BOND
     1    4    5 2  
     2    9   10 ar 
     3   11   12 2  
     4   10   11 ar 
     5    6    7 ar 
     6    8    9 ar 
     7    7    8 ar 
     8    6   11 ar 
     9    9   13 2  
    10    5    6 1  
    11    1    2 am 
    12    2    3 2  
    13    2    4 1  
    14    1   14 1  
    15    1   15 1  
    16    4   16 1  
    17    5   17 1  
    18    7   18 1  
