#      Rotatable Fragment
#      Build by yxyuan
#
# Name:          frag2-022-1509/92655
# Creation time: Sat Jun  5 12:51:56 2010


@<TRIPOS>MOLECULE
frag2-022-1509/92655
    5     4     1     1     1
SMALL
USER_CHARGES


@<TRIPOS>ATOM
      1 S1          5.7691   -3.5012   -2.6777 S.o2       1 <1>        0.000
      2 O1          6.2636   -3.2417   -1.3395 O.2        1 <1>        0.000
      3 O2          6.6618   -4.0249   -3.6933 O.2        1 <1>        0.000
      4 H           5.4098   -2.3056   -3.1363 H.spc      1 <1>        0.000
      5 H           4.8560   -4.4545   -2.5150 H.spc      1 <1>        0.000
@<TRIPOS>BOND
     1    1    2 2  
     2    1    3 2  
     3    1    4 1  
     4    1    5 1  
# Name:          frag2-022-1509/92655 -- energy: 0.000000
# Creation time: Sat Jun  5 12:51:56 2010


@<TRIPOS>MOLECULE
frag2-022-1509/92655 -- energy: 0.000000
    5     4     1     1     1
SMALL
USER_CHARGES


@<TRIPOS>ATOM
      1 S1          5.7691   -3.5012   -2.6777 S.o2       1 <1>        0.000
      2 O1          6.2636   -3.2417   -1.3395 O.2        1 <1>        0.000
      3 O2          6.6618   -4.0249   -3.6933 O.2        1 <1>        0.000
      4 H           5.4098   -2.3056   -3.1363 H.spc      1 <1>        0.000
      5 H           4.8560   -4.4545   -2.5150 H.spc      1 <1>        0.000
@<TRIPOS>BOND
     1    1    2 2  
     2    1    3 2  
     3    1    4 1  
     4    1    5 1  
