#      Rotatable Fragment
#      Build by yxyuan
#
# Name:          frag3-205-8/96164
# Creation time: Sat Jun  5 12:53:10 2010


@<TRIPOS>MOLECULE
frag3-205-8/96164
   15    14     1     1     1
SMALL
USER_CHARGES


@<TRIPOS>ATOM
      1 N4         -1.6476    0.8491   -0.7350 N.am       1 <1>        0.000
      2 C22        -1.5212    2.0848   -0.1247 C.2        1 <1>        0.000
      3 C23        -0.9724   -0.2857   -0.5158 C.2        1 <1>        0.000
      4 O7         -0.2928    2.5998   -0.3013 O.3        1 <1>        0.000
      5 O8         -2.4241    2.7258    0.3819 O.2        1 <1>        0.000
      6 N5         -1.0749   -1.5412   -0.7899 N.am       1 <1>        0.000
      7 N6          0.1256   -0.1518    0.0380 N.2        1 <1>        0.000
      8 C28        -1.9354   -1.7404   -1.8227 C.2        1 <1>        0.000
      9 O9         -1.8851   -0.7861   -2.7867 O.3        1 <1>        0.000
     10 O10        -2.6812   -2.6799   -1.9391 O.2        1 <1>        0.000
     11 H          -2.3624    0.7950   -1.4606 H.spc      1 <1>        0.000
     12 H           0.2725    1.9422   -0.7132 H.spc      1 <1>        0.000
     13 H          -0.5778   -2.2840   -0.2985 H.spc      1 <1>        0.000
     14 H           0.7262   -0.9634    0.1826 H.spc      1 <1>        0.000
     15 H          -1.2447   -0.1154   -2.5384 H.spc      1 <1>        0.000
@<TRIPOS>BOND
     1    1    2 am 
     2    1    3 1  
     3    2    4 1  
     4    2    5 2  
     5    3    6 1  
     6    3    7 2  
     7    6    8 am 
     8    8    9 1  
     9    8   10 2  
    10    1   11 1  
    11    4   12 1  
    12    6   13 1  
    13    7   14 1  
    14    9   15 1  
# Name:          frag3-205-8/96164
# Creation time: Sat Jun  5 12:53:10 2010


@<TRIPOS>MOLECULE
frag3-205-8/96164
   15    14     1     1     1
SMALL
USER_CHARGES


@<TRIPOS>ATOM
      1 N4         -1.7316    0.6302   -0.0428 N.am       1 <1>        0.000
      2 C22        -1.5310    1.9374   -0.3811 C.2        1 <1>        0.000
      3 C23        -0.8920   -0.3584   -0.2914 C.2        1 <1>        0.000
      4 O7         -0.2774    2.2323   -0.7079 O.3        1 <1>        0.000
      5 O8         -2.4228    2.7679   -0.3636 O.2        1 <1>        0.000
      6 N5         -0.8364   -1.4470   -0.9642 N.am       1 <1>        0.000
      7 N6          0.1652   -0.3644    0.3651 N.2        1 <1>        0.000
      8 C28        -1.8855   -1.4529   -1.8467 C.2        1 <1>        0.000
      9 O9         -3.1121   -1.2238   -1.3261 O.3        1 <1>        0.000
     10 O10        -1.7854   -1.6470   -3.0367 O.2        1 <1>        0.000
     11 H          -2.5993    0.3985    0.4406 H.spc      1 <1>        0.000
     12 H           0.2603    1.4386   -0.6579 H.spc      1 <1>        0.000
     13 H          -0.1350   -2.1804   -0.8614 H.spc      1 <1>        0.000
     14 H           0.8203   -1.1404    0.2699 H.spc      1 <1>        0.000
     15 H          -3.0362   -1.0882   -0.3788 H.spc      1 <1>        0.000
@<TRIPOS>BOND
     1    1    2 am 
     2    1    3 1  
     3    2    4 1  
     4    2    5 2  
     5    3    6 1  
     6    3    7 2  
     7    6    8 am 
     8    8    9 1  
     9    8   10 2  
    10    1   11 1  
    11    4   12 1  
    12    6   13 1  
    13    7   14 1  
    14    9   15 1  
# Name:          frag3-205-8/96164
# Creation time: Sat Jun  5 12:53:10 2010


@<TRIPOS>MOLECULE
frag3-205-8/96164
   15    14     1     1     1
SMALL
USER_CHARGES


@<TRIPOS>ATOM
      1 N4         -1.6677    0.7706   -0.5978 N.am       1 <1>        0.000
      2 C22        -1.4446    2.0960   -0.2977 C.2        1 <1>        0.000
      3 C23        -0.7997   -0.2393   -0.7241 C.2        1 <1>        0.000
      4 O7         -0.8876    2.2374    0.9137 O.3        1 <1>        0.000
      5 O8         -1.8365    3.0486   -0.9487 O.2        1 <1>        0.000
      6 N5         -0.7657   -1.4345   -1.2382 N.am       1 <1>        0.000
      7 N6          0.2738   -0.0768   -0.1424 N.2        1 <1>        0.000
      8 C28        -1.9865   -1.7459   -1.7521 C.2        1 <1>        0.000
      9 O9         -3.0092   -1.1795   -1.0607 O.3        1 <1>        0.000
     10 O10        -2.1854   -2.4023   -2.7475 O.2        1 <1>        0.000
     11 H          -2.6453    0.5205   -0.7467 H.spc      1 <1>        0.000
     12 H          -0.6482    1.3736    1.2574 H.spc      1 <1>        0.000
     13 H           0.0515   -2.0447   -1.2535 H.spc      1 <1>        0.000
     14 H           0.9712   -0.8211   -0.1416 H.spc      1 <1>        0.000
     15 H          -2.6577   -0.7011   -0.3063 H.spc      1 <1>        0.000
@<TRIPOS>BOND
     1    1    2 am 
     2    1    3 1  
     3    2    4 1  
     4    2    5 2  
     5    3    6 1  
     6    3    7 2  
     7    6    8 am 
     8    8    9 1  
     9    8   10 2  
    10    1   11 1  
    11    4   12 1  
    12    6   13 1  
    13    7   14 1  
    14    9   15 1  
# Name:          frag3-205-8/96164
# Creation time: Sat Jun  5 12:53:10 2010


@<TRIPOS>MOLECULE
frag3-205-8/96164
   15    14     1     1     1
SMALL
USER_CHARGES


@<TRIPOS>ATOM
      1 N4         -1.8645    0.7678   -0.1181 N.am       1 <1>        0.000
      2 C22        -1.3222    2.0061   -0.3580 C.2        1 <1>        0.000
      3 C23        -1.1945   -0.3796   -0.1817 C.2        1 <1>        0.000
      4 O7         -2.2739    2.8438   -0.8562 O.3        1 <1>        0.000
      5 O8         -0.2106    2.3859   -0.0915 O.2        1 <1>        0.000
      6 N5         -1.3459   -1.5762   -0.6128 N.am       1 <1>        0.000
      7 N6         -0.0952   -0.4268    0.4568 N.2        1 <1>        0.000
      8 C28        -1.8250   -1.5809   -1.8849 C.2        1 <1>        0.000
      9 O9         -2.2156   -0.3871   -2.3885 O.3        1 <1>        0.000
     10 O10        -1.9616   -2.5785   -2.5606 O.2        1 <1>        0.000
     11 H          -2.8537    0.7245    0.1269 H.spc      1 <1>        0.000
     12 H          -3.0862    2.3532   -1.0014 H.spc      1 <1>        0.000
     13 H          -1.1347   -2.4152   -0.0726 H.spc      1 <1>        0.000
     14 H           0.4238   -1.3030    0.5147 H.spc      1 <1>        0.000
     15 H          -2.0457    0.3025   -1.7426 H.spc      1 <1>        0.000
@<TRIPOS>BOND
     1    1    2 am 
     2    1    3 1  
     3    2    4 1  
     4    2    5 2  
     5    3    6 1  
     6    3    7 2  
     7    6    8 am 
     8    8    9 1  
     9    8   10 2  
    10    1   11 1  
    11    4   12 1  
    12    6   13 1  
    13    7   14 1  
    14    9   15 1  
# Name:          frag3-205-8/96164
# Creation time: Sat Jun  5 12:53:10 2010


@<TRIPOS>MOLECULE
frag3-205-8/96164
   15    14     1     1     1
SMALL
USER_CHARGES


@<TRIPOS>ATOM
      1 N4         -1.8140    0.7409   -0.2580 N.am       1 <1>        0.000
      2 C22        -1.5791    2.0956   -0.0548 C.2        1 <1>        0.000
      3 C23        -0.9953   -0.3058   -0.4314 C.2        1 <1>        0.000
      4 O7         -0.4086    2.5079   -0.5226 O.3        1 <1>        0.000
      5 O8         -2.4063    2.8277    0.4510 O.2        1 <1>        0.000
      6 N5         -1.0720   -1.5386   -0.8117 N.am       1 <1>        0.000
      7 N6          0.2057   -0.1191   -0.1529 N.2        1 <1>        0.000
      8 C28        -1.8442   -1.6012   -1.9157 C.2        1 <1>        0.000
      9 O9         -2.2226   -2.8630   -2.2787 O.3        1 <1>        0.000
     10 O10        -2.1727   -0.6700   -2.6207 O.2        1 <1>        0.000
     11 H          -2.8037    0.4951   -0.2793 H.spc      1 <1>        0.000
     12 H           0.0765    1.7577   -0.8741 H.spc      1 <1>        0.000
     13 H          -0.6234   -2.3318   -0.3534 H.spc      1 <1>        0.000
     14 H           0.8770   -0.8803   -0.2542 H.spc      1 <1>        0.000
     15 H          -1.8946   -3.4926   -1.6325 H.spc      1 <1>        0.000
@<TRIPOS>BOND
     1    1    2 am 
     2    1    3 1  
     3    2    4 1  
     4    2    5 2  
     5    3    6 1  
     6    3    7 2  
     7    6    8 am 
     8    8    9 1  
     9    8   10 2  
    10    1   11 1  
    11    4   12 1  
    12    6   13 1  
    13    7   14 1  
    14    9   15 1  
# Name:          frag3-205-8/96164
# Creation time: Sat Jun  5 12:53:10 2010


@<TRIPOS>MOLECULE
frag3-205-8/96164
   15    14     1     1     1
SMALL
USER_CHARGES


@<TRIPOS>ATOM
      1 N4         -1.8111    1.4927   -0.8399 N.am       1 <1>        0.000
      2 C22        -1.1843    2.3021    0.1055 C.2        1 <1>        0.000
      3 C23        -1.5651    0.1804   -0.9928 C.2        1 <1>        0.000
      4 O7         -1.2167    3.5511   -0.4207 O.3        1 <1>        0.000
      5 O8         -0.7700    2.0618    1.2129 O.2        1 <1>        0.000
      6 N5         -1.9191   -0.7054   -1.9356 N.am       1 <1>        0.000
      7 N6         -0.8378   -0.3436   -0.1047 N.2        1 <1>        0.000
      8 C28        -1.7908   -2.0963   -1.8593 C.2        1 <1>        0.000
      9 O9         -0.5171   -2.4836   -1.6871 O.3        1 <1>        0.000
     10 O10        -2.6971   -2.8848   -2.0736 O.2        1 <1>        0.000
     11 H          -2.5008    1.9239   -1.4553 H.spc      1 <1>        0.000
     12 H          -1.5818    3.5140   -1.3078 H.spc      1 <1>        0.000
     13 H          -2.3217   -0.3275   -2.7932 H.spc      1 <1>        0.000
     14 H          -0.5907   -1.3314   -0.1653 H.spc      1 <1>        0.000
     15 H           0.0326   -1.7120   -1.5318 H.spc      1 <1>        0.000
@<TRIPOS>BOND
     1    1    2 am 
     2    1    3 1  
     3    2    4 1  
     4    2    5 2  
     5    3    6 1  
     6    3    7 2  
     7    6    8 am 
     8    8    9 1  
     9    8   10 2  
    10    1   11 1  
    11    4   12 1  
    12    6   13 1  
    13    7   14 1  
    14    9   15 1  
# Name:          frag3-205-8/96164
# Creation time: Sat Jun  5 12:53:10 2010


@<TRIPOS>MOLECULE
frag3-205-8/96164
   15    14     1     1     1
SMALL
USER_CHARGES


@<TRIPOS>ATOM
      1 N4         -2.0574   -0.5395   -0.9600 N.am       1 <1>        0.000
      2 C22        -1.9234   -1.4099   -2.0043 C.2        1 <1>        0.000
      3 C23        -1.0755   -0.1756   -0.1394 C.2        1 <1>        0.000
      4 O7         -2.9725   -1.3241   -2.8537 O.3        1 <1>        0.000
      5 O8         -1.0202   -2.1854   -2.1705 O.2        1 <1>        0.000
      6 N5         -0.5297    0.9094    0.3188 N.am       1 <1>        0.000
      7 N6         -0.4495   -1.0822    0.4501 N.2        1 <1>        0.000
      8 C28        -1.2476    1.9594   -0.2024 C.2        1 <1>        0.000
      9 O9         -0.7464    2.5579   -1.2970 O.3        1 <1>        0.000
     10 O10        -2.2870    2.3644    0.2630 O.2        1 <1>        0.000
     11 H          -2.9807   -0.1379   -0.7970 H.spc      1 <1>        0.000
     12 H          -3.5794   -0.6479   -2.5436 H.spc      1 <1>        0.000
     13 H           0.2744    0.9708    0.9433 H.spc      1 <1>        0.000
     14 H           0.2918   -0.8447    1.1092 H.spc      1 <1>        0.000
     15 H           0.0756    2.1294   -1.5465 H.spc      1 <1>        0.000
@<TRIPOS>BOND
     1    1    2 am 
     2    1    3 1  
     3    2    4 1  
     4    2    5 2  
     5    3    6 1  
     6    3    7 2  
     7    6    8 am 
     8    8    9 1  
     9    8   10 2  
    10    1   11 1  
    11    4   12 1  
    12    6   13 1  
    13    7   14 1  
    14    9   15 1  
# Name:          frag3-205-8/96164
# Creation time: Sat Jun  5 12:53:10 2010


@<TRIPOS>MOLECULE
frag3-205-8/96164
   15    14     1     1     1
SMALL
USER_CHARGES


@<TRIPOS>ATOM
      1 N4         -2.0100    1.0852    0.0003 N.am       1 <1>        0.000
      2 C22        -1.3801    2.2975    0.2364 C.2        1 <1>        0.000
      3 C23        -1.5762    0.0182   -0.6861 C.2        1 <1>        0.000
      4 O7         -0.6064    2.7124   -0.7747 O.3        1 <1>        0.000
      5 O8         -1.5689    3.0014    1.2177 O.2        1 <1>        0.000
      6 N5         -2.0928   -1.2049   -0.8973 N.am       1 <1>        0.000
      7 N6         -0.4228    0.1795   -1.1968 N.2        1 <1>        0.000
      8 C28        -1.7234   -2.0498   -1.9259 C.2        1 <1>        0.000
      9 O9         -0.4115   -2.3308   -1.9119 O.3        1 <1>        0.000
     10 O10        -2.5171   -2.6344   -2.6571 O.2        1 <1>        0.000
     11 H          -2.9399    0.9912    0.4087 H.spc      1 <1>        0.000
     12 H          -0.5748    2.0326   -1.4518 H.spc      1 <1>        0.000
     13 H          -2.8101   -1.5331   -0.2506 H.spc      1 <1>        0.000
     14 H           0.0198   -0.5840   -1.7083 H.spc      1 <1>        0.000
     15 H           0.0292   -1.7644   -1.2743 H.spc      1 <1>        0.000
@<TRIPOS>BOND
     1    1    2 am 
     2    1    3 1  
     3    2    4 1  
     4    2    5 2  
     5    3    6 1  
     6    3    7 2  
     7    6    8 am 
     8    8    9 1  
     9    8   10 2  
    10    1   11 1  
    11    4   12 1  
    12    6   13 1  
    13    7   14 1  
    14    9   15 1  
# Name:          frag3-205-8/96164
# Creation time: Sat Jun  5 12:53:10 2010


@<TRIPOS>MOLECULE
frag3-205-8/96164
   15    14     1     1     1
SMALL
USER_CHARGES


@<TRIPOS>ATOM
      1 N4         -1.3185   -0.3030   -1.5343 N.am       1 <1>        0.000
      2 C22        -1.8382   -1.4842   -2.0195 C.2        1 <1>        0.000
      3 C23        -0.9540   -0.0564   -0.2879 C.2        1 <1>        0.000
      4 O7         -1.7392   -1.4381   -3.3720 O.3        1 <1>        0.000
      5 O8         -2.4253   -2.3763   -1.4460 O.2        1 <1>        0.000
      6 N5         -0.8422    0.9183    0.5608 N.am       1 <1>        0.000
      7 N6         -0.4155   -1.0604    0.2960 N.2        1 <1>        0.000
      8 C28        -1.4579    1.9840   -0.0076 C.2        1 <1>        0.000
      9 O9         -0.8864    2.3130   -1.1925 O.3        1 <1>        0.000
     10 O10        -2.4317    2.5773    0.4077 O.2        1 <1>        0.000
     11 H          -1.2037    0.4572   -2.2047 H.spc      1 <1>        0.000
     12 H          -1.2395   -0.6596   -3.6288 H.spc      1 <1>        0.000
     13 H          -0.3838    0.8888    1.4715 H.spc      1 <1>        0.000
     14 H          -0.0244   -0.9564    1.2323 H.spc      1 <1>        0.000
     15 H          -0.1337    1.7394   -1.3537 H.spc      1 <1>        0.000
@<TRIPOS>BOND
     1    1    2 am 
     2    1    3 1  
     3    2    4 1  
     4    2    5 2  
     5    3    6 1  
     6    3    7 2  
     7    6    8 am 
     8    8    9 1  
     9    8   10 2  
    10    1   11 1  
    11    4   12 1  
    12    6   13 1  
    13    7   14 1  
    14    9   15 1  
# Name:          frag3-205-8/96164 -- energy: 2.136575
# Creation time: Sat Jun  5 12:53:10 2010


@<TRIPOS>MOLECULE
frag3-205-8/96164 -- energy: 2.136575
   15    14     1     1     1
SMALL
USER_CHARGES


@<TRIPOS>ATOM
      1 N4         -1.8140    0.7409   -0.2580 N.am       1 <1>        0.000
      2 C22        -1.5791    2.0956   -0.0548 C.2        1 <1>        0.000
      3 C23        -0.9953   -0.3058   -0.4314 C.2        1 <1>        0.000
      4 O7         -0.4086    2.5079   -0.5226 O.3        1 <1>        0.000
      5 O8         -2.4063    2.8277    0.4510 O.2        1 <1>        0.000
      6 N5         -1.0720   -1.5386   -0.8117 N.am       1 <1>        0.000
      7 N6          0.2057   -0.1191   -0.1529 N.2        1 <1>        0.000
      8 C28        -1.8442   -1.6012   -1.9157 C.2        1 <1>        0.000
      9 O9         -2.2226   -2.8630   -2.2787 O.3        1 <1>        0.000
     10 O10        -2.1727   -0.6700   -2.6207 O.2        1 <1>        0.000
     11 H          -2.8037    0.4951   -0.2793 H.spc      1 <1>        0.000
     12 H           0.0765    1.7577   -0.8741 H.spc      1 <1>        0.000
     13 H          -0.6234   -2.3318   -0.3534 H.spc      1 <1>        0.000
     14 H           0.8770   -0.8803   -0.2542 H.spc      1 <1>        0.000
     15 H          -1.8946   -3.4926   -1.6325 H.spc      1 <1>        0.000
@<TRIPOS>BOND
     1    1    2 am 
     2    1    3 1  
     3    2    4 1  
     4    2    5 2  
     5    3    6 1  
     6    3    7 2  
     7    6    8 am 
     8    8    9 1  
     9    8   10 2  
    10    1   11 1  
    11    4   12 1  
    12    6   13 1  
    13    7   14 1  
    14    9   15 1  
# Name:          frag3-205-8/96164 -- energy: 0.503604
# Creation time: Sat Jun  5 12:53:10 2010


@<TRIPOS>MOLECULE
frag3-205-8/96164 -- energy: 0.503604
   15    14     1     1     1
SMALL
USER_CHARGES


@<TRIPOS>ATOM
      1 N4         -2.0574   -0.5395   -0.9600 N.am       1 <1>        0.000
      2 C22        -1.9234   -1.4099   -2.0043 C.2        1 <1>        0.000
      3 C23        -1.0755   -0.1756   -0.1394 C.2        1 <1>        0.000
      4 O7         -2.9725   -1.3241   -2.8537 O.3        1 <1>        0.000
      5 O8         -1.0202   -2.1854   -2.1705 O.2        1 <1>        0.000
      6 N5         -0.5297    0.9094    0.3188 N.am       1 <1>        0.000
      7 N6         -0.4495   -1.0822    0.4501 N.2        1 <1>        0.000
      8 C28        -1.2476    1.9594   -0.2024 C.2        1 <1>        0.000
      9 O9         -0.7464    2.5579   -1.2970 O.3        1 <1>        0.000
     10 O10        -2.2870    2.3644    0.2630 O.2        1 <1>        0.000
     11 H          -2.9807   -0.1379   -0.7970 H.spc      1 <1>        0.000
     12 H          -3.5794   -0.6479   -2.5436 H.spc      1 <1>        0.000
     13 H           0.2744    0.9708    0.9433 H.spc      1 <1>        0.000
     14 H           0.2918   -0.8447    1.1092 H.spc      1 <1>        0.000
     15 H           0.0756    2.1294   -1.5465 H.spc      1 <1>        0.000
@<TRIPOS>BOND
     1    1    2 am 
     2    1    3 1  
     3    2    4 1  
     4    2    5 2  
     5    3    6 1  
     6    3    7 2  
     7    6    8 am 
     8    8    9 1  
     9    8   10 2  
    10    1   11 1  
    11    4   12 1  
    12    6   13 1  
    13    7   14 1  
    14    9   15 1  
