#      Rotatable Fragment
#      Build by yxyuan
#
# Name:          frag4-289-5603/150395
# Creation time: Sat Jun  5 12:53:29 2010


@<TRIPOS>MOLECULE
frag4-289-5603/150395
   18    18     1     1     1
SMALL
USER_CHARGES


@<TRIPOS>ATOM
      1 C16         2.2178   -2.3509   -0.1252 C.3        1 <1>        0.000
      2 C18         2.1651   -0.8268    0.0979 C.3        1 <1>        0.000
      3 C19         3.4486   -2.9667    0.5681 C.3        1 <1>        0.000
      4 C20         3.4647   -0.1545   -0.3863 C.3        1 <1>        0.000
      5 C21         4.7477   -2.2938    0.0835 C.3        1 <1>        0.000
      6 C22         4.6949   -0.7701    0.3084 C.3        1 <1>        0.000
      7 H           2.2845   -2.5461   -1.1955 H.spc      1 <1>        0.000
      8 H           1.3178   -2.7980    0.2969 H.spc      1 <1>        0.000
      9 H           2.0462   -0.6326    1.1639 H.spc      1 <1>        0.000
     10 H           1.3276   -0.4186   -0.4678 H.spc      1 <1>        0.000
     11 H           3.4925   -4.0285    0.3256 H.spc      1 <1>        0.000
     12 H           3.3564   -2.8164    1.6437 H.spc      1 <1>        0.000
     13 H           3.5576   -0.3056   -1.4618 H.spc      1 <1>        0.000
     14 H           3.4208    0.9075   -0.1446 H.spc      1 <1>        0.000
     15 H           5.5858   -2.7026    0.6480 H.spc      1 <1>        0.000
     16 H           4.8657   -2.4868   -0.9828 H.spc      1 <1>        0.000
     17 H           4.6270   -0.5757    1.3788 H.spc      1 <1>        0.000
     18 H           5.5955   -0.3222   -0.1116 H.spc      1 <1>        0.000
@<TRIPOS>BOND
     1    4    6 1  
     2    5    6 1  
     3    1    2 1  
     4    1    3 1  
     5    2    4 1  
     6    3    5 1  
     7    1    7 1  
     8    1    8 1  
     9    2    9 1  
    10    2   10 1  
    11    3   11 1  
    12    3   12 1  
    13    4   13 1  
    14    4   14 1  
    15    5   15 1  
    16    5   16 1  
    17    6   17 1  
    18    6   18 1  
# Name:          frag4-289-5603/150395 -- energy: -1.647017
# Creation time: Sat Jun  5 12:53:29 2010


@<TRIPOS>MOLECULE
frag4-289-5603/150395 -- energy: -1.647017
   18    18     1     1     1
SMALL
USER_CHARGES


@<TRIPOS>ATOM
      1 C16         2.2178   -2.3509   -0.1252 C.3        1 <1>        0.000
      2 C18         2.1651   -0.8268    0.0979 C.3        1 <1>        0.000
      3 C19         3.4486   -2.9667    0.5681 C.3        1 <1>        0.000
      4 C20         3.4647   -0.1545   -0.3863 C.3        1 <1>        0.000
      5 C21         4.7477   -2.2938    0.0835 C.3        1 <1>        0.000
      6 C22         4.6949   -0.7701    0.3084 C.3        1 <1>        0.000
      7 H           2.2845   -2.5461   -1.1955 H.spc      1 <1>        0.000
      8 H           1.3178   -2.7980    0.2969 H.spc      1 <1>        0.000
      9 H           2.0462   -0.6326    1.1639 H.spc      1 <1>        0.000
     10 H           1.3276   -0.4186   -0.4678 H.spc      1 <1>        0.000
     11 H           3.4925   -4.0285    0.3256 H.spc      1 <1>        0.000
     12 H           3.3564   -2.8164    1.6437 H.spc      1 <1>        0.000
     13 H           3.5576   -0.3056   -1.4618 H.spc      1 <1>        0.000
     14 H           3.4208    0.9075   -0.1446 H.spc      1 <1>        0.000
     15 H           5.5858   -2.7026    0.6480 H.spc      1 <1>        0.000
     16 H           4.8657   -2.4868   -0.9828 H.spc      1 <1>        0.000
     17 H           4.6270   -0.5757    1.3788 H.spc      1 <1>        0.000
     18 H           5.5955   -0.3222   -0.1116 H.spc      1 <1>        0.000
@<TRIPOS>BOND
     1    4    6 1  
     2    5    6 1  
     3    1    2 1  
     4    1    3 1  
     5    2    4 1  
     6    3    5 1  
     7    1    7 1  
     8    1    8 1  
     9    2    9 1  
    10    2   10 1  
    11    3   11 1  
    12    3   12 1  
    13    4   13 1  
    14    4   14 1  
    15    5   15 1  
    16    5   16 1  
    17    6   17 1  
    18    6   18 1  
