#      Rotatable Fragment
#      Build by yxyuan
#
# Name:          frag4-463-105/150395
# Creation time: Sat Jun  5 12:53:37 2010


@<TRIPOS>MOLECULE
frag4-463-105/150395
   29    31     1     1     1
SMALL
USER_CHARGES


@<TRIPOS>ATOM
      1 C1         -0.7436   -0.8705   -0.8655 C.3        1 <1>        0.000
      2 C2          0.5897   -1.1882   -0.2449 C.ar       1 <1>        0.000
      3 C3         -1.9918   -1.3254   -0.1617 C.ar       1 <1>        0.000
      4 C5          0.9770   -2.5612   -0.0509 C.ar       1 <1>        0.000
      5 C6          1.4708   -0.1849    0.1906 C.ar       1 <1>        0.000
      6 C7         -2.4164   -2.6893   -0.1521 C.ar       1 <1>        0.000
      7 C8         -2.7550   -0.4129    0.5795 C.ar       1 <1>        0.000
      8 C11         0.0063   -3.7123   -0.2373 C.3        1 <1>        0.000
      9 C12         2.3025   -2.8198    0.2802 C.ar       1 <1>        0.000
     10 C13         2.7964   -0.4759    0.4800 C.ar       1 <1>        0.000
     11 C14        -1.5156   -3.8522   -0.5515 C.3        1 <1>        0.000
     12 C15        -3.7539   -2.9434    0.2090 C.ar       1 <1>        0.000
     13 C16        -4.0894   -0.6618    0.8680 C.ar       1 <1>        0.000
     14 C19         3.2236   -1.8053    0.4941 C.ar       1 <1>        0.000
     15 C20        -4.6095   -1.9294    0.6202 C.ar       1 <1>        0.000
     16 H          -0.7464   -1.3990   -1.8188 H.spc      1 <1>        0.000
     17 H          -0.8018    0.2179   -0.8720 H.spc      1 <1>        0.000
     18 H           1.1082    0.8369    0.3029 H.spc      1 <1>        0.000
     19 H          -2.2926    0.5078    0.9353 H.spc      1 <1>        0.000
     20 H          -0.0161   -4.0639    0.7942 H.spc      1 <1>        0.000
     21 H           0.3945   -4.0900   -1.1832 H.spc      1 <1>        0.000
     22 H           2.6288   -3.8555    0.3749 H.spc      1 <1>        0.000
     23 H           3.5000    0.3284    0.6950 H.spc      1 <1>        0.000
     24 H          -1.5892   -3.9257   -1.6365 H.spc      1 <1>        0.000
     25 H          -1.8610   -4.7081    0.0284 H.spc      1 <1>        0.000
     26 H          -4.1286   -3.9660    0.1644 H.spc      1 <1>        0.000
     27 H          -4.7212    0.1237    1.2826 H.spc      1 <1>        0.000
     28 H           4.2723   -2.0437    0.6717 H.spc      1 <1>        0.000
     29 H          -5.6745   -2.1235    0.7473 H.spc      1 <1>        0.000
@<TRIPOS>BOND
     1    3    6 ar 
     2    2    5 ar 
     3   13   15 ar 
     4   12   15 ar 
     5    9   14 ar 
     6    3    7 ar 
     7    5   10 ar 
     8    6   11 1  
     9    7   13 ar 
    10    4    9 ar 
    11    1    2 1  
    12    4    8 1  
    13    6   12 ar 
    14    1    3 1  
    15    8   11 1  
    16   10   14 ar 
    17    2    4 ar 
    18    1   16 1  
    19    1   17 1  
    20    5   18 1  
    21    7   19 1  
    22    8   20 1  
    23    8   21 1  
    24    9   22 1  
    25   10   23 1  
    26   11   24 1  
    27   11   25 1  
    28   12   26 1  
    29   13   27 1  
    30   14   28 1  
    31   15   29 1  
# Name:          frag4-463-105/150395 -- energy: -2.631986
# Creation time: Sat Jun  5 12:53:37 2010


@<TRIPOS>MOLECULE
frag4-463-105/150395 -- energy: -2.631986
   29    31     1     1     1
SMALL
USER_CHARGES


@<TRIPOS>ATOM
      1 C1         -0.7436   -0.8705   -0.8655 C.3        1 <1>        0.000
      2 C2          0.5897   -1.1882   -0.2449 C.ar       1 <1>        0.000
      3 C3         -1.9918   -1.3254   -0.1617 C.ar       1 <1>        0.000
      4 C5          0.9770   -2.5612   -0.0509 C.ar       1 <1>        0.000
      5 C6          1.4708   -0.1849    0.1906 C.ar       1 <1>        0.000
      6 C7         -2.4164   -2.6893   -0.1521 C.ar       1 <1>        0.000
      7 C8         -2.7550   -0.4129    0.5795 C.ar       1 <1>        0.000
      8 C11         0.0063   -3.7123   -0.2373 C.3        1 <1>        0.000
      9 C12         2.3025   -2.8198    0.2802 C.ar       1 <1>        0.000
     10 C13         2.7964   -0.4759    0.4800 C.ar       1 <1>        0.000
     11 C14        -1.5156   -3.8522   -0.5515 C.3        1 <1>        0.000
     12 C15        -3.7539   -2.9434    0.2090 C.ar       1 <1>        0.000
     13 C16        -4.0894   -0.6618    0.8680 C.ar       1 <1>        0.000
     14 C19         3.2236   -1.8053    0.4941 C.ar       1 <1>        0.000
     15 C20        -4.6095   -1.9294    0.6202 C.ar       1 <1>        0.000
     16 H          -0.7464   -1.3990   -1.8188 H.spc      1 <1>        0.000
     17 H          -0.8018    0.2179   -0.8720 H.spc      1 <1>        0.000
     18 H           1.1082    0.8369    0.3029 H.spc      1 <1>        0.000
     19 H          -2.2926    0.5078    0.9353 H.spc      1 <1>        0.000
     20 H          -0.0161   -4.0639    0.7942 H.spc      1 <1>        0.000
     21 H           0.3945   -4.0900   -1.1832 H.spc      1 <1>        0.000
     22 H           2.6288   -3.8555    0.3749 H.spc      1 <1>        0.000
     23 H           3.5000    0.3284    0.6950 H.spc      1 <1>        0.000
     24 H          -1.5892   -3.9257   -1.6365 H.spc      1 <1>        0.000
     25 H          -1.8610   -4.7081    0.0284 H.spc      1 <1>        0.000
     26 H          -4.1286   -3.9660    0.1644 H.spc      1 <1>        0.000
     27 H          -4.7212    0.1237    1.2826 H.spc      1 <1>        0.000
     28 H           4.2723   -2.0437    0.6717 H.spc      1 <1>        0.000
     29 H          -5.6745   -2.1235    0.7473 H.spc      1 <1>        0.000
@<TRIPOS>BOND
     1    3    6 ar 
     2    2    5 ar 
     3   13   15 ar 
     4   12   15 ar 
     5    9   14 ar 
     6    3    7 ar 
     7    5   10 ar 
     8    6   11 1  
     9    7   13 ar 
    10    4    9 ar 
    11    1    2 1  
    12    4    8 1  
    13    6   12 ar 
    14    1    3 1  
    15    8   11 1  
    16   10   14 ar 
    17    2    4 ar 
    18    1   16 1  
    19    1   17 1  
    20    5   18 1  
    21    7   19 1  
    22    8   20 1  
    23    8   21 1  
    24    9   22 1  
    25   10   23 1  
    26   11   24 1  
    27   11   25 1  
    28   12   26 1  
    29   13   27 1  
    30   14   28 1  
    31   15   29 1  
