#      Rotatable Fragment
#      Build by yxyuan
#
# Name:          frag5-597-36/41815
# Creation time: Sat Jun  5 12:52:57 2010


@<TRIPOS>MOLECULE
frag5-597-36/41815
   12    12     1     1     1
SMALL
USER_CHARGES


@<TRIPOS>ATOM
      1 O1         -2.2385    0.5454    0.1902 O.3        1 <1>        0.000
      2 C4         -0.8876    0.1756    0.0934 C.ar       1 <1>        0.000
      3 C5         -0.5291   -1.1704    0.0034 C.ar       1 <1>        0.000
      4 C6          0.8229   -1.5156   -0.0929 C.ar       1 <1>        0.000
      5 N1          1.7737   -0.5566   -0.1006 N.ar       1 <1>        0.000
      6 C7          1.4514    0.7506   -0.0110 C.ar       1 <1>        0.000
      7 C8          0.1093    1.1462    0.0873 C.ar       1 <1>        0.000
      8 H          -2.3043    1.5017    0.2433 H.spc      1 <1>        0.000
      9 H          -1.2957   -1.9453    0.0081 H.spc      1 <1>        0.000
     10 H           1.1107   -2.5646   -0.1621 H.spc      1 <1>        0.000
     11 H           2.2391    1.5040   -0.0150 H.spc      1 <1>        0.000
     12 H          -0.1499    2.2026    0.1581 H.spc      1 <1>        0.000
@<TRIPOS>BOND
     1    1    2 1  
     2    2    3 ar 
     3    2    7 ar 
     4    3    4 ar 
     5    4    5 ar 
     6    6    7 ar 
     7    5    6 ar 
     8    1    8 1  
     9    3    9 1  
    10    4   10 1  
    11    6   11 1  
    12    7   12 1  
# Name:          frag5-597-36/41815 -- energy: 0.118897
# Creation time: Sat Jun  5 12:52:57 2010


@<TRIPOS>MOLECULE
frag5-597-36/41815 -- energy: 0.118897
   12    12     1     1     1
SMALL
USER_CHARGES


@<TRIPOS>ATOM
      1 O1         -2.2385    0.5454    0.1902 O.3        1 <1>        0.000
      2 C4         -0.8876    0.1756    0.0934 C.ar       1 <1>        0.000
      3 C5         -0.5291   -1.1704    0.0034 C.ar       1 <1>        0.000
      4 C6          0.8229   -1.5156   -0.0929 C.ar       1 <1>        0.000
      5 N1          1.7737   -0.5566   -0.1006 N.ar       1 <1>        0.000
      6 C7          1.4514    0.7506   -0.0110 C.ar       1 <1>        0.000
      7 C8          0.1093    1.1462    0.0873 C.ar       1 <1>        0.000
      8 H          -2.3043    1.5017    0.2433 H.spc      1 <1>        0.000
      9 H          -1.2957   -1.9453    0.0081 H.spc      1 <1>        0.000
     10 H           1.1107   -2.5646   -0.1621 H.spc      1 <1>        0.000
     11 H           2.2391    1.5040   -0.0150 H.spc      1 <1>        0.000
     12 H          -0.1499    2.2026    0.1581 H.spc      1 <1>        0.000
@<TRIPOS>BOND
     1    1    2 1  
     2    2    3 ar 
     3    2    7 ar 
     4    3    4 ar 
     5    4    5 ar 
     6    6    7 ar 
     7    5    6 ar 
     8    1    8 1  
     9    3    9 1  
    10    4   10 1  
    11    6   11 1  
    12    7   12 1  
