#      Rotatable Fragment
#      Build by yxyuan
#
# Name:          frag4-366-96/48856
# Creation time: Sat Jun  5 12:53:30 2010


@<TRIPOS>MOLECULE
frag4-366-96/48856
    8     8     1     1     1
SMALL
USER_CHARGES


@<TRIPOS>ATOM
      1 N1          1.1085   -1.4311    0.0004 N.3        1 <1>        0.000
      2 C1          1.6874   -0.1868    0.5684 C.3        1 <1>        0.000
      3 C2          2.5633   -1.1817   -0.1654 C.3        1 <1>        0.000
      4 H           0.5037   -2.1919    0.3100 H.spc      1 <1>        0.000
      5 H           1.6817    0.3706    1.5051 H.spc      1 <1>        0.000
      6 H           1.4878    0.8847    0.5765 H.spc      1 <1>        0.000
      7 H           3.3152   -1.1910   -0.9545 H.spc      1 <1>        0.000
      8 H           3.5092   -1.7051   -0.0259 H.spc      1 <1>        0.000
@<TRIPOS>BOND
     1    1    3 1  
     2    1    2 1  
     3    2    3 1  
     4    1    4 1  
     5    2    5 1  
     6    2    6 1  
     7    3    7 1  
     8    3    8 1  
# Name:          frag4-366-96/48856 -- energy: -0.055207
# Creation time: Sat Jun  5 12:53:30 2010


@<TRIPOS>MOLECULE
frag4-366-96/48856 -- energy: -0.055207
    8     8     1     1     1
SMALL
USER_CHARGES


@<TRIPOS>ATOM
      1 N1          1.1085   -1.4311    0.0004 N.3        1 <1>        0.000
      2 C1          1.6874   -0.1868    0.5684 C.3        1 <1>        0.000
      3 C2          2.5633   -1.1817   -0.1654 C.3        1 <1>        0.000
      4 H           0.5037   -2.1919    0.3100 H.spc      1 <1>        0.000
      5 H           1.6817    0.3706    1.5051 H.spc      1 <1>        0.000
      6 H           1.4878    0.8847    0.5765 H.spc      1 <1>        0.000
      7 H           3.3152   -1.1910   -0.9545 H.spc      1 <1>        0.000
      8 H           3.5092   -1.7051   -0.0259 H.spc      1 <1>        0.000
@<TRIPOS>BOND
     1    1    3 1  
     2    1    2 1  
     3    2    3 1  
     4    1    4 1  
     5    2    5 1  
     6    2    6 1  
     7    3    7 1  
     8    3    8 1  
