#      Rotatable Fragment
#      Build by yxyuan
#
# Name:          frag4-472-34/48856
# Creation time: Sat Jun  5 12:52:49 2010


@<TRIPOS>MOLECULE
frag4-472-34/48856
   16    16     1     1     1
SMALL
USER_CHARGES


@<TRIPOS>ATOM
      1 C34         9.2331    0.9460    1.1644 C.3        1 <1>        0.000
      2 O14         9.7508   -0.2975    0.8406 O.3        1 <1>        0.000
      3 C35        10.5715   -0.5929   -0.2148 C.3        1 <1>        0.000
      4 C36        11.5809    0.5016   -0.3002 C.3        1 <1>        0.000
      5 C37        11.3429    1.9372    0.0231 C.3        1 <1>        0.000
      6 C38         9.8991    2.1090    0.4369 C.3        1 <1>        0.000
      7 H           9.3999    1.0960    2.2311 H.spc      1 <1>        0.000
      8 H           8.1829    0.9431    0.8725 H.spc      1 <1>        0.000
      9 H          10.0000   -0.6642   -1.1402 H.spc      1 <1>        0.000
     10 H          11.0586   -1.5568   -0.0672 H.spc      1 <1>        0.000
     11 H          11.7800    0.5417   -1.3711 H.spc      1 <1>        0.000
     12 H          12.2936    0.2118    0.4719 H.spc      1 <1>        0.000
     13 H          11.5528    2.5530   -0.8514 H.spc      1 <1>        0.000
     14 H          12.0000    2.2472    0.8357 H.spc      1 <1>        0.000
     15 H           9.8927    2.9394    1.1429 H.spc      1 <1>        0.000
     16 H           9.3405    2.2337   -0.4907 H.spc      1 <1>        0.000
@<TRIPOS>BOND
     1    1    2 1  
     2    1    6 1  
     3    2    3 1  
     4    3    4 1  
     5    4    5 1  
     6    5    6 1  
     7    1    7 1  
     8    1    8 1  
     9    3    9 1  
    10    3   10 1  
    11    4   11 1  
    12    4   12 1  
    13    5   13 1  
    14    5   14 1  
    15    6   15 1  
    16    6   16 1  
# Name:          frag4-472-34/48856 -- energy: -0.868079
# Creation time: Sat Jun  5 12:52:49 2010


@<TRIPOS>MOLECULE
frag4-472-34/48856 -- energy: -0.868079
   16    16     1     1     1
SMALL
USER_CHARGES


@<TRIPOS>ATOM
      1 C34         9.2331    0.9460    1.1644 C.3        1 <1>        0.000
      2 O14         9.7508   -0.2975    0.8406 O.3        1 <1>        0.000
      3 C35        10.5715   -0.5929   -0.2148 C.3        1 <1>        0.000
      4 C36        11.5809    0.5016   -0.3002 C.3        1 <1>        0.000
      5 C37        11.3429    1.9372    0.0231 C.3        1 <1>        0.000
      6 C38         9.8991    2.1090    0.4369 C.3        1 <1>        0.000
      7 H           9.3999    1.0960    2.2311 H.spc      1 <1>        0.000
      8 H           8.1829    0.9431    0.8725 H.spc      1 <1>        0.000
      9 H          10.0000   -0.6642   -1.1402 H.spc      1 <1>        0.000
     10 H          11.0586   -1.5568   -0.0672 H.spc      1 <1>        0.000
     11 H          11.7800    0.5417   -1.3711 H.spc      1 <1>        0.000
     12 H          12.2936    0.2118    0.4719 H.spc      1 <1>        0.000
     13 H          11.5528    2.5530   -0.8514 H.spc      1 <1>        0.000
     14 H          12.0000    2.2472    0.8357 H.spc      1 <1>        0.000
     15 H           9.8927    2.9394    1.1429 H.spc      1 <1>        0.000
     16 H           9.3405    2.2337   -0.4907 H.spc      1 <1>        0.000
@<TRIPOS>BOND
     1    1    2 1  
     2    1    6 1  
     3    2    3 1  
     4    3    4 1  
     5    4    5 1  
     6    5    6 1  
     7    1    7 1  
     8    1    8 1  
     9    3    9 1  
    10    3   10 1  
    11    4   11 1  
    12    4   12 1  
    13    5   13 1  
    14    5   14 1  
    15    6   15 1  
    16    6   16 1  
