#      Rotatable Fragment
#      Build by yxyuan
#
# Name:          frag3-159-19/96164
# Creation time: Sat Jun  5 12:53:06 2010


@<TRIPOS>MOLECULE
frag3-159-19/96164
    9     8     1     1     1
SMALL
USER_CHARGES


@<TRIPOS>ATOM
      1 O2          1.0827   -0.6150    1.2024 O.3        1 <1>        0.000
      2 N2          2.2369    0.0953    1.0653 N.2        1 <1>        0.000
      3 C27         2.0891    1.3291    0.7603 C.2        1 <1>        0.000
      4 C29         3.2192    2.2929    0.5487 C.2        1 <1>        0.000
      5 O3          3.0442    3.1237   -0.3207 O.2        1 <1>        0.000
      6 O4          4.2990    2.1125    1.2776 O.3        1 <1>        0.000
      7 H           1.2926   -1.5237    1.4302 H.spc      1 <1>        0.000
      8 H           1.0726    1.7057    0.6464 H.spc      1 <1>        0.000
      9 H           4.1551    1.3839    1.8859 H.spc      1 <1>        0.000
@<TRIPOS>BOND
     1    1    2 1  
     2    2    3 2  
     3    3    4 1  
     4    4    5 2  
     5    4    6 1  
     6    1    7 1  
     7    3    8 1  
     8    6    9 1  
# Name:          frag3-159-19/96164 -- energy: -0.156844
# Creation time: Sat Jun  5 12:53:06 2010


@<TRIPOS>MOLECULE
frag3-159-19/96164 -- energy: -0.156844
    9     8     1     1     1
SMALL
USER_CHARGES


@<TRIPOS>ATOM
      1 O2          1.0827   -0.6150    1.2024 O.3        1 <1>        0.000
      2 N2          2.2369    0.0953    1.0653 N.2        1 <1>        0.000
      3 C27         2.0891    1.3291    0.7603 C.2        1 <1>        0.000
      4 C29         3.2192    2.2929    0.5487 C.2        1 <1>        0.000
      5 O3          3.0442    3.1237   -0.3207 O.2        1 <1>        0.000
      6 O4          4.2990    2.1125    1.2776 O.3        1 <1>        0.000
      7 H           1.2926   -1.5237    1.4302 H.spc      1 <1>        0.000
      8 H           1.0726    1.7057    0.6464 H.spc      1 <1>        0.000
      9 H           4.1551    1.3839    1.8859 H.spc      1 <1>        0.000
@<TRIPOS>BOND
     1    1    2 1  
     2    2    3 2  
     3    3    4 1  
     4    4    5 2  
     5    4    6 1  
     6    1    7 1  
     7    3    8 1  
     8    6    9 1  
