#      Rotatable Fragment
#      Build by yxyuan
#
# Name:          frag3-193-6/31924
# Creation time: Sat Jun  5 12:52:11 2010


@<TRIPOS>MOLECULE
frag3-193-6/31924
    8     7     1     1     1
SMALL
USER_CHARGES


@<TRIPOS>ATOM
      1 C2          0.0085    0.2432    0.2624 C.2        1 <1>        0.000
      2 C3         -1.1938   -0.3052    0.0782 C.2        1 <1>        0.000
      3 N1          1.2045    0.1333   -0.3258 N.pl3      1 <1>        0.000
      4 H           0.0183    0.9508    1.0915 H.spc      1 <1>        0.000
      5 H          -1.3447   -1.0323   -0.7197 H.spc      1 <1>        0.000
      6 H          -2.0251   -0.0261    0.7256 H.spc      1 <1>        0.000
      7 H           1.3276   -0.4987   -1.1169 H.spc      1 <1>        0.000
      8 H           1.9936    0.6815    0.0167 H.spc      1 <1>        0.000
@<TRIPOS>BOND
     1    1    3 1  
     2    1    2 2  
     3    1    4 1  
     4    2    5 1  
     5    2    6 1  
     6    3    7 1  
     7    3    8 1  
# Name:          frag3-193-6/31924 -- energy: -0.197946
# Creation time: Sat Jun  5 12:52:11 2010


@<TRIPOS>MOLECULE
frag3-193-6/31924 -- energy: -0.197946
    8     7     1     1     1
SMALL
USER_CHARGES


@<TRIPOS>ATOM
      1 C2          0.0085    0.2432    0.2624 C.2        1 <1>        0.000
      2 C3         -1.1938   -0.3052    0.0782 C.2        1 <1>        0.000
      3 N1          1.2045    0.1333   -0.3258 N.pl3      1 <1>        0.000
      4 H           0.0183    0.9508    1.0915 H.spc      1 <1>        0.000
      5 H          -1.3447   -1.0323   -0.7197 H.spc      1 <1>        0.000
      6 H          -2.0251   -0.0261    0.7256 H.spc      1 <1>        0.000
      7 H           1.3276   -0.4987   -1.1169 H.spc      1 <1>        0.000
      8 H           1.9936    0.6815    0.0167 H.spc      1 <1>        0.000
@<TRIPOS>BOND
     1    1    3 1  
     2    1    2 2  
     3    1    4 1  
     4    2    5 1  
     5    2    6 1  
     6    3    7 1  
     7    3    8 1  
