#      Rotatable Fragment
#      Build by yxyuan
#
# Name:          frag4-478-33/48856
# Creation time: Sat Jun  5 12:52:49 2010


@<TRIPOS>MOLECULE
frag4-478-33/48856
   13    13     1     1     1
SMALL
USER_CHARGES


@<TRIPOS>ATOM
      1 C1          0.4038    1.5491    0.4683 C.3        1 <1>        0.000
      2 C2          0.5964    3.0033    0.1143 C.2        1 <1>        0.000
      3 C3          0.3289    3.2988   -1.1618 C.2        1 <1>        0.000
      4 C4         -0.0859    2.0795   -1.8601 C.3        1 <1>        0.000
      5 C5         -0.0414    1.0100   -0.8612 C.3        1 <1>        0.000
      6 H          -0.2999    1.3744    1.2821 H.spc      1 <1>        0.000
      7 H           1.2915    1.0645    0.8749 H.spc      1 <1>        0.000
      8 H           0.9256    3.7494    0.8375 H.spc      1 <1>        0.000
      9 H           0.4070    4.2889   -1.6110 H.spc      1 <1>        0.000
     10 H           0.5719    1.8624   -2.7017 H.spc      1 <1>        0.000
     11 H          -1.0854    2.1857   -2.2817 H.spc      1 <1>        0.000
     12 H          -1.0390    0.5840   -0.7542 H.spc      1 <1>        0.000
     13 H           0.6663    0.2486   -1.1893 H.spc      1 <1>        0.000
@<TRIPOS>BOND
     1    1    2 1  
     2    1    5 1  
     3    2    3 2  
     4    3    4 1  
     5    4    5 1  
     6    1    6 1  
     7    1    7 1  
     8    2    8 1  
     9    3    9 1  
    10    4   10 1  
    11    4   11 1  
    12    5   12 1  
    13    5   13 1  
# Name:          frag4-478-33/48856 -- energy: -0.675341
# Creation time: Sat Jun  5 12:52:49 2010


@<TRIPOS>MOLECULE
frag4-478-33/48856 -- energy: -0.675341
   13    13     1     1     1
SMALL
USER_CHARGES


@<TRIPOS>ATOM
      1 C1          0.4038    1.5491    0.4683 C.3        1 <1>        0.000
      2 C2          0.5964    3.0033    0.1143 C.2        1 <1>        0.000
      3 C3          0.3289    3.2988   -1.1618 C.2        1 <1>        0.000
      4 C4         -0.0859    2.0795   -1.8601 C.3        1 <1>        0.000
      5 C5         -0.0414    1.0100   -0.8612 C.3        1 <1>        0.000
      6 H          -0.2999    1.3744    1.2821 H.spc      1 <1>        0.000
      7 H           1.2915    1.0645    0.8749 H.spc      1 <1>        0.000
      8 H           0.9256    3.7494    0.8375 H.spc      1 <1>        0.000
      9 H           0.4070    4.2889   -1.6110 H.spc      1 <1>        0.000
     10 H           0.5719    1.8624   -2.7017 H.spc      1 <1>        0.000
     11 H          -1.0854    2.1857   -2.2817 H.spc      1 <1>        0.000
     12 H          -1.0390    0.5840   -0.7542 H.spc      1 <1>        0.000
     13 H           0.6663    0.2486   -1.1893 H.spc      1 <1>        0.000
@<TRIPOS>BOND
     1    1    2 1  
     2    1    5 1  
     3    2    3 2  
     4    3    4 1  
     5    4    5 1  
     6    1    6 1  
     7    1    7 1  
     8    2    8 1  
     9    3    9 1  
    10    4   10 1  
    11    4   11 1  
    12    5   12 1  
    13    5   13 1  
