#      Rotatable Fragment
#      Build by yxyuan
#
# Name:          frag5-498-776/138278
# Creation time: Sat Jun  5 12:53:39 2010


@<TRIPOS>MOLECULE
frag5-498-776/138278
   19    19     1     1     1
SMALL
USER_CHARGES


@<TRIPOS>ATOM
      1 C4          0.0193   -0.2596    0.3423 C.3        1 <1>        0.000
      2 C8         -1.2369   -0.9808   -0.1523 C.3        1 <1>        0.000
      3 C9          1.3084   -1.0618    0.1745 C.3        1 <1>        0.000
      4 C16        -1.2379   -2.4165    0.3301 C.3        1 <1>        0.000
      5 C17         1.0559   -2.3270   -0.6211 C.3        1 <1>        0.000
      6 N2          0.0018   -3.1111    0.0385 N.am       1 <1>        0.000
      7 C20         0.2559   -4.3623    0.4631 C.2        1 <1>        0.000
      8 O1          1.1894   -5.0656    0.1092 O.2        1 <1>        0.000
      9 H          -0.1116   -0.0806    1.4095 H.spc      1 <1>        0.000
     10 H           0.1250    0.6474   -0.2529 H.spc      1 <1>        0.000
     11 H          -1.2494   -0.9700   -1.2422 H.spc      1 <1>        0.000
     12 H          -2.1182   -0.4720    0.2382 H.spc      1 <1>        0.000
     13 H           2.0357   -0.4503   -0.3595 H.spc      1 <1>        0.000
     14 H           1.6825   -1.3359    1.1609 H.spc      1 <1>        0.000
     15 H          -1.3657   -2.4038    1.4125 H.spc      1 <1>        0.000
     16 H          -2.0424   -2.9405   -0.1860 H.spc      1 <1>        0.000
     17 H           0.7400   -2.0667   -1.6313 H.spc      1 <1>        0.000
     18 H           1.9718   -2.9157   -0.6721 H.spc      1 <1>        0.000
     19 H          -0.4356   -4.7876    1.1904 H.spc      1 <1>        0.000
@<TRIPOS>BOND
     1    7    8 2  
     2    6    7 am 
     3    5    6 1  
     4    4    6 1  
     5    3    5 1  
     6    1    2 1  
     7    1    3 1  
     8    2    4 1  
     9    1    9 1  
    10    1   10 1  
    11    2   11 1  
    12    2   12 1  
    13    3   13 1  
    14    3   14 1  
    15    4   15 1  
    16    4   16 1  
    17    5   17 1  
    18    5   18 1  
    19    7   19 1  
# Name:          frag5-498-776/138278
# Creation time: Sat Jun  5 12:53:39 2010


@<TRIPOS>MOLECULE
frag5-498-776/138278
   19    19     1     1     1
SMALL
USER_CHARGES


@<TRIPOS>ATOM
      1 C4         -0.0484   -0.2839   -0.2456 C.3        1 <1>        0.000
      2 C8         -1.2020   -1.2488   -0.3590 C.3        1 <1>        0.000
      3 C9          1.2501   -1.0449   -0.2121 C.3        1 <1>        0.000
      4 C16        -1.1442   -2.3498    0.6680 C.3        1 <1>        0.000
      5 C17         1.2692   -2.2737    0.6585 C.3        1 <1>        0.000
      6 N2          0.0849   -3.0993    0.5908 N.am       1 <1>        0.000
      7 C20         0.1537   -4.3723    0.1444 C.2        1 <1>        0.000
      8 O1          0.9924   -4.9118   -0.5607 O.2        1 <1>        0.000
      9 H          -0.1511    0.2950    0.6723 H.spc      1 <1>        0.000
     10 H          -0.0521    0.3856   -1.1058 H.spc      1 <1>        0.000
     11 H          -1.1564   -1.7096   -1.3458 H.spc      1 <1>        0.000
     12 H          -2.1231   -0.6889   -0.1971 H.spc      1 <1>        0.000
     13 H           1.4320   -1.3873   -1.2308 H.spc      1 <1>        0.000
     14 H           1.9946   -0.3642    0.2008 H.spc      1 <1>        0.000
     15 H          -1.2040   -1.8957    1.6571 H.spc      1 <1>        0.000
     16 H          -1.9719   -3.0337    0.4802 H.spc      1 <1>        0.000
     17 H           2.0984   -2.8894    0.3100 H.spc      1 <1>        0.000
     18 H           1.3470   -1.9247    1.6882 H.spc      1 <1>        0.000
     19 H          -0.6654   -5.0174    0.4624 H.spc      1 <1>        0.000
@<TRIPOS>BOND
     1    7    8 2  
     2    6    7 am 
     3    5    6 1  
     4    4    6 1  
     5    3    5 1  
     6    1    2 1  
     7    1    3 1  
     8    2    4 1  
     9    1    9 1  
    10    1   10 1  
    11    2   11 1  
    12    2   12 1  
    13    3   13 1  
    14    3   14 1  
    15    4   15 1  
    16    4   16 1  
    17    5   17 1  
    18    5   18 1  
    19    7   19 1  
# Name:          frag5-498-776/138278 -- energy: -1.439341
# Creation time: Sat Jun  5 12:53:39 2010


@<TRIPOS>MOLECULE
frag5-498-776/138278 -- energy: -1.439341
   19    19     1     1     1
SMALL
USER_CHARGES


@<TRIPOS>ATOM
      1 C4          0.0193   -0.2596    0.3423 C.3        1 <1>        0.000
      2 C8         -1.2369   -0.9808   -0.1523 C.3        1 <1>        0.000
      3 C9          1.3084   -1.0618    0.1745 C.3        1 <1>        0.000
      4 C16        -1.2379   -2.4165    0.3301 C.3        1 <1>        0.000
      5 C17         1.0559   -2.3270   -0.6211 C.3        1 <1>        0.000
      6 N2          0.0018   -3.1111    0.0385 N.am       1 <1>        0.000
      7 C20         0.2559   -4.3623    0.4631 C.2        1 <1>        0.000
      8 O1          1.1894   -5.0656    0.1092 O.2        1 <1>        0.000
      9 H          -0.1116   -0.0806    1.4095 H.spc      1 <1>        0.000
     10 H           0.1250    0.6474   -0.2529 H.spc      1 <1>        0.000
     11 H          -1.2494   -0.9700   -1.2422 H.spc      1 <1>        0.000
     12 H          -2.1182   -0.4720    0.2382 H.spc      1 <1>        0.000
     13 H           2.0357   -0.4503   -0.3595 H.spc      1 <1>        0.000
     14 H           1.6825   -1.3359    1.1609 H.spc      1 <1>        0.000
     15 H          -1.3657   -2.4038    1.4125 H.spc      1 <1>        0.000
     16 H          -2.0424   -2.9405   -0.1860 H.spc      1 <1>        0.000
     17 H           0.7400   -2.0667   -1.6313 H.spc      1 <1>        0.000
     18 H           1.9718   -2.9157   -0.6721 H.spc      1 <1>        0.000
     19 H          -0.4356   -4.7876    1.1904 H.spc      1 <1>        0.000
@<TRIPOS>BOND
     1    7    8 2  
     2    6    7 am 
     3    5    6 1  
     4    4    6 1  
     5    3    5 1  
     6    1    2 1  
     7    1    3 1  
     8    2    4 1  
     9    1    9 1  
    10    1   10 1  
    11    2   11 1  
    12    2   12 1  
    13    3   13 1  
    14    3   14 1  
    15    4   15 1  
    16    4   16 1  
    17    5   17 1  
    18    5   18 1  
    19    7   19 1  
# Name:          frag5-498-776/138278 -- energy: -1.813022
# Creation time: Sat Jun  5 12:53:39 2010


@<TRIPOS>MOLECULE
frag5-498-776/138278 -- energy: -1.813022
   19    19     1     1     1
SMALL
USER_CHARGES


@<TRIPOS>ATOM
      1 C4         -0.0484   -0.2839   -0.2456 C.3        1 <1>        0.000
      2 C8         -1.2020   -1.2488   -0.3590 C.3        1 <1>        0.000
      3 C9          1.2501   -1.0449   -0.2121 C.3        1 <1>        0.000
      4 C16        -1.1442   -2.3498    0.6680 C.3        1 <1>        0.000
      5 C17         1.2692   -2.2737    0.6585 C.3        1 <1>        0.000
      6 N2          0.0849   -3.0993    0.5908 N.am       1 <1>        0.000
      7 C20         0.1537   -4.3723    0.1444 C.2        1 <1>        0.000
      8 O1          0.9924   -4.9118   -0.5607 O.2        1 <1>        0.000
      9 H          -0.1511    0.2950    0.6723 H.spc      1 <1>        0.000
     10 H          -0.0521    0.3856   -1.1058 H.spc      1 <1>        0.000
     11 H          -1.1564   -1.7096   -1.3458 H.spc      1 <1>        0.000
     12 H          -2.1231   -0.6889   -0.1971 H.spc      1 <1>        0.000
     13 H           1.4320   -1.3873   -1.2308 H.spc      1 <1>        0.000
     14 H           1.9946   -0.3642    0.2008 H.spc      1 <1>        0.000
     15 H          -1.2040   -1.8957    1.6571 H.spc      1 <1>        0.000
     16 H          -1.9719   -3.0337    0.4802 H.spc      1 <1>        0.000
     17 H           2.0984   -2.8894    0.3100 H.spc      1 <1>        0.000
     18 H           1.3470   -1.9247    1.6882 H.spc      1 <1>        0.000
     19 H          -0.6654   -5.0174    0.4624 H.spc      1 <1>        0.000
@<TRIPOS>BOND
     1    7    8 2  
     2    6    7 am 
     3    5    6 1  
     4    4    6 1  
     5    3    5 1  
     6    1    2 1  
     7    1    3 1  
     8    2    4 1  
     9    1    9 1  
    10    1   10 1  
    11    2   11 1  
    12    2   12 1  
    13    3   13 1  
    14    3   14 1  
    15    4   15 1  
    16    4   16 1  
    17    5   17 1  
    18    5   18 1  
    19    7   19 1  
