#      Rotatable Fragment
#      Build by yxyuan
#
# Name:          frag5-629-30/41815
# Creation time: Sat Jun  5 12:53:00 2010


@<TRIPOS>MOLECULE
frag5-629-30/41815
   10    10     1     1     1
SMALL
USER_CHARGES


@<TRIPOS>ATOM
      1 S1         -5.0395    0.0119    3.0348 S.3        1 <1>        0.000
      2 C1         -6.0356   -0.9006    1.8322 C.3        1 <1>        0.000
      3 C2         -7.4350   -0.3938    2.0182 C.2        1 <1>        0.000
      4 N1         -7.5648    0.5512    2.9751 N.am       1 <1>        0.000
      5 C3         -6.4435    0.9186    3.6351 C.2        1 <1>        0.000
      6 O1         -6.4256    1.7612    4.5185 O.2        1 <1>        0.000
      7 O2         -8.3619   -0.8181    1.3467 O.2        1 <1>        0.000
      8 H          -5.9726   -1.9771    1.9911 H.spc      1 <1>        0.000
      9 H          -5.6820   -0.7423    0.8134 H.spc      1 <1>        0.000
     10 H          -8.4699    0.9695    3.1903 H.spc      1 <1>        0.000
@<TRIPOS>BOND
     1    1    2 1  
     2    1    5 1  
     3    2    3 1  
     4    3    4 am 
     5    3    7 2  
     6    4    5 am 
     7    5    6 2  
     8    2    8 1  
     9    2    9 1  
    10    4   10 1  
# Name:          frag5-629-30/41815 -- energy: -0.507549
# Creation time: Sat Jun  5 12:53:00 2010


@<TRIPOS>MOLECULE
frag5-629-30/41815 -- energy: -0.507549
   10    10     1     1     1
SMALL
USER_CHARGES


@<TRIPOS>ATOM
      1 S1         -5.0395    0.0119    3.0348 S.3        1 <1>        0.000
      2 C1         -6.0356   -0.9006    1.8322 C.3        1 <1>        0.000
      3 C2         -7.4350   -0.3938    2.0182 C.2        1 <1>        0.000
      4 N1         -7.5648    0.5512    2.9751 N.am       1 <1>        0.000
      5 C3         -6.4435    0.9186    3.6351 C.2        1 <1>        0.000
      6 O1         -6.4256    1.7612    4.5185 O.2        1 <1>        0.000
      7 O2         -8.3619   -0.8181    1.3467 O.2        1 <1>        0.000
      8 H          -5.9726   -1.9771    1.9911 H.spc      1 <1>        0.000
      9 H          -5.6820   -0.7423    0.8134 H.spc      1 <1>        0.000
     10 H          -8.4699    0.9695    3.1903 H.spc      1 <1>        0.000
@<TRIPOS>BOND
     1    1    2 1  
     2    1    5 1  
     3    2    3 1  
     4    3    4 am 
     5    3    7 2  
     6    4    5 am 
     7    5    6 2  
     8    2    8 1  
     9    2    9 1  
    10    4   10 1  
