#      Rotatable Fragment
#      Build by yxyuan
#
# Name:          frag5-571-44/41815
# Creation time: Sat Jun  5 12:52:54 2010


@<TRIPOS>MOLECULE
frag5-571-44/41815
   16    16     1     1     1
SMALL
USER_CHARGES


@<TRIPOS>ATOM
      1 O4         -2.3706   -1.5003    1.1737 O.3        1 <1>        0.000
      2 C22        -2.0152   -0.4622    0.3861 C.2        1 <1>        0.000
      3 O5         -2.8562    0.2703   -0.1032 O.2        1 <1>        0.000
      4 C23        -0.5808   -0.2311    0.1232 C.ar       1 <1>        0.000
      5 C24        -0.0863    1.0949    0.0136 C.ar       1 <1>        0.000
      6 C25         1.3176    1.2810   -0.2428 C.ar       1 <1>        0.000
      7 C26         2.1901    0.1979   -0.3826 C.ar       1 <1>        0.000
      8 C27         1.6879   -1.0953   -0.2724 C.ar       1 <1>        0.000
      9 C28         0.3082   -1.3121   -0.0199 C.ar       1 <1>        0.000
     10 O6         -0.9106    2.1707    0.1471 O.3        1 <1>        0.000
     11 H          -1.5820   -1.9627    1.4669 H.spc      1 <1>        0.000
     12 H           1.7111    2.2937   -0.3303 H.spc      1 <1>        0.000
     13 H           3.2500    0.3640   -0.5754 H.spc      1 <1>        0.000
     14 H           2.3588   -1.9475   -0.3808 H.spc      1 <1>        0.000
     15 H          -0.0683   -2.3315    0.0644 H.spc      1 <1>        0.000
     16 H          -0.4012    2.9777    0.0426 H.spc      1 <1>        0.000
@<TRIPOS>BOND
     1    8    9 ar 
     2    1    2 1  
     3    2    4 1  
     4    2    3 2  
     5    4    5 ar 
     6    4    9 ar 
     7    5    6 ar 
     8    5   10 1  
     9    6    7 ar 
    10    7    8 ar 
    11    1   11 1  
    12    6   12 1  
    13    7   13 1  
    14    8   14 1  
    15    9   15 1  
    16   10   16 1  
# Name:          frag5-571-44/41815
# Creation time: Sat Jun  5 12:52:54 2010


@<TRIPOS>MOLECULE
frag5-571-44/41815
   16    16     1     1     1
SMALL
USER_CHARGES


@<TRIPOS>ATOM
      1 O4         -2.9236    0.0282   -0.3633 O.3        1 <1>        0.000
      2 C22        -1.9911   -0.5016    0.4577 C.2        1 <1>        0.000
      3 O5         -2.3132   -1.1705    1.4234 O.2        1 <1>        0.000
      4 C23        -0.5656   -0.2516    0.1654 C.ar       1 <1>        0.000
      5 C24        -0.1104    1.0752   -0.0527 C.ar       1 <1>        0.000
      6 C25         1.2860    1.2800   -0.3348 C.ar       1 <1>        0.000
      7 C26         2.1886    0.2143   -0.3960 C.ar       1 <1>        0.000
      8 C27         1.7246   -1.0797   -0.1798 C.ar       1 <1>        0.000
      9 C28         0.3533   -1.3148    0.1005 C.ar       1 <1>        0.000
     10 O6         -0.9646    2.1343    0.0023 O.3        1 <1>        0.000
     11 H          -2.4891    0.5200   -1.0640 H.spc      1 <1>        0.000
     12 H           1.6495    2.2933   -0.5053 H.spc      1 <1>        0.000
     13 H           3.2420    0.3945   -0.6103 H.spc      1 <1>        0.000
     14 H           2.4191   -1.9185   -0.2260 H.spc      1 <1>        0.000
     15 H           0.0069   -2.3346    0.2680 H.spc      1 <1>        0.000
     16 H          -0.4794    2.9446   -0.1699 H.spc      1 <1>        0.000
@<TRIPOS>BOND
     1    8    9 ar 
     2    1    2 1  
     3    2    4 1  
     4    2    3 2  
     5    4    5 ar 
     6    4    9 ar 
     7    5    6 ar 
     8    5   10 1  
     9    6    7 ar 
    10    7    8 ar 
    11    1   11 1  
    12    6   12 1  
    13    7   13 1  
    14    8   14 1  
    15    9   15 1  
    16   10   16 1  
# Name:          frag5-571-44/41815
# Creation time: Sat Jun  5 12:52:54 2010


@<TRIPOS>MOLECULE
frag5-571-44/41815
   16    16     1     1     1
SMALL
USER_CHARGES


@<TRIPOS>ATOM
      1 O4         -2.4833   -0.3982    1.5821 O.3        1 <1>        0.000
      2 C22        -2.0217   -0.4851    0.3158 C.2        1 <1>        0.000
      3 O5         -2.7679   -0.7615   -0.6063 O.2        1 <1>        0.000
      4 C23        -0.5867   -0.2417    0.0668 C.ar       1 <1>        0.000
      5 C24        -0.0563    1.0675    0.2088 C.ar       1 <1>        0.000
      6 C25         1.3469    1.2660   -0.0421 C.ar       1 <1>        0.000
      7 C26         2.1845    0.2112   -0.4156 C.ar       1 <1>        0.000
      8 C27         1.6472   -1.0655   -0.5502 C.ar       1 <1>        0.000
      9 C28         0.2673   -1.2942   -0.3100 C.ar       1 <1>        0.000
     10 O6         -0.8460    2.1151    0.5733 O.3        1 <1>        0.000
     11 H          -1.7591   -0.1730    2.1707 H.spc      1 <1>        0.000
     12 H           1.7679    2.2660    0.0620 H.spc      1 <1>        0.000
     13 H           3.2446    0.3863   -0.5990 H.spc      1 <1>        0.000
     14 H           2.2906   -1.8955   -0.8421 H.spc      1 <1>        0.000
     15 H          -0.1369   -2.3006   -0.4191 H.spc      1 <1>        0.000
     16 H          -0.3156    2.9141    0.6172 H.spc      1 <1>        0.000
@<TRIPOS>BOND
     1    8    9 ar 
     2    1    2 1  
     3    2    4 1  
     4    2    3 2  
     5    4    5 ar 
     6    4    9 ar 
     7    5    6 ar 
     8    5   10 1  
     9    6    7 ar 
    10    7    8 ar 
    11    1   11 1  
    12    6   12 1  
    13    7   13 1  
    14    8   14 1  
    15    9   15 1  
    16   10   16 1  
# Name:          frag5-571-44/41815
# Creation time: Sat Jun  5 12:52:54 2010


@<TRIPOS>MOLECULE
frag5-571-44/41815
   16    16     1     1     1
SMALL
USER_CHARGES


@<TRIPOS>ATOM
      1 O4         -2.5582   -1.6240    0.1032 O.3        1 <1>        0.000
      2 C22        -1.9974   -0.4521    0.4773 C.2        1 <1>        0.000
      3 O5         -2.6582    0.4039    1.0390 O.2        1 <1>        0.000
      4 C23        -0.5705   -0.2236    0.1891 C.ar       1 <1>        0.000
      5 C24        -0.1180    1.0711   -0.1737 C.ar       1 <1>        0.000
      6 C25         1.2822    1.2576   -0.4482 C.ar       1 <1>        0.000
      7 C26         2.1937    0.2005   -0.3638 C.ar       1 <1>        0.000
      8 C27         1.7347   -1.0638   -0.0071 C.ar       1 <1>        0.000
      9 C28         0.3585   -1.2782    0.2694 C.ar       1 <1>        0.000
     10 O6         -0.9826    2.1223   -0.2624 O.3        1 <1>        0.000
     11 H          -1.8954   -2.1734   -0.3216 H.spc      1 <1>        0.000
     12 H           1.6413    2.2477   -0.7290 H.spc      1 <1>        0.000
     13 H           3.2504    0.3648   -0.5748 H.spc      1 <1>        0.000
     14 H           2.4363   -1.8952    0.0605 H.spc      1 <1>        0.000
     15 H           0.0161   -2.2748    0.5481 H.spc      1 <1>        0.000
     16 H          -0.4997    2.9116   -0.5182 H.spc      1 <1>        0.000
@<TRIPOS>BOND
     1    8    9 ar 
     2    1    2 1  
     3    2    4 1  
     4    2    3 2  
     5    4    5 ar 
     6    4    9 ar 
     7    5    6 ar 
     8    5   10 1  
     9    6    7 ar 
    10    7    8 ar 
    11    1   11 1  
    12    6   12 1  
    13    7   13 1  
    14    8   14 1  
    15    9   15 1  
    16   10   16 1  
# Name:          frag5-571-44/41815 -- energy: -0.505746
# Creation time: Sat Jun  5 12:52:54 2010


@<TRIPOS>MOLECULE
frag5-571-44/41815 -- energy: -0.505746
   16    16     1     1     1
SMALL
USER_CHARGES


@<TRIPOS>ATOM
      1 O4         -2.3706   -1.5003    1.1737 O.3        1 <1>        0.000
      2 C22        -2.0152   -0.4622    0.3861 C.2        1 <1>        0.000
      3 O5         -2.8562    0.2703   -0.1032 O.2        1 <1>        0.000
      4 C23        -0.5808   -0.2311    0.1232 C.ar       1 <1>        0.000
      5 C24        -0.0863    1.0949    0.0136 C.ar       1 <1>        0.000
      6 C25         1.3176    1.2810   -0.2428 C.ar       1 <1>        0.000
      7 C26         2.1901    0.1979   -0.3826 C.ar       1 <1>        0.000
      8 C27         1.6879   -1.0953   -0.2724 C.ar       1 <1>        0.000
      9 C28         0.3082   -1.3121   -0.0199 C.ar       1 <1>        0.000
     10 O6         -0.9106    2.1707    0.1471 O.3        1 <1>        0.000
     11 H          -1.5820   -1.9627    1.4669 H.spc      1 <1>        0.000
     12 H           1.7111    2.2937   -0.3303 H.spc      1 <1>        0.000
     13 H           3.2500    0.3640   -0.5754 H.spc      1 <1>        0.000
     14 H           2.3588   -1.9475   -0.3808 H.spc      1 <1>        0.000
     15 H          -0.0683   -2.3315    0.0644 H.spc      1 <1>        0.000
     16 H          -0.4012    2.9777    0.0426 H.spc      1 <1>        0.000
@<TRIPOS>BOND
     1    8    9 ar 
     2    1    2 1  
     3    2    4 1  
     4    2    3 2  
     5    4    5 ar 
     6    4    9 ar 
     7    5    6 ar 
     8    5   10 1  
     9    6    7 ar 
    10    7    8 ar 
    11    1   11 1  
    12    6   12 1  
    13    7   13 1  
    14    8   14 1  
    15    9   15 1  
    16   10   16 1  
# Name:          frag5-571-44/41815 -- energy: -0.809802
# Creation time: Sat Jun  5 12:52:54 2010


@<TRIPOS>MOLECULE
frag5-571-44/41815 -- energy: -0.809802
   16    16     1     1     1
SMALL
USER_CHARGES


@<TRIPOS>ATOM
      1 O4         -2.9236    0.0282   -0.3633 O.3        1 <1>        0.000
      2 C22        -1.9911   -0.5016    0.4577 C.2        1 <1>        0.000
      3 O5         -2.3132   -1.1705    1.4234 O.2        1 <1>        0.000
      4 C23        -0.5656   -0.2516    0.1654 C.ar       1 <1>        0.000
      5 C24        -0.1104    1.0752   -0.0527 C.ar       1 <1>        0.000
      6 C25         1.2860    1.2800   -0.3348 C.ar       1 <1>        0.000
      7 C26         2.1886    0.2143   -0.3960 C.ar       1 <1>        0.000
      8 C27         1.7246   -1.0797   -0.1798 C.ar       1 <1>        0.000
      9 C28         0.3533   -1.3148    0.1005 C.ar       1 <1>        0.000
     10 O6         -0.9646    2.1343    0.0023 O.3        1 <1>        0.000
     11 H          -2.4891    0.5200   -1.0640 H.spc      1 <1>        0.000
     12 H           1.6495    2.2933   -0.5053 H.spc      1 <1>        0.000
     13 H           3.2420    0.3945   -0.6103 H.spc      1 <1>        0.000
     14 H           2.4191   -1.9185   -0.2260 H.spc      1 <1>        0.000
     15 H           0.0069   -2.3346    0.2680 H.spc      1 <1>        0.000
     16 H          -0.4794    2.9446   -0.1699 H.spc      1 <1>        0.000
@<TRIPOS>BOND
     1    8    9 ar 
     2    1    2 1  
     3    2    4 1  
     4    2    3 2  
     5    4    5 ar 
     6    4    9 ar 
     7    5    6 ar 
     8    5   10 1  
     9    6    7 ar 
    10    7    8 ar 
    11    1   11 1  
    12    6   12 1  
    13    7   13 1  
    14    8   14 1  
    15    9   15 1  
    16   10   16 1  
# Name:          frag5-571-44/41815 -- energy: -0.928397
# Creation time: Sat Jun  5 12:52:54 2010


@<TRIPOS>MOLECULE
frag5-571-44/41815 -- energy: -0.928397
   16    16     1     1     1
SMALL
USER_CHARGES


@<TRIPOS>ATOM
      1 O4         -2.4833   -0.3982    1.5821 O.3        1 <1>        0.000
      2 C22        -2.0217   -0.4851    0.3158 C.2        1 <1>        0.000
      3 O5         -2.7679   -0.7615   -0.6063 O.2        1 <1>        0.000
      4 C23        -0.5867   -0.2417    0.0668 C.ar       1 <1>        0.000
      5 C24        -0.0563    1.0675    0.2088 C.ar       1 <1>        0.000
      6 C25         1.3469    1.2660   -0.0421 C.ar       1 <1>        0.000
      7 C26         2.1845    0.2112   -0.4156 C.ar       1 <1>        0.000
      8 C27         1.6472   -1.0655   -0.5502 C.ar       1 <1>        0.000
      9 C28         0.2673   -1.2942   -0.3100 C.ar       1 <1>        0.000
     10 O6         -0.8460    2.1151    0.5733 O.3        1 <1>        0.000
     11 H          -1.7591   -0.1730    2.1707 H.spc      1 <1>        0.000
     12 H           1.7679    2.2660    0.0620 H.spc      1 <1>        0.000
     13 H           3.2446    0.3863   -0.5990 H.spc      1 <1>        0.000
     14 H           2.2906   -1.8955   -0.8421 H.spc      1 <1>        0.000
     15 H          -0.1369   -2.3006   -0.4191 H.spc      1 <1>        0.000
     16 H          -0.3156    2.9141    0.6172 H.spc      1 <1>        0.000
@<TRIPOS>BOND
     1    8    9 ar 
     2    1    2 1  
     3    2    4 1  
     4    2    3 2  
     5    4    5 ar 
     6    4    9 ar 
     7    5    6 ar 
     8    5   10 1  
     9    6    7 ar 
    10    7    8 ar 
    11    1   11 1  
    12    6   12 1  
    13    7   13 1  
    14    8   14 1  
    15    9   15 1  
    16   10   16 1  
# Name:          frag5-571-44/41815 -- energy: -0.519032
# Creation time: Sat Jun  5 12:52:54 2010


@<TRIPOS>MOLECULE
frag5-571-44/41815 -- energy: -0.519032
   16    16     1     1     1
SMALL
USER_CHARGES


@<TRIPOS>ATOM
      1 O4         -2.5582   -1.6240    0.1032 O.3        1 <1>        0.000
      2 C22        -1.9974   -0.4521    0.4773 C.2        1 <1>        0.000
      3 O5         -2.6582    0.4039    1.0390 O.2        1 <1>        0.000
      4 C23        -0.5705   -0.2236    0.1891 C.ar       1 <1>        0.000
      5 C24        -0.1180    1.0711   -0.1737 C.ar       1 <1>        0.000
      6 C25         1.2822    1.2576   -0.4482 C.ar       1 <1>        0.000
      7 C26         2.1937    0.2005   -0.3638 C.ar       1 <1>        0.000
      8 C27         1.7347   -1.0638   -0.0071 C.ar       1 <1>        0.000
      9 C28         0.3585   -1.2782    0.2694 C.ar       1 <1>        0.000
     10 O6         -0.9826    2.1223   -0.2624 O.3        1 <1>        0.000
     11 H          -1.8954   -2.1734   -0.3216 H.spc      1 <1>        0.000
     12 H           1.6413    2.2477   -0.7290 H.spc      1 <1>        0.000
     13 H           3.2504    0.3648   -0.5748 H.spc      1 <1>        0.000
     14 H           2.4363   -1.8952    0.0605 H.spc      1 <1>        0.000
     15 H           0.0161   -2.2748    0.5481 H.spc      1 <1>        0.000
     16 H          -0.4997    2.9116   -0.5182 H.spc      1 <1>        0.000
@<TRIPOS>BOND
     1    8    9 ar 
     2    1    2 1  
     3    2    4 1  
     4    2    3 2  
     5    4    5 ar 
     6    4    9 ar 
     7    5    6 ar 
     8    5   10 1  
     9    6    7 ar 
    10    7    8 ar 
    11    1   11 1  
    12    6   12 1  
    13    7   13 1  
    14    8   14 1  
    15    9   15 1  
    16   10   16 1  
