#      Rotatable Fragment
#      Build by yxyuan
#
# Name:          frag4-303-1680/150395
# Creation time: Sat Jun  5 12:53:30 2010


@<TRIPOS>MOLECULE
frag4-303-1680/150395
   15    16     1     1     1
SMALL
USER_CHARGES


@<TRIPOS>ATOM
      1 N3          1.9244    0.5683    0.0048 N.2        1 <1>        0.000
      2 C24         0.6364    0.4651   -0.0151 C.2        1 <1>        0.000
      3 C25         2.4188   -0.7589    0.1033 C.3        1 <1>        0.000
      4 C26         0.2384   -0.9866    0.0745 C.2        1 <1>        0.000
      5 C27        -0.4136    1.4706   -0.1094 C.2        1 <1>        0.000
      6 N4          1.3355   -1.6242    0.1253 N.2        1 <1>        0.000
      7 C29        -1.1547   -1.3800    0.0900 C.2        1 <1>        0.000
      8 C30        -1.6786    0.9949   -0.1162 C.2        1 <1>        0.000
      9 C31        -2.0591   -0.3877   -0.0156 C.2        1 <1>        0.000
     10 H           3.0079   -0.8728    1.0133 H.spc      1 <1>        0.000
     11 H           3.0608   -0.9838   -0.7484 H.spc      1 <1>        0.000
     12 H          -0.1935    2.5364   -0.1705 H.spc      1 <1>        0.000
     13 H          -1.4556   -2.4236    0.1822 H.spc      1 <1>        0.000
     14 H          -2.4827    1.7253   -0.2060 H.spc      1 <1>        0.000
     15 H          -3.1189   -0.6424   -0.0251 H.spc      1 <1>        0.000
@<TRIPOS>BOND
     1    8    9 1  
     2    1    2 2  
     3    1    3 1  
     4    2    4 1  
     5    2    5 1  
     6    3    6 1  
     7    4    7 1  
     8    4    6 2  
     9    5    8 2  
    10    7    9 2  
    11    3   10 1  
    12    3   11 1  
    13    5   12 1  
    14    7   13 1  
    15    8   14 1  
    16    9   15 1  
# Name:          frag4-303-1680/150395 -- energy: -0.568209
# Creation time: Sat Jun  5 12:53:30 2010


@<TRIPOS>MOLECULE
frag4-303-1680/150395 -- energy: -0.568209
   15    16     1     1     1
SMALL
USER_CHARGES


@<TRIPOS>ATOM
      1 N3          1.9244    0.5683    0.0048 N.2        1 <1>        0.000
      2 C24         0.6364    0.4651   -0.0151 C.2        1 <1>        0.000
      3 C25         2.4188   -0.7589    0.1033 C.3        1 <1>        0.000
      4 C26         0.2384   -0.9866    0.0745 C.2        1 <1>        0.000
      5 C27        -0.4136    1.4706   -0.1094 C.2        1 <1>        0.000
      6 N4          1.3355   -1.6242    0.1253 N.2        1 <1>        0.000
      7 C29        -1.1547   -1.3800    0.0900 C.2        1 <1>        0.000
      8 C30        -1.6786    0.9949   -0.1162 C.2        1 <1>        0.000
      9 C31        -2.0591   -0.3877   -0.0156 C.2        1 <1>        0.000
     10 H           3.0079   -0.8728    1.0133 H.spc      1 <1>        0.000
     11 H           3.0608   -0.9838   -0.7484 H.spc      1 <1>        0.000
     12 H          -0.1935    2.5364   -0.1705 H.spc      1 <1>        0.000
     13 H          -1.4556   -2.4236    0.1822 H.spc      1 <1>        0.000
     14 H          -2.4827    1.7253   -0.2060 H.spc      1 <1>        0.000
     15 H          -3.1189   -0.6424   -0.0251 H.spc      1 <1>        0.000
@<TRIPOS>BOND
     1    8    9 1  
     2    1    2 2  
     3    1    3 1  
     4    2    4 1  
     5    2    5 1  
     6    3    6 1  
     7    4    7 1  
     8    4    6 2  
     9    5    8 2  
    10    7    9 2  
    11    3   10 1  
    12    3   11 1  
    13    5   12 1  
    14    7   13 1  
    15    8   14 1  
    16    9   15 1  
