#      Rotatable Fragment
#      Build by yxyuan
#
# Name:          frag4-466-35/48856
# Creation time: Sat Jun  5 12:52:48 2010


@<TRIPOS>MOLECULE
frag4-466-35/48856
   11    11     1     1     1
SMALL
USER_CHARGES


@<TRIPOS>ATOM
      1 C20        -0.8781   -0.9591   -0.0202 C.2        1 <1>        0.000
      2 N7          0.4807   -0.9897    0.1878 N.pl3      1 <1>        0.000
      3 C21         1.0766    0.3275    0.1322 C.3        1 <1>        0.000
      4 N8         -0.1152    1.1016   -0.1417 N.pl3      1 <1>        0.000
      5 C22        -1.2432    0.3192   -0.2206 C.2        1 <1>        0.000
      6 H          -1.5441   -1.8220   -0.0223 H.spc      1 <1>        0.000
      7 H           1.0091   -1.8447    0.3617 H.spc      1 <1>        0.000
      8 H           1.8771    0.4403   -0.5989 H.spc      1 <1>        0.000
      9 H           1.6226    0.6241    1.0277 H.spc      1 <1>        0.000
     10 H          -0.1181    2.1144   -0.2627 H.spc      1 <1>        0.000
     11 H          -2.2561    0.6734   -0.4121 H.spc      1 <1>        0.000
@<TRIPOS>BOND
     1    1    2 1  
     2    1    5 2  
     3    2    3 1  
     4    3    4 1  
     5    4    5 1  
     6    1    6 1  
     7    2    7 1  
     8    3    8 1  
     9    3    9 1  
    10    4   10 1  
    11    5   11 1  
# Name:          frag4-466-35/48856 -- energy: -0.434771
# Creation time: Sat Jun  5 12:52:48 2010


@<TRIPOS>MOLECULE
frag4-466-35/48856 -- energy: -0.434771
   11    11     1     1     1
SMALL
USER_CHARGES


@<TRIPOS>ATOM
      1 C20        -0.8781   -0.9591   -0.0202 C.2        1 <1>        0.000
      2 N7          0.4807   -0.9897    0.1878 N.pl3      1 <1>        0.000
      3 C21         1.0766    0.3275    0.1322 C.3        1 <1>        0.000
      4 N8         -0.1152    1.1016   -0.1417 N.pl3      1 <1>        0.000
      5 C22        -1.2432    0.3192   -0.2206 C.2        1 <1>        0.000
      6 H          -1.5441   -1.8220   -0.0223 H.spc      1 <1>        0.000
      7 H           1.0091   -1.8447    0.3617 H.spc      1 <1>        0.000
      8 H           1.8771    0.4403   -0.5989 H.spc      1 <1>        0.000
      9 H           1.6226    0.6241    1.0277 H.spc      1 <1>        0.000
     10 H          -0.1181    2.1144   -0.2627 H.spc      1 <1>        0.000
     11 H          -2.2561    0.6734   -0.4121 H.spc      1 <1>        0.000
@<TRIPOS>BOND
     1    1    2 1  
     2    1    5 2  
     3    2    3 1  
     4    3    4 1  
     5    4    5 1  
     6    1    6 1  
     7    2    7 1  
     8    3    8 1  
     9    3    9 1  
    10    4   10 1  
    11    5   11 1  
