#      Rotatable Fragment
#      Build by yxyuan
#
# Name:          frag2-056-31/319335
# Creation time: Sat Jun  5 12:53:44 2010


@<TRIPOS>MOLECULE
frag2-056-31/319335
   24    26     1     1     1
SMALL
USER_CHARGES


@<TRIPOS>ATOM
      1 C1         -2.0399   -1.4962    0.2263 C.ar       1 <1>        0.000
      2 C2         -3.2527   -0.7978    0.2525 C.ar       1 <1>        0.000
      3 C3         -0.8197   -0.8102    0.2254 C.ar       1 <1>        0.000
      4 C5         -3.2463    0.6028    0.2498 C.ar       1 <1>        0.000
      5 C6         -4.4717   -1.4866    0.2844 C.ar       1 <1>        0.000
      6 C7         -0.8124    0.5904    0.2220 C.ar       1 <1>        0.000
      7 C8          0.3928   -1.5112    0.2305 C.ar       1 <1>        0.000
      8 C9         -2.0258    1.2886    0.2351 C.ar       1 <1>        0.000
      9 C10        -4.4590    1.3030    0.2628 C.ar       1 <1>        0.000
     10 C11        -5.6797   -0.7843    0.3015 C.ar       1 <1>        0.000
     11 C12         0.4073    1.2788    0.2076 C.ar       1 <1>        0.000
     12 C13         1.6081   -0.8212    0.2229 C.ar       1 <1>        0.000
     13 C15        -5.6742    0.6127    0.2853 C.ar       1 <1>        0.000
     14 C16         1.6148    0.5753    0.2055 C.ar       1 <1>        0.000
     15 H          -2.0457   -2.5860    0.2064 H.spc      1 <1>        0.000
     16 H          -4.4782   -2.5765    0.2960 H.spc      1 <1>        0.000
     17 H           0.3885   -2.6011    0.2405 H.spc      1 <1>        0.000
     18 H          -2.0202    2.3786    0.2338 H.spc      1 <1>        0.000
     19 H          -4.4553    2.3930    0.2553 H.spc      1 <1>        0.000
     20 H          -6.6253   -1.3259    0.3275 H.spc      1 <1>        0.000
     21 H           0.4147    2.3687    0.1980 H.spc      1 <1>        0.000
     22 H           2.5488   -1.3718    0.2305 H.spc      1 <1>        0.000
     23 H          -6.6151    1.1629    0.2902 H.spc      1 <1>        0.000
     24 H           2.5611    1.1161    0.1903 H.spc      1 <1>        0.000
@<TRIPOS>BOND
     1    9   13 ar 
     2    5   10 ar 
     3    7   12 ar 
     4    4    8 ar 
     5    3    7 ar 
     6   10   13 ar 
     7   11   14 ar 
     8    2    4 ar 
     9    4    9 ar 
    10   12   14 ar 
    11    6    8 ar 
    12    3    6 ar 
    13    1    2 ar 
    14    2    5 ar 
    15    6   11 ar 
    16    1    3 ar 
    17    1   15 1  
    18    5   16 1  
    19    7   17 1  
    20    8   18 1  
    21    9   19 1  
    22   10   20 1  
    23   11   21 1  
    24   12   22 1  
    25   13   23 1  
    26   14   24 1  
# Name:          frag2-056-31/319335 -- energy: -0.792646
# Creation time: Sat Jun  5 12:53:44 2010


@<TRIPOS>MOLECULE
frag2-056-31/319335 -- energy: -0.792646
   24    26     1     1     1
SMALL
USER_CHARGES


@<TRIPOS>ATOM
      1 C1         -2.0399   -1.4962    0.2263 C.ar       1 <1>        0.000
      2 C2         -3.2527   -0.7978    0.2525 C.ar       1 <1>        0.000
      3 C3         -0.8197   -0.8102    0.2254 C.ar       1 <1>        0.000
      4 C5         -3.2463    0.6028    0.2498 C.ar       1 <1>        0.000
      5 C6         -4.4717   -1.4866    0.2844 C.ar       1 <1>        0.000
      6 C7         -0.8124    0.5904    0.2220 C.ar       1 <1>        0.000
      7 C8          0.3928   -1.5112    0.2305 C.ar       1 <1>        0.000
      8 C9         -2.0258    1.2886    0.2351 C.ar       1 <1>        0.000
      9 C10        -4.4590    1.3030    0.2628 C.ar       1 <1>        0.000
     10 C11        -5.6797   -0.7843    0.3015 C.ar       1 <1>        0.000
     11 C12         0.4073    1.2788    0.2076 C.ar       1 <1>        0.000
     12 C13         1.6081   -0.8212    0.2229 C.ar       1 <1>        0.000
     13 C15        -5.6742    0.6127    0.2853 C.ar       1 <1>        0.000
     14 C16         1.6148    0.5753    0.2055 C.ar       1 <1>        0.000
     15 H          -2.0457   -2.5860    0.2064 H.spc      1 <1>        0.000
     16 H          -4.4782   -2.5765    0.2960 H.spc      1 <1>        0.000
     17 H           0.3885   -2.6011    0.2405 H.spc      1 <1>        0.000
     18 H          -2.0202    2.3786    0.2338 H.spc      1 <1>        0.000
     19 H          -4.4553    2.3930    0.2553 H.spc      1 <1>        0.000
     20 H          -6.6253   -1.3259    0.3275 H.spc      1 <1>        0.000
     21 H           0.4147    2.3687    0.1980 H.spc      1 <1>        0.000
     22 H           2.5488   -1.3718    0.2305 H.spc      1 <1>        0.000
     23 H          -6.6151    1.1629    0.2902 H.spc      1 <1>        0.000
     24 H           2.5611    1.1161    0.1903 H.spc      1 <1>        0.000
@<TRIPOS>BOND
     1    9   13 ar 
     2    5   10 ar 
     3    7   12 ar 
     4    4    8 ar 
     5    3    7 ar 
     6   10   13 ar 
     7   11   14 ar 
     8    2    4 ar 
     9    4    9 ar 
    10   12   14 ar 
    11    6    8 ar 
    12    3    6 ar 
    13    1    2 ar 
    14    2    5 ar 
    15    6   11 ar 
    16    1    3 ar 
    17    1   15 1  
    18    5   16 1  
    19    7   17 1  
    20    8   18 1  
    21    9   19 1  
    22   10   20 1  
    23   11   21 1  
    24   12   22 1  
    25   13   23 1  
    26   14   24 1  
