#      Rotatable Fragment
#      Build by yxyuan
#
# Name:          frag5-671-64/138278
# Creation time: Sat Jun  5 12:51:51 2010


@<TRIPOS>MOLECULE
frag5-671-64/138278
   27    28     1     1     1
SMALL
USER_CHARGES


@<TRIPOS>ATOM
      1 N4         -0.6513    1.0086    0.7819 N.4        1 <1>        0.000
      2 C12         0.4093    1.7032    0.0238 C.3        1 <1>        0.000
      3 C13        -0.0974   -0.2617    1.2967 C.3        1 <1>        0.000
      4 C14         1.8082    1.0412   -0.0762 C.3        1 <1>        0.000
      5 C15         0.6428   -1.1175    0.2417 C.3        1 <1>        0.000
      6 N5          1.8721   -0.4242   -0.1645 N.pl3      1 <1>        0.000
      7 C16         3.0536   -1.0436   -0.4395 C.ar       1 <1>        0.000
      8 C17         4.3017   -0.4141   -0.2470 C.ar       1 <1>        0.000
      9 C18         3.1182   -2.3662   -0.9317 C.ar       1 <1>        0.000
     10 C19         5.5044   -1.1164   -0.2936 C.ar       1 <1>        0.000
     11 C20         4.3151   -3.0727   -1.0132 C.ar       1 <1>        0.000
     12 C21         5.5169   -2.4593   -0.6675 C.ar       1 <1>        0.000
     13 F1          6.6598   -3.1415   -0.7005 F          1 <1>        0.000
     14 H          -0.9672    1.5921    1.5566 H.spc      1 <1>        0.000
     15 H          -1.4499    0.8219    0.1755 H.spc      1 <1>        0.000
     16 H           0.0424    1.7468   -1.0017 H.spc      1 <1>        0.000
     17 H           0.5756    2.6374    0.5602 H.spc      1 <1>        0.000
     18 H          -0.9400   -0.8547    1.6523 H.spc      1 <1>        0.000
     19 H           0.6321   -0.0024    2.0640 H.spc      1 <1>        0.000
     20 H           2.2352    1.4064   -1.0102 H.spc      1 <1>        0.000
     21 H           2.3170    1.2977    0.8530 H.spc      1 <1>        0.000
     22 H           0.8939   -2.0885    0.6685 H.spc      1 <1>        0.000
     23 H           0.0008   -1.2640   -0.6269 H.spc      1 <1>        0.000
     24 H           4.3259    0.6586   -0.0552 H.spc      1 <1>        0.000
     25 H           2.1984   -2.8507   -1.2593 H.spc      1 <1>        0.000
     26 H           6.4374   -0.6146   -0.0371 H.spc      1 <1>        0.000
     27 H           4.3117   -4.1097   -1.3488 H.spc      1 <1>        0.000
@<TRIPOS>BOND
     1    8   10 ar 
     2    4    6 1  
     3    9   11 ar 
     4    2    4 1  
     5   11   12 ar 
     6   12   13 1  
     7    5    6 1  
     8    1    3 1  
     9   10   12 ar 
    10    1    2 1  
    11    7    9 ar 
    12    7    8 ar 
    13    6    7 1  
    14    3    5 1  
    15    1   14 1  
    16    1   15 1  
    17    2   16 1  
    18    2   17 1  
    19    3   18 1  
    20    3   19 1  
    21    4   20 1  
    22    4   21 1  
    23    5   22 1  
    24    5   23 1  
    25    8   24 1  
    26    9   25 1  
    27   10   26 1  
    28   11   27 1  
# Name:          frag5-671-64/138278
# Creation time: Sat Jun  5 12:51:51 2010


@<TRIPOS>MOLECULE
frag5-671-64/138278
   27    28     1     1     1
SMALL
USER_CHARGES


@<TRIPOS>ATOM
      1 N4         -0.2905    0.6313    1.2210 N.4        1 <1>        0.000
      2 C12         0.5093    1.7037    0.5801 C.3        1 <1>        0.000
      3 C13        -0.3060   -0.6839    0.5515 C.3        1 <1>        0.000
      4 C14         1.8484    1.1599    0.0692 C.3        1 <1>        0.000
      5 C15         0.6098   -0.8171   -0.6632 C.3        1 <1>        0.000
      6 N5          1.8895   -0.2221   -0.3831 N.pl3      1 <1>        0.000
      7 C16         3.0434   -0.9225   -0.3676 C.ar       1 <1>        0.000
      8 C17         3.1452   -2.2788    0.0378 C.ar       1 <1>        0.000
      9 C18         4.3042   -0.3642   -0.7019 C.ar       1 <1>        0.000
     10 C19         4.2726   -3.0608   -0.1650 C.ar       1 <1>        0.000
     11 C20         5.4568   -1.1135   -0.8855 C.ar       1 <1>        0.000
     12 C21         5.4398   -2.4788   -0.6402 C.ar       1 <1>        0.000
     13 F1          6.5309   -3.2175   -0.8428 F          1 <1>        0.000
     14 H           0.1357    0.4739    2.1342 H.spc      1 <1>        0.000
     15 H          -1.2560    0.9602    1.2112 H.spc      1 <1>        0.000
     16 H          -0.0523    2.1008   -0.2655 H.spc      1 <1>        0.000
     17 H           0.7064    2.4813    1.3181 H.spc      1 <1>        0.000
     18 H          -1.3232   -0.8352    0.1902 H.spc      1 <1>        0.000
     19 H           0.0460   -1.4089    1.2854 H.spc      1 <1>        0.000
     20 H           2.0916    1.7607   -0.8072 H.spc      1 <1>        0.000
     21 H           2.5266    1.2080    0.9212 H.spc      1 <1>        0.000
     22 H           0.7484   -1.8735   -0.8933 H.spc      1 <1>        0.000
     23 H           0.1554   -0.3066   -1.5123 H.spc      1 <1>        0.000
     24 H           2.2886   -2.7317    0.5370 H.spc      1 <1>        0.000
     25 H           4.3709    0.7172   -0.8215 H.spc      1 <1>        0.000
     26 H           4.2422   -4.1293    0.0482 H.spc      1 <1>        0.000
     27 H           6.3742   -0.6305   -1.2219 H.spc      1 <1>        0.000
@<TRIPOS>BOND
     1    8   10 ar 
     2    4    6 1  
     3    9   11 ar 
     4    2    4 1  
     5   11   12 ar 
     6   12   13 1  
     7    5    6 1  
     8    1    3 1  
     9   10   12 ar 
    10    1    2 1  
    11    7    9 ar 
    12    7    8 ar 
    13    6    7 1  
    14    3    5 1  
    15    1   14 1  
    16    1   15 1  
    17    2   16 1  
    18    2   17 1  
    19    3   18 1  
    20    3   19 1  
    21    4   20 1  
    22    4   21 1  
    23    5   22 1  
    24    5   23 1  
    25    8   24 1  
    26    9   25 1  
    27   10   26 1  
    28   11   27 1  
# Name:          frag5-671-64/138278 -- energy: -2.129035
# Creation time: Sat Jun  5 12:51:51 2010


@<TRIPOS>MOLECULE
frag5-671-64/138278 -- energy: -2.129035
   27    28     1     1     1
SMALL
USER_CHARGES


@<TRIPOS>ATOM
      1 N4         -0.6513    1.0086    0.7819 N.4        1 <1>        0.000
      2 C12         0.4093    1.7032    0.0238 C.3        1 <1>        0.000
      3 C13        -0.0974   -0.2617    1.2967 C.3        1 <1>        0.000
      4 C14         1.8082    1.0412   -0.0762 C.3        1 <1>        0.000
      5 C15         0.6428   -1.1175    0.2417 C.3        1 <1>        0.000
      6 N5          1.8721   -0.4242   -0.1645 N.pl3      1 <1>        0.000
      7 C16         3.0536   -1.0436   -0.4395 C.ar       1 <1>        0.000
      8 C17         4.3017   -0.4141   -0.2470 C.ar       1 <1>        0.000
      9 C18         3.1182   -2.3662   -0.9317 C.ar       1 <1>        0.000
     10 C19         5.5044   -1.1164   -0.2936 C.ar       1 <1>        0.000
     11 C20         4.3151   -3.0727   -1.0132 C.ar       1 <1>        0.000
     12 C21         5.5169   -2.4593   -0.6675 C.ar       1 <1>        0.000
     13 F1          6.6598   -3.1415   -0.7005 F          1 <1>        0.000
     14 H          -0.9672    1.5921    1.5566 H.spc      1 <1>        0.000
     15 H          -1.4499    0.8219    0.1755 H.spc      1 <1>        0.000
     16 H           0.0424    1.7468   -1.0017 H.spc      1 <1>        0.000
     17 H           0.5756    2.6374    0.5602 H.spc      1 <1>        0.000
     18 H          -0.9400   -0.8547    1.6523 H.spc      1 <1>        0.000
     19 H           0.6321   -0.0024    2.0640 H.spc      1 <1>        0.000
     20 H           2.2352    1.4064   -1.0102 H.spc      1 <1>        0.000
     21 H           2.3170    1.2977    0.8530 H.spc      1 <1>        0.000
     22 H           0.8939   -2.0885    0.6685 H.spc      1 <1>        0.000
     23 H           0.0008   -1.2640   -0.6269 H.spc      1 <1>        0.000
     24 H           4.3259    0.6586   -0.0552 H.spc      1 <1>        0.000
     25 H           2.1984   -2.8507   -1.2593 H.spc      1 <1>        0.000
     26 H           6.4374   -0.6146   -0.0371 H.spc      1 <1>        0.000
     27 H           4.3117   -4.1097   -1.3488 H.spc      1 <1>        0.000
@<TRIPOS>BOND
     1    8   10 ar 
     2    4    6 1  
     3    9   11 ar 
     4    2    4 1  
     5   11   12 ar 
     6   12   13 1  
     7    5    6 1  
     8    1    3 1  
     9   10   12 ar 
    10    1    2 1  
    11    7    9 ar 
    12    7    8 ar 
    13    6    7 1  
    14    3    5 1  
    15    1   14 1  
    16    1   15 1  
    17    2   16 1  
    18    2   17 1  
    19    3   18 1  
    20    3   19 1  
    21    4   20 1  
    22    4   21 1  
    23    5   22 1  
    24    5   23 1  
    25    8   24 1  
    26    9   25 1  
    27   10   26 1  
    28   11   27 1  
# Name:          frag5-671-64/138278 -- energy: -2.576090
# Creation time: Sat Jun  5 12:51:51 2010


@<TRIPOS>MOLECULE
frag5-671-64/138278 -- energy: -2.576090
   27    28     1     1     1
SMALL
USER_CHARGES


@<TRIPOS>ATOM
      1 N4         -0.2905    0.6313    1.2210 N.4        1 <1>        0.000
      2 C12         0.5093    1.7037    0.5801 C.3        1 <1>        0.000
      3 C13        -0.3060   -0.6839    0.5515 C.3        1 <1>        0.000
      4 C14         1.8484    1.1599    0.0692 C.3        1 <1>        0.000
      5 C15         0.6098   -0.8171   -0.6632 C.3        1 <1>        0.000
      6 N5          1.8895   -0.2221   -0.3831 N.pl3      1 <1>        0.000
      7 C16         3.0434   -0.9225   -0.3676 C.ar       1 <1>        0.000
      8 C17         3.1452   -2.2788    0.0378 C.ar       1 <1>        0.000
      9 C18         4.3042   -0.3642   -0.7019 C.ar       1 <1>        0.000
     10 C19         4.2726   -3.0608   -0.1650 C.ar       1 <1>        0.000
     11 C20         5.4568   -1.1135   -0.8855 C.ar       1 <1>        0.000
     12 C21         5.4398   -2.4788   -0.6402 C.ar       1 <1>        0.000
     13 F1          6.5309   -3.2175   -0.8428 F          1 <1>        0.000
     14 H           0.1357    0.4739    2.1342 H.spc      1 <1>        0.000
     15 H          -1.2560    0.9602    1.2112 H.spc      1 <1>        0.000
     16 H          -0.0523    2.1008   -0.2655 H.spc      1 <1>        0.000
     17 H           0.7064    2.4813    1.3181 H.spc      1 <1>        0.000
     18 H          -1.3232   -0.8352    0.1902 H.spc      1 <1>        0.000
     19 H           0.0460   -1.4089    1.2854 H.spc      1 <1>        0.000
     20 H           2.0916    1.7607   -0.8072 H.spc      1 <1>        0.000
     21 H           2.5266    1.2080    0.9212 H.spc      1 <1>        0.000
     22 H           0.7484   -1.8735   -0.8933 H.spc      1 <1>        0.000
     23 H           0.1554   -0.3066   -1.5123 H.spc      1 <1>        0.000
     24 H           2.2886   -2.7317    0.5370 H.spc      1 <1>        0.000
     25 H           4.3709    0.7172   -0.8215 H.spc      1 <1>        0.000
     26 H           4.2422   -4.1293    0.0482 H.spc      1 <1>        0.000
     27 H           6.3742   -0.6305   -1.2219 H.spc      1 <1>        0.000
@<TRIPOS>BOND
     1    8   10 ar 
     2    4    6 1  
     3    9   11 ar 
     4    2    4 1  
     5   11   12 ar 
     6   12   13 1  
     7    5    6 1  
     8    1    3 1  
     9   10   12 ar 
    10    1    2 1  
    11    7    9 ar 
    12    7    8 ar 
    13    6    7 1  
    14    3    5 1  
    15    1   14 1  
    16    1   15 1  
    17    2   16 1  
    18    2   17 1  
    19    3   18 1  
    20    3   19 1  
    21    4   20 1  
    22    4   21 1  
    23    5   22 1  
    24    5   23 1  
    25    8   24 1  
    26    9   25 1  
    27   10   26 1  
    28   11   27 1  
