#      Rotatable Fragment
#      Build by yxyuan
#
# Name:          frag5-523-308/138278
# Creation time: Sat Jun  5 12:53:41 2010


@<TRIPOS>MOLECULE
frag5-523-308/138278
   14    14     1     1     1
SMALL
USER_CHARGES


@<TRIPOS>ATOM
      1 C23         1.7296   -0.1285   -0.0755 C.2        1 <1>        0.000
      2 C24         2.9935   -0.8742   -0.0625 C.ar       1 <1>        0.000
      3 O7          0.7502   -0.5299   -0.6862 O.2        1 <1>        0.000
      4 C25         2.9769   -2.2694   -0.0980 C.ar       1 <1>        0.000
      5 C26         4.2117   -0.1961    0.0252 C.ar       1 <1>        0.000
      6 C27         4.1717   -2.9827   -0.0728 C.ar       1 <1>        0.000
      7 C28         5.4072   -0.9114    0.0214 C.ar       1 <1>        0.000
      8 C29         5.3860   -2.3025   -0.0485 C.ar       1 <1>        0.000
      9 H           1.6626    0.8098    0.4751 H.spc      1 <1>        0.000
     10 H           2.0266   -2.8012   -0.1455 H.spc      1 <1>        0.000
     11 H           4.2268    0.8915    0.0965 H.spc      1 <1>        0.000
     12 H           4.1566   -4.0726   -0.0721 H.spc      1 <1>        0.000
     13 H           6.3590   -0.3826    0.0731 H.spc      1 <1>        0.000
     14 H           6.3222   -2.8596   -0.0842 H.spc      1 <1>        0.000
@<TRIPOS>BOND
     1    1    2 1  
     2    1    3 2  
     3    2    4 ar 
     4    2    5 ar 
     5    4    6 ar 
     6    5    7 ar 
     7    6    8 ar 
     8    7    8 ar 
     9    1    9 1  
    10    4   10 1  
    11    5   11 1  
    12    6   12 1  
    13    7   13 1  
    14    8   14 1  
# Name:          frag5-523-308/138278 -- energy: -0.266482
# Creation time: Sat Jun  5 12:53:41 2010


@<TRIPOS>MOLECULE
frag5-523-308/138278 -- energy: -0.266482
   14    14     1     1     1
SMALL
USER_CHARGES


@<TRIPOS>ATOM
      1 C23         1.7296   -0.1285   -0.0755 C.2        1 <1>        0.000
      2 C24         2.9935   -0.8742   -0.0625 C.ar       1 <1>        0.000
      3 O7          0.7502   -0.5299   -0.6862 O.2        1 <1>        0.000
      4 C25         2.9769   -2.2694   -0.0980 C.ar       1 <1>        0.000
      5 C26         4.2117   -0.1961    0.0252 C.ar       1 <1>        0.000
      6 C27         4.1717   -2.9827   -0.0728 C.ar       1 <1>        0.000
      7 C28         5.4072   -0.9114    0.0214 C.ar       1 <1>        0.000
      8 C29         5.3860   -2.3025   -0.0485 C.ar       1 <1>        0.000
      9 H           1.6626    0.8098    0.4751 H.spc      1 <1>        0.000
     10 H           2.0266   -2.8012   -0.1455 H.spc      1 <1>        0.000
     11 H           4.2268    0.8915    0.0965 H.spc      1 <1>        0.000
     12 H           4.1566   -4.0726   -0.0721 H.spc      1 <1>        0.000
     13 H           6.3590   -0.3826    0.0731 H.spc      1 <1>        0.000
     14 H           6.3222   -2.8596   -0.0842 H.spc      1 <1>        0.000
@<TRIPOS>BOND
     1    1    2 1  
     2    1    3 2  
     3    2    4 ar 
     4    2    5 ar 
     5    4    6 ar 
     6    5    7 ar 
     7    6    8 ar 
     8    7    8 ar 
     9    1    9 1  
    10    4   10 1  
    11    5   11 1  
    12    6   12 1  
    13    7   13 1  
    14    8   14 1  
