#      Rotatable Fragment
#      Build by yxyuan
#
# Name:          frag5-660-67/138278
# Creation time: Sat Jun  5 12:51:51 2010


@<TRIPOS>MOLECULE
frag5-660-67/138278
   23    24     1     1     1
SMALL
USER_CHARGES


@<TRIPOS>ATOM
      1 N1         -0.6409   -0.2637   -0.2171 N.am       1 <1>        0.000
      2 C1         -0.7331    1.1702   -0.3591 C.3        1 <1>        0.000
      3 C2          0.4915   -0.9772   -0.3747 C.2        1 <1>        0.000
      4 C3         -1.8987   -0.5461    0.1262 C.2        1 <1>        0.000
      5 C4         -2.1888    0.9394    0.1541 C.3        1 <1>        0.000
      6 S1          0.5970    1.9030    0.5953 S.3        1 <1>        0.000
      7 C5          1.6847   -0.3594   -0.5487 C.2        1 <1>        0.000
      8 C6          0.3882   -2.4523   -0.3083 C.2        1 <1>        0.000
      9 O1         -2.5420   -1.5476    0.3465 O.2        1 <1>        0.000
     10 C7          1.8296    1.1517   -0.4978 C.3        1 <1>        0.000
     11 C8          2.8990   -1.1479   -0.7567 C.2        1 <1>        0.000
     12 O2         -0.4417   -3.0359   -0.9923 O.2        1 <1>        0.000
     13 O3          1.1915   -3.1566    0.4926 O.3        1 <1>        0.000
     14 C10         2.9920   -2.1185   -1.6701 C.2        1 <1>        0.000
     15 H          -0.6188    1.8280   -1.2207 H.spc      1 <1>        0.000
     16 H          -3.0476    1.3590   -0.3699 H.spc      1 <1>        0.000
     17 H          -2.5556    1.4282    1.0566 H.spc      1 <1>        0.000
     18 H           1.6837    1.5457   -1.5036 H.spc      1 <1>        0.000
     19 H           2.8214    1.3898   -0.1135 H.spc      1 <1>        0.000
     20 H           3.7696   -0.9334   -0.1369 H.spc      1 <1>        0.000
     21 H           1.7810   -2.5590    0.9584 H.spc      1 <1>        0.000
     22 H           2.1370   -2.3544   -2.3037 H.spc      1 <1>        0.000
     23 H           3.9229   -2.6745   -1.7817 H.spc      1 <1>        0.000
@<TRIPOS>BOND
     1    2    5 1  
     2    8   12 2  
     3    3    8 1  
     4    1    2 1  
     5    7   10 1  
     6    2    6 1  
     7    1    3 1  
     8    8   13 1  
     9   11   14 2  
    10    4    5 1  
    11    3    7 2  
    12    1    4 am 
    13    4    9 2  
    14    7   11 1  
    15    6   10 1  
    16    2   15 1  
    17    5   16 1  
    18    5   17 1  
    19   10   18 1  
    20   10   19 1  
    21   11   20 1  
    22   13   21 1  
    23   14   22 1  
    24   14   23 1  
# Name:          frag5-660-67/138278
# Creation time: Sat Jun  5 12:51:51 2010


@<TRIPOS>MOLECULE
frag5-660-67/138278
   23    24     1     1     1
SMALL
USER_CHARGES


@<TRIPOS>ATOM
      1 N1         -0.6888   -0.2933   -0.2107 N.am       1 <1>        0.000
      2 C1         -0.7107    1.1449   -0.3364 C.3        1 <1>        0.000
      3 C2          0.3724   -1.0713   -0.5040 C.2        1 <1>        0.000
      4 C3         -1.9120   -0.5040    0.2782 C.2        1 <1>        0.000
      5 C4         -2.1068    0.9957    0.3449 C.3        1 <1>        0.000
      6 S1          0.7645    1.7876    0.4561 S.3        1 <1>        0.000
      7 C5          1.5707   -0.5241   -0.8165 C.2        1 <1>        0.000
      8 C6          0.1890   -2.5381   -0.4303 C.2        1 <1>        0.000
      9 O1         -2.5839   -1.4678    0.5701 O.2        1 <1>        0.000
     10 C7          1.8118    0.9759   -0.7776 C.3        1 <1>        0.000
     11 C8          2.7038   -1.3801   -1.1675 C.2        1 <1>        0.000
     12 O2         -0.7496   -3.0644   -1.0127 O.2        1 <1>        0.000
     13 O3          1.0373   -3.2969    0.2676 O.3        1 <1>        0.000
     14 C10         3.9306   -1.2051   -0.6713 C.2        1 <1>        0.000
     15 H          -0.6595    1.8035   -1.2034 H.spc      1 <1>        0.000
     16 H          -2.9946    1.4709   -0.0724 H.spc      1 <1>        0.000
     17 H          -2.3344    1.4962    1.2861 H.spc      1 <1>        0.000
     18 H           1.5725    1.3887   -1.7576 H.spc      1 <1>        0.000
     19 H           2.8546    1.1503   -0.5124 H.spc      1 <1>        0.000
     20 H           2.5386   -2.1994   -1.8672 H.spc      1 <1>        0.000
     21 H           1.7127   -2.7402    0.6620 H.spc      1 <1>        0.000
     22 H           4.1241   -0.3937    0.0303 H.spc      1 <1>        0.000
     23 H           4.7389   -1.8736   -0.9677 H.spc      1 <1>        0.000
@<TRIPOS>BOND
     1    2    5 1  
     2    8   12 2  
     3    3    8 1  
     4    1    2 1  
     5    7   10 1  
     6    2    6 1  
     7    1    3 1  
     8    8   13 1  
     9   11   14 2  
    10    4    5 1  
    11    3    7 2  
    12    1    4 am 
    13    4    9 2  
    14    7   11 1  
    15    6   10 1  
    16    2   15 1  
    17    5   16 1  
    18    5   17 1  
    19   10   18 1  
    20   10   19 1  
    21   11   20 1  
    22   13   21 1  
    23   14   22 1  
    24   14   23 1  
# Name:          frag5-660-67/138278
# Creation time: Sat Jun  5 12:51:51 2010


@<TRIPOS>MOLECULE
frag5-660-67/138278
   23    24     1     1     1
SMALL
USER_CHARGES


@<TRIPOS>ATOM
      1 N1         -0.6362   -0.2760   -0.2113 N.am       1 <1>        0.000
      2 C1         -0.7324    1.1571   -0.3729 C.3        1 <1>        0.000
      3 C2          0.4943   -0.9888   -0.3549 C.2        1 <1>        0.000
      4 C3         -1.8960   -0.5560    0.1416 C.2        1 <1>        0.000
      5 C4         -2.1846    0.9309    0.1336 C.3        1 <1>        0.000
      6 S1          0.5966    1.9112    0.5536 S.3        1 <1>        0.000
      7 C5          1.6934   -0.3744   -0.5387 C.2        1 <1>        0.000
      8 C6          0.4004   -2.4648   -0.2547 C.2        1 <1>        0.000
      9 O1         -2.5346   -1.5509    0.3792 O.2        1 <1>        0.000
     10 C7          1.8284    1.1392   -0.5146 C.3        1 <1>        0.000
     11 C8          2.9047   -1.1608   -0.7313 C.2        1 <1>        0.000
     12 O2          1.1653   -3.0883    0.4623 O.2        1 <1>        0.000
     13 O3         -0.5432   -3.1080   -0.9548 O.3        1 <1>        0.000
     14 C10         3.0722   -2.0114   -1.7474 C.2        1 <1>        0.000
     15 H          -0.6199    1.8064   -1.2411 H.spc      1 <1>        0.000
     16 H          -3.0395    1.3358   -0.4080 H.spc      1 <1>        0.000
     17 H          -2.5556    1.4374    1.0246 H.spc      1 <1>        0.000
     18 H           1.6807    1.5106   -1.5287 H.spc      1 <1>        0.000
     19 H           2.8172    1.3869   -0.1287 H.spc      1 <1>        0.000
     20 H           3.7145   -1.0494   -0.0103 H.spc      1 <1>        0.000
     21 H          -1.0533   -2.4720   -1.4617 H.spc      1 <1>        0.000
     22 H           2.2796   -2.1435   -2.4839 H.spc      1 <1>        0.000
     23 H           4.0015   -2.5734   -1.8401 H.spc      1 <1>        0.000
@<TRIPOS>BOND
     1    2    5 1  
     2    8   12 2  
     3    3    8 1  
     4    1    2 1  
     5    7   10 1  
     6    2    6 1  
     7    1    3 1  
     8    8   13 1  
     9   11   14 2  
    10    4    5 1  
    11    3    7 2  
    12    1    4 am 
    13    4    9 2  
    14    7   11 1  
    15    6   10 1  
    16    2   15 1  
    17    5   16 1  
    18    5   17 1  
    19   10   18 1  
    20   10   19 1  
    21   11   20 1  
    22   13   21 1  
    23   14   22 1  
    24   14   23 1  
# Name:          frag5-660-67/138278
# Creation time: Sat Jun  5 12:51:51 2010


@<TRIPOS>MOLECULE
frag5-660-67/138278
   23    24     1     1     1
SMALL
USER_CHARGES


@<TRIPOS>ATOM
      1 N1         -0.6779   -0.2997   -0.1921 N.am       1 <1>        0.000
      2 C1         -0.7122    1.1400   -0.3158 C.3        1 <1>        0.000
      3 C2          0.3795   -1.0701   -0.5023 C.2        1 <1>        0.000
      4 C3         -1.8915   -0.5180    0.3262 C.2        1 <1>        0.000
      5 C4         -2.0922    0.9820    0.3825 C.3        1 <1>        0.000
      6 S1          0.7724    1.7974    0.4310 S.3        1 <1>        0.000
      7 C5          1.5743   -0.5189   -0.8407 C.2        1 <1>        0.000
      8 C6          0.2148   -2.5404   -0.4140 C.2        1 <1>        0.000
      9 O1         -2.5482   -1.4823    0.6333 O.2        1 <1>        0.000
     10 C7          1.7995    0.9849   -0.8094 C.3        1 <1>        0.000
     11 C8          2.7027   -1.3646   -1.2082 C.2        1 <1>        0.000
     12 O2          1.0334   -3.2222    0.1801 O.2        1 <1>        0.000
     13 O3         -0.8520   -3.1142   -0.9853 O.3        1 <1>        0.000
     14 C10         3.9256   -1.2149   -0.6952 C.2        1 <1>        0.000
     15 H          -0.6820    1.8026   -1.1807 H.spc      1 <1>        0.000
     16 H          -2.9883    1.4463   -0.0292 H.spc      1 <1>        0.000
     17 H          -2.3081    1.4865    1.3243 H.spc      1 <1>        0.000
     18 H           1.5366    1.3890   -1.7870 H.spc      1 <1>        0.000
     19 H           2.8445    1.1676   -0.5589 H.spc      1 <1>        0.000
     20 H           2.5400   -2.1581   -1.9376 H.spc      1 <1>        0.000
     21 H          -1.3894   -2.4396   -1.4068 H.spc      1 <1>        0.000
     22 H           4.1174   -0.4298    0.0362 H.spc      1 <1>        0.000
     23 H           4.7326   -1.8777   -1.0076 H.spc      1 <1>        0.000
@<TRIPOS>BOND
     1    2    5 1  
     2    8   12 2  
     3    3    8 1  
     4    1    2 1  
     5    7   10 1  
     6    2    6 1  
     7    1    3 1  
     8    8   13 1  
     9   11   14 2  
    10    4    5 1  
    11    3    7 2  
    12    1    4 am 
    13    4    9 2  
    14    7   11 1  
    15    6   10 1  
    16    2   15 1  
    17    5   16 1  
    18    5   17 1  
    19   10   18 1  
    20   10   19 1  
    21   11   20 1  
    22   13   21 1  
    23   14   22 1  
    24   14   23 1  
# Name:          frag5-660-67/138278
# Creation time: Sat Jun  5 12:51:51 2010


@<TRIPOS>MOLECULE
frag5-660-67/138278
   23    24     1     1     1
SMALL
USER_CHARGES


@<TRIPOS>ATOM
      1 N1         -0.6587   -0.3014   -0.1638 N.am       1 <1>        0.000
      2 C1         -0.6962    1.1313   -0.3478 C.3        1 <1>        0.000
      3 C2          0.4249   -1.0721   -0.3693 C.2        1 <1>        0.000
      4 C3         -1.9044   -0.5135    0.2721 C.2        1 <1>        0.000
      5 C4         -2.1214    0.9855    0.2603 C.3        1 <1>        0.000
      6 S1          0.7267    1.8316    0.4808 S.3        1 <1>        0.000
      7 C5          1.6343   -0.5204   -0.6435 C.2        1 <1>        0.000
      8 C6          0.2634   -2.5392   -0.2419 C.2        1 <1>        0.000
      9 O1         -2.5740   -1.4725    0.5708 O.2        1 <1>        0.000
     10 C7          1.8462    0.9854   -0.6561 C.3        1 <1>        0.000
     11 C8          2.7932   -1.3680   -0.9008 C.2        1 <1>        0.000
     12 O2          0.6132   -3.2764   -1.1497 O.2        1 <1>        0.000
     13 O3         -0.2711   -3.0537    0.8717 O.3        1 <1>        0.000
     14 C10         3.5522   -1.2575   -1.9928 C.2        1 <1>        0.000
     15 H          -0.6107    1.7587   -1.2350 H.spc      1 <1>        0.000
     16 H          -2.9909    1.4260   -0.2276 H.spc      1 <1>        0.000
     17 H          -2.4062    1.5216    1.1656 H.spc      1 <1>        0.000
     18 H           1.6498    1.3501   -1.6643 H.spc      1 <1>        0.000
     19 H           2.8702    1.1894   -0.3430 H.spc      1 <1>        0.000
     20 H           3.0520   -2.1292   -0.1648 H.spc      1 <1>        0.000
     21 H          -0.4889   -2.3427    1.4788 H.spc      1 <1>        0.000
     22 H           3.3174   -0.5053   -2.7459 H.spc      1 <1>        0.000
     23 H           4.4070   -1.9194   -2.1316 H.spc      1 <1>        0.000
@<TRIPOS>BOND
     1    2    5 1  
     2    8   12 2  
     3    3    8 1  
     4    1    2 1  
     5    7   10 1  
     6    2    6 1  
     7    1    3 1  
     8    8   13 1  
     9   11   14 2  
    10    4    5 1  
    11    3    7 2  
    12    1    4 am 
    13    4    9 2  
    14    7   11 1  
    15    6   10 1  
    16    2   15 1  
    17    5   16 1  
    18    5   17 1  
    19   10   18 1  
    20   10   19 1  
    21   11   20 1  
    22   13   21 1  
    23   14   22 1  
    24   14   23 1  
# Name:          frag5-660-67/138278
# Creation time: Sat Jun  5 12:51:51 2010


@<TRIPOS>MOLECULE
frag5-660-67/138278
   23    24     1     1     1
SMALL
USER_CHARGES


@<TRIPOS>ATOM
      1 N1         -0.6519   -0.2660   -0.1751 N.am       1 <1>        0.000
      2 C1         -0.7564    1.1741   -0.2298 C.3        1 <1>        0.000
      3 C2          0.4324   -0.9698   -0.5471 C.2        1 <1>        0.000
      4 C3         -1.8414   -0.5665    0.3557 C.2        1 <1>        0.000
      5 C4         -2.1101    0.9179    0.4938 C.3        1 <1>        0.000
      6 S1          0.7150    1.8635    0.5192 S.3        1 <1>        0.000
      7 C5          1.5902   -0.3458   -0.8856 C.2        1 <1>        0.000
      8 C6          0.3341   -2.4484   -0.5324 C.2        1 <1>        0.000
      9 O1         -2.4454   -1.5746    0.6314 O.2        1 <1>        0.000
     10 C7          1.7478    1.1625   -0.7862 C.3        1 <1>        0.000
     11 C8          2.7467   -1.1213   -1.3197 C.2        1 <1>        0.000
     12 O2          0.2968   -3.0689   -1.5834 O.2        1 <1>        0.000
     13 O3          0.2821   -3.0998    0.6351 O.3        1 <1>        0.000
     14 C10         3.2885   -2.0977   -0.5861 C.2        1 <1>        0.000
     15 H          -0.7788    1.8761   -1.0634 H.spc      1 <1>        0.000
     16 H          -3.0374    1.3598    0.1291 H.spc      1 <1>        0.000
     17 H          -2.3244    1.3646    1.4647 H.spc      1 <1>        0.000
     18 H           1.4424    1.6012   -1.7361 H.spc      1 <1>        0.000
     19 H           2.7895    1.3825   -0.5528 H.spc      1 <1>        0.000
     20 H           3.1902   -0.8934   -2.2890 H.spc      1 <1>        0.000
     21 H           0.3222   -2.4666    1.3556 H.spc      1 <1>        0.000
     22 H           2.8655   -2.3470    0.3871 H.spc      1 <1>        0.000
     23 H           4.1535   -2.6450   -0.9608 H.spc      1 <1>        0.000
@<TRIPOS>BOND
     1    2    5 1  
     2    8   12 2  
     3    3    8 1  
     4    1    2 1  
     5    7   10 1  
     6    2    6 1  
     7    1    3 1  
     8    8   13 1  
     9   11   14 2  
    10    4    5 1  
    11    3    7 2  
    12    1    4 am 
    13    4    9 2  
    14    7   11 1  
    15    6   10 1  
    16    2   15 1  
    17    5   16 1  
    18    5   17 1  
    19   10   18 1  
    20   10   19 1  
    21   11   20 1  
    22   13   21 1  
    23   14   22 1  
    24   14   23 1  
# Name:          frag5-660-67/138278
# Creation time: Sat Jun  5 12:51:51 2010


@<TRIPOS>MOLECULE
frag5-660-67/138278
   23    24     1     1     1
SMALL
USER_CHARGES


@<TRIPOS>ATOM
      1 N1         -0.6568   -0.2625   -0.2465 N.am       1 <1>        0.000
      2 C1         -0.7509    1.1780   -0.3155 C.3        1 <1>        0.000
      3 C2          0.4528   -0.9718   -0.5169 C.2        1 <1>        0.000
      4 C3         -1.8901   -0.5570    0.1807 C.2        1 <1>        0.000
      5 C4         -2.1637    0.9301    0.2823 C.3        1 <1>        0.000
      6 S1          0.6504    1.8684    0.5517 S.3        1 <1>        0.000
      7 C5          1.6406   -0.3544   -0.7538 C.2        1 <1>        0.000
      8 C6          0.3502   -2.4503   -0.4966 C.2        1 <1>        0.000
      9 O1         -2.5198   -1.5598    0.4067 O.2        1 <1>        0.000
     10 C7          1.7920    1.1546   -0.6484 C.3        1 <1>        0.000
     11 C8          2.8267   -1.1352   -1.0777 C.2        1 <1>        0.000
     12 O2          0.2186   -3.0426    0.5645 O.2        1 <1>        0.000
     13 O3          0.3799   -3.1304   -1.6476 O.3        1 <1>        0.000
     14 C10         3.2985   -2.1081   -0.2931 C.2        1 <1>        0.000
     15 H          -0.6966    1.8776   -1.1496 H.spc      1 <1>        0.000
     16 H          -3.0519    1.3715   -0.1698 H.spc      1 <1>        0.000
     17 H          -2.4633    1.3844    1.2267 H.spc      1 <1>        0.000
     18 H           1.5736    1.5874   -1.6247 H.spc      1 <1>        0.000
     19 H           2.8089    1.3724   -0.3218 H.spc      1 <1>        0.000
     20 H           3.3551   -0.9150   -2.0053 H.spc      1 <1>        0.000
     21 H           0.4881   -2.5167   -2.3779 H.spc      1 <1>        0.000
     22 H           2.7905   -2.3500    0.6404 H.spc      1 <1>        0.000
     23 H           4.1915   -2.6600   -0.5865 H.spc      1 <1>        0.000
@<TRIPOS>BOND
     1    2    5 1  
     2    8   12 2  
     3    3    8 1  
     4    1    2 1  
     5    7   10 1  
     6    2    6 1  
     7    1    3 1  
     8    8   13 1  
     9   11   14 2  
    10    4    5 1  
    11    3    7 2  
    12    1    4 am 
    13    4    9 2  
    14    7   11 1  
    15    6   10 1  
    16    2   15 1  
    17    5   16 1  
    18    5   17 1  
    19   10   18 1  
    20   10   19 1  
    21   11   20 1  
    22   13   21 1  
    23   14   22 1  
    24   14   23 1  
# Name:          frag5-660-67/138278
# Creation time: Sat Jun  5 12:51:51 2010


@<TRIPOS>MOLECULE
frag5-660-67/138278
   23    24     1     1     1
SMALL
USER_CHARGES


@<TRIPOS>ATOM
      1 N1         -0.6803   -0.3044   -0.2503 N.am       1 <1>        0.000
      2 C1         -0.6877    1.1259   -0.4547 C.3        1 <1>        0.000
      3 C2          0.4076   -1.0889   -0.3583 C.2        1 <1>        0.000
      4 C3         -1.9595   -0.4985    0.0903 C.2        1 <1>        0.000
      5 C4         -2.1573    1.0030    0.0374 C.3        1 <1>        0.000
      6 S1          0.6731    1.8249    0.4703 S.3        1 <1>        0.000
      7 C5          1.6414   -0.5545   -0.5427 C.2        1 <1>        0.000
      8 C6          0.2189   -2.5519   -0.2187 C.2        1 <1>        0.000
      9 O1         -2.6614   -1.4446    0.3474 O.2        1 <1>        0.000
     10 C7          1.8684    0.9499   -0.5587 C.3        1 <1>        0.000
     11 C8          2.8069   -1.4160   -0.6937 C.2        1 <1>        0.000
     12 O2         -0.2726   -3.0119    0.8016 O.2        1 <1>        0.000
     13 O3          0.5803   -3.3668   -1.2148 O.3        1 <1>        0.000
     14 C10         3.8504   -1.1072   -1.4650 C.2        1 <1>        0.000
     15 H          -0.5253    1.7411   -1.3397 H.spc      1 <1>        0.000
     16 H          -2.9792    1.4436   -0.5269 H.spc      1 <1>        0.000
     17 H          -2.5080    1.5562    0.9086 H.spc      1 <1>        0.000
     18 H           1.7561    1.3006   -1.5846 H.spc      1 <1>        0.000
     19 H           2.8657    1.1482   -0.1661 H.spc      1 <1>        0.000
     20 H           2.8270   -2.3600   -0.1491 H.spc      1 <1>        0.000
     21 H           0.9455   -2.8476   -1.9350 H.spc      1 <1>        0.000
     22 H           3.8584   -0.1700   -2.0215 H.spc      1 <1>        0.000
     23 H           4.6951   -1.7921   -1.5388 H.spc      1 <1>        0.000
@<TRIPOS>BOND
     1    2    5 1  
     2    8   12 2  
     3    3    8 1  
     4    1    2 1  
     5    7   10 1  
     6    2    6 1  
     7    1    3 1  
     8    8   13 1  
     9   11   14 2  
    10    4    5 1  
    11    3    7 2  
    12    1    4 am 
    13    4    9 2  
    14    7   11 1  
    15    6   10 1  
    16    2   15 1  
    17    5   16 1  
    18    5   17 1  
    19   10   18 1  
    20   10   19 1  
    21   11   20 1  
    22   13   21 1  
    23   14   22 1  
    24   14   23 1  
# Name:          frag5-660-67/138278 -- energy: -3.246701
# Creation time: Sat Jun  5 12:51:51 2010


@<TRIPOS>MOLECULE
frag5-660-67/138278 -- energy: -3.246701
   23    24     1     1     1
SMALL
USER_CHARGES


@<TRIPOS>ATOM
      1 N1         -0.6409   -0.2637   -0.2171 N.am       1 <1>        0.000
      2 C1         -0.7331    1.1702   -0.3591 C.3        1 <1>        0.000
      3 C2          0.4915   -0.9772   -0.3747 C.2        1 <1>        0.000
      4 C3         -1.8987   -0.5461    0.1262 C.2        1 <1>        0.000
      5 C4         -2.1888    0.9394    0.1541 C.3        1 <1>        0.000
      6 S1          0.5970    1.9030    0.5953 S.3        1 <1>        0.000
      7 C5          1.6847   -0.3594   -0.5487 C.2        1 <1>        0.000
      8 C6          0.3882   -2.4523   -0.3083 C.2        1 <1>        0.000
      9 O1         -2.5420   -1.5476    0.3465 O.2        1 <1>        0.000
     10 C7          1.8296    1.1517   -0.4978 C.3        1 <1>        0.000
     11 C8          2.8990   -1.1479   -0.7567 C.2        1 <1>        0.000
     12 O2         -0.4417   -3.0359   -0.9923 O.2        1 <1>        0.000
     13 O3          1.1915   -3.1566    0.4926 O.3        1 <1>        0.000
     14 C10         2.9920   -2.1185   -1.6701 C.2        1 <1>        0.000
     15 H          -0.6188    1.8280   -1.2207 H.spc      1 <1>        0.000
     16 H          -3.0476    1.3590   -0.3699 H.spc      1 <1>        0.000
     17 H          -2.5556    1.4282    1.0566 H.spc      1 <1>        0.000
     18 H           1.6837    1.5457   -1.5036 H.spc      1 <1>        0.000
     19 H           2.8214    1.3898   -0.1135 H.spc      1 <1>        0.000
     20 H           3.7696   -0.9334   -0.1369 H.spc      1 <1>        0.000
     21 H           1.7810   -2.5590    0.9584 H.spc      1 <1>        0.000
     22 H           2.1370   -2.3544   -2.3037 H.spc      1 <1>        0.000
     23 H           3.9229   -2.6745   -1.7817 H.spc      1 <1>        0.000
@<TRIPOS>BOND
     1    2    5 1  
     2    8   12 2  
     3    3    8 1  
     4    1    2 1  
     5    7   10 1  
     6    2    6 1  
     7    1    3 1  
     8    8   13 1  
     9   11   14 2  
    10    4    5 1  
    11    3    7 2  
    12    1    4 am 
    13    4    9 2  
    14    7   11 1  
    15    6   10 1  
    16    2   15 1  
    17    5   16 1  
    18    5   17 1  
    19   10   18 1  
    20   10   19 1  
    21   11   20 1  
    22   13   21 1  
    23   14   22 1  
    24   14   23 1  
# Name:          frag5-660-67/138278 -- energy: -3.198021
# Creation time: Sat Jun  5 12:51:51 2010


@<TRIPOS>MOLECULE
frag5-660-67/138278 -- energy: -3.198021
   23    24     1     1     1
SMALL
USER_CHARGES


@<TRIPOS>ATOM
      1 N1         -0.6888   -0.2933   -0.2107 N.am       1 <1>        0.000
      2 C1         -0.7107    1.1449   -0.3364 C.3        1 <1>        0.000
      3 C2          0.3724   -1.0713   -0.5040 C.2        1 <1>        0.000
      4 C3         -1.9120   -0.5040    0.2782 C.2        1 <1>        0.000
      5 C4         -2.1068    0.9957    0.3449 C.3        1 <1>        0.000
      6 S1          0.7645    1.7876    0.4561 S.3        1 <1>        0.000
      7 C5          1.5707   -0.5241   -0.8165 C.2        1 <1>        0.000
      8 C6          0.1890   -2.5381   -0.4303 C.2        1 <1>        0.000
      9 O1         -2.5839   -1.4678    0.5701 O.2        1 <1>        0.000
     10 C7          1.8118    0.9759   -0.7776 C.3        1 <1>        0.000
     11 C8          2.7038   -1.3801   -1.1675 C.2        1 <1>        0.000
     12 O2         -0.7496   -3.0644   -1.0127 O.2        1 <1>        0.000
     13 O3          1.0373   -3.2969    0.2676 O.3        1 <1>        0.000
     14 C10         3.9306   -1.2051   -0.6713 C.2        1 <1>        0.000
     15 H          -0.6595    1.8035   -1.2034 H.spc      1 <1>        0.000
     16 H          -2.9946    1.4709   -0.0724 H.spc      1 <1>        0.000
     17 H          -2.3344    1.4962    1.2861 H.spc      1 <1>        0.000
     18 H           1.5725    1.3887   -1.7576 H.spc      1 <1>        0.000
     19 H           2.8546    1.1503   -0.5124 H.spc      1 <1>        0.000
     20 H           2.5386   -2.1994   -1.8672 H.spc      1 <1>        0.000
     21 H           1.7127   -2.7402    0.6620 H.spc      1 <1>        0.000
     22 H           4.1241   -0.3937    0.0303 H.spc      1 <1>        0.000
     23 H           4.7389   -1.8736   -0.9677 H.spc      1 <1>        0.000
@<TRIPOS>BOND
     1    2    5 1  
     2    8   12 2  
     3    3    8 1  
     4    1    2 1  
     5    7   10 1  
     6    2    6 1  
     7    1    3 1  
     8    8   13 1  
     9   11   14 2  
    10    4    5 1  
    11    3    7 2  
    12    1    4 am 
    13    4    9 2  
    14    7   11 1  
    15    6   10 1  
    16    2   15 1  
    17    5   16 1  
    18    5   17 1  
    19   10   18 1  
    20   10   19 1  
    21   11   20 1  
    22   13   21 1  
    23   14   22 1  
    24   14   23 1  
# Name:          frag5-660-67/138278 -- energy: -3.403283
# Creation time: Sat Jun  5 12:51:51 2010


@<TRIPOS>MOLECULE
frag5-660-67/138278 -- energy: -3.403283
   23    24     1     1     1
SMALL
USER_CHARGES


@<TRIPOS>ATOM
      1 N1         -0.6362   -0.2760   -0.2113 N.am       1 <1>        0.000
      2 C1         -0.7324    1.1571   -0.3729 C.3        1 <1>        0.000
      3 C2          0.4943   -0.9888   -0.3549 C.2        1 <1>        0.000
      4 C3         -1.8960   -0.5560    0.1416 C.2        1 <1>        0.000
      5 C4         -2.1846    0.9309    0.1336 C.3        1 <1>        0.000
      6 S1          0.5966    1.9112    0.5536 S.3        1 <1>        0.000
      7 C5          1.6934   -0.3744   -0.5387 C.2        1 <1>        0.000
      8 C6          0.4004   -2.4648   -0.2547 C.2        1 <1>        0.000
      9 O1         -2.5346   -1.5509    0.3792 O.2        1 <1>        0.000
     10 C7          1.8284    1.1392   -0.5146 C.3        1 <1>        0.000
     11 C8          2.9047   -1.1608   -0.7313 C.2        1 <1>        0.000
     12 O2          1.1653   -3.0883    0.4623 O.2        1 <1>        0.000
     13 O3         -0.5432   -3.1080   -0.9548 O.3        1 <1>        0.000
     14 C10         3.0722   -2.0114   -1.7474 C.2        1 <1>        0.000
     15 H          -0.6199    1.8064   -1.2411 H.spc      1 <1>        0.000
     16 H          -3.0395    1.3358   -0.4080 H.spc      1 <1>        0.000
     17 H          -2.5556    1.4374    1.0246 H.spc      1 <1>        0.000
     18 H           1.6807    1.5106   -1.5287 H.spc      1 <1>        0.000
     19 H           2.8172    1.3869   -0.1287 H.spc      1 <1>        0.000
     20 H           3.7145   -1.0494   -0.0103 H.spc      1 <1>        0.000
     21 H          -1.0533   -2.4720   -1.4617 H.spc      1 <1>        0.000
     22 H           2.2796   -2.1435   -2.4839 H.spc      1 <1>        0.000
     23 H           4.0015   -2.5734   -1.8401 H.spc      1 <1>        0.000
@<TRIPOS>BOND
     1    2    5 1  
     2    8   12 2  
     3    3    8 1  
     4    1    2 1  
     5    7   10 1  
     6    2    6 1  
     7    1    3 1  
     8    8   13 1  
     9   11   14 2  
    10    4    5 1  
    11    3    7 2  
    12    1    4 am 
    13    4    9 2  
    14    7   11 1  
    15    6   10 1  
    16    2   15 1  
    17    5   16 1  
    18    5   17 1  
    19   10   18 1  
    20   10   19 1  
    21   11   20 1  
    22   13   21 1  
    23   14   22 1  
    24   14   23 1  
# Name:          frag5-660-67/138278 -- energy: -3.259696
# Creation time: Sat Jun  5 12:51:51 2010


@<TRIPOS>MOLECULE
frag5-660-67/138278 -- energy: -3.259696
   23    24     1     1     1
SMALL
USER_CHARGES


@<TRIPOS>ATOM
      1 N1         -0.6779   -0.2997   -0.1921 N.am       1 <1>        0.000
      2 C1         -0.7122    1.1400   -0.3158 C.3        1 <1>        0.000
      3 C2          0.3795   -1.0701   -0.5023 C.2        1 <1>        0.000
      4 C3         -1.8915   -0.5180    0.3262 C.2        1 <1>        0.000
      5 C4         -2.0922    0.9820    0.3825 C.3        1 <1>        0.000
      6 S1          0.7724    1.7974    0.4310 S.3        1 <1>        0.000
      7 C5          1.5743   -0.5189   -0.8407 C.2        1 <1>        0.000
      8 C6          0.2148   -2.5404   -0.4140 C.2        1 <1>        0.000
      9 O1         -2.5482   -1.4823    0.6333 O.2        1 <1>        0.000
     10 C7          1.7995    0.9849   -0.8094 C.3        1 <1>        0.000
     11 C8          2.7027   -1.3646   -1.2082 C.2        1 <1>        0.000
     12 O2          1.0334   -3.2222    0.1801 O.2        1 <1>        0.000
     13 O3         -0.8520   -3.1142   -0.9853 O.3        1 <1>        0.000
     14 C10         3.9256   -1.2149   -0.6952 C.2        1 <1>        0.000
     15 H          -0.6820    1.8026   -1.1807 H.spc      1 <1>        0.000
     16 H          -2.9883    1.4463   -0.0292 H.spc      1 <1>        0.000
     17 H          -2.3081    1.4865    1.3243 H.spc      1 <1>        0.000
     18 H           1.5366    1.3890   -1.7870 H.spc      1 <1>        0.000
     19 H           2.8445    1.1676   -0.5589 H.spc      1 <1>        0.000
     20 H           2.5400   -2.1581   -1.9376 H.spc      1 <1>        0.000
     21 H          -1.3894   -2.4396   -1.4068 H.spc      1 <1>        0.000
     22 H           4.1174   -0.4298    0.0362 H.spc      1 <1>        0.000
     23 H           4.7326   -1.8777   -1.0076 H.spc      1 <1>        0.000
@<TRIPOS>BOND
     1    2    5 1  
     2    8   12 2  
     3    3    8 1  
     4    1    2 1  
     5    7   10 1  
     6    2    6 1  
     7    1    3 1  
     8    8   13 1  
     9   11   14 2  
    10    4    5 1  
    11    3    7 2  
    12    1    4 am 
    13    4    9 2  
    14    7   11 1  
    15    6   10 1  
    16    2   15 1  
    17    5   16 1  
    18    5   17 1  
    19   10   18 1  
    20   10   19 1  
    21   11   20 1  
    22   13   21 1  
    23   14   22 1  
    24   14   23 1  
# Name:          frag5-660-67/138278 -- energy: -3.368765
# Creation time: Sat Jun  5 12:51:51 2010


@<TRIPOS>MOLECULE
frag5-660-67/138278 -- energy: -3.368765
   23    24     1     1     1
SMALL
USER_CHARGES


@<TRIPOS>ATOM
      1 N1         -0.6587   -0.3014   -0.1638 N.am       1 <1>        0.000
      2 C1         -0.6962    1.1313   -0.3478 C.3        1 <1>        0.000
      3 C2          0.4249   -1.0721   -0.3693 C.2        1 <1>        0.000
      4 C3         -1.9044   -0.5135    0.2721 C.2        1 <1>        0.000
      5 C4         -2.1214    0.9855    0.2603 C.3        1 <1>        0.000
      6 S1          0.7267    1.8316    0.4808 S.3        1 <1>        0.000
      7 C5          1.6343   -0.5204   -0.6435 C.2        1 <1>        0.000
      8 C6          0.2634   -2.5392   -0.2419 C.2        1 <1>        0.000
      9 O1         -2.5740   -1.4725    0.5708 O.2        1 <1>        0.000
     10 C7          1.8462    0.9854   -0.6561 C.3        1 <1>        0.000
     11 C8          2.7932   -1.3680   -0.9008 C.2        1 <1>        0.000
     12 O2          0.6132   -3.2764   -1.1497 O.2        1 <1>        0.000
     13 O3         -0.2711   -3.0537    0.8717 O.3        1 <1>        0.000
     14 C10         3.5522   -1.2575   -1.9928 C.2        1 <1>        0.000
     15 H          -0.6107    1.7587   -1.2350 H.spc      1 <1>        0.000
     16 H          -2.9909    1.4260   -0.2276 H.spc      1 <1>        0.000
     17 H          -2.4062    1.5216    1.1656 H.spc      1 <1>        0.000
     18 H           1.6498    1.3501   -1.6643 H.spc      1 <1>        0.000
     19 H           2.8702    1.1894   -0.3430 H.spc      1 <1>        0.000
     20 H           3.0520   -2.1292   -0.1648 H.spc      1 <1>        0.000
     21 H          -0.4889   -2.3427    1.4788 H.spc      1 <1>        0.000
     22 H           3.3174   -0.5053   -2.7459 H.spc      1 <1>        0.000
     23 H           4.4070   -1.9194   -2.1316 H.spc      1 <1>        0.000
@<TRIPOS>BOND
     1    2    5 1  
     2    8   12 2  
     3    3    8 1  
     4    1    2 1  
     5    7   10 1  
     6    2    6 1  
     7    1    3 1  
     8    8   13 1  
     9   11   14 2  
    10    4    5 1  
    11    3    7 2  
    12    1    4 am 
    13    4    9 2  
    14    7   11 1  
    15    6   10 1  
    16    2   15 1  
    17    5   16 1  
    18    5   17 1  
    19   10   18 1  
    20   10   19 1  
    21   11   20 1  
    22   13   21 1  
    23   14   22 1  
    24   14   23 1  
# Name:          frag5-660-67/138278 -- energy: -3.693928
# Creation time: Sat Jun  5 12:51:51 2010


@<TRIPOS>MOLECULE
frag5-660-67/138278 -- energy: -3.693928
   23    24     1     1     1
SMALL
USER_CHARGES


@<TRIPOS>ATOM
      1 N1         -0.6519   -0.2660   -0.1751 N.am       1 <1>        0.000
      2 C1         -0.7564    1.1741   -0.2298 C.3        1 <1>        0.000
      3 C2          0.4324   -0.9698   -0.5471 C.2        1 <1>        0.000
      4 C3         -1.8414   -0.5665    0.3557 C.2        1 <1>        0.000
      5 C4         -2.1101    0.9179    0.4938 C.3        1 <1>        0.000
      6 S1          0.7150    1.8635    0.5192 S.3        1 <1>        0.000
      7 C5          1.5902   -0.3458   -0.8856 C.2        1 <1>        0.000
      8 C6          0.3341   -2.4484   -0.5324 C.2        1 <1>        0.000
      9 O1         -2.4454   -1.5746    0.6314 O.2        1 <1>        0.000
     10 C7          1.7478    1.1625   -0.7862 C.3        1 <1>        0.000
     11 C8          2.7467   -1.1213   -1.3197 C.2        1 <1>        0.000
     12 O2          0.2968   -3.0689   -1.5834 O.2        1 <1>        0.000
     13 O3          0.2821   -3.0998    0.6351 O.3        1 <1>        0.000
     14 C10         3.2885   -2.0977   -0.5861 C.2        1 <1>        0.000
     15 H          -0.7788    1.8761   -1.0634 H.spc      1 <1>        0.000
     16 H          -3.0374    1.3598    0.1291 H.spc      1 <1>        0.000
     17 H          -2.3244    1.3646    1.4647 H.spc      1 <1>        0.000
     18 H           1.4424    1.6012   -1.7361 H.spc      1 <1>        0.000
     19 H           2.7895    1.3825   -0.5528 H.spc      1 <1>        0.000
     20 H           3.1902   -0.8934   -2.2890 H.spc      1 <1>        0.000
     21 H           0.3222   -2.4666    1.3556 H.spc      1 <1>        0.000
     22 H           2.8655   -2.3470    0.3871 H.spc      1 <1>        0.000
     23 H           4.1535   -2.6450   -0.9608 H.spc      1 <1>        0.000
@<TRIPOS>BOND
     1    2    5 1  
     2    8   12 2  
     3    3    8 1  
     4    1    2 1  
     5    7   10 1  
     6    2    6 1  
     7    1    3 1  
     8    8   13 1  
     9   11   14 2  
    10    4    5 1  
    11    3    7 2  
    12    1    4 am 
    13    4    9 2  
    14    7   11 1  
    15    6   10 1  
    16    2   15 1  
    17    5   16 1  
    18    5   17 1  
    19   10   18 1  
    20   10   19 1  
    21   11   20 1  
    22   13   21 1  
    23   14   22 1  
    24   14   23 1  
# Name:          frag5-660-67/138278 -- energy: -3.603631
# Creation time: Sat Jun  5 12:51:51 2010


@<TRIPOS>MOLECULE
frag5-660-67/138278 -- energy: -3.603631
   23    24     1     1     1
SMALL
USER_CHARGES


@<TRIPOS>ATOM
      1 N1         -0.6568   -0.2625   -0.2465 N.am       1 <1>        0.000
      2 C1         -0.7509    1.1780   -0.3155 C.3        1 <1>        0.000
      3 C2          0.4528   -0.9718   -0.5169 C.2        1 <1>        0.000
      4 C3         -1.8901   -0.5570    0.1807 C.2        1 <1>        0.000
      5 C4         -2.1637    0.9301    0.2823 C.3        1 <1>        0.000
      6 S1          0.6504    1.8684    0.5517 S.3        1 <1>        0.000
      7 C5          1.6406   -0.3544   -0.7538 C.2        1 <1>        0.000
      8 C6          0.3502   -2.4503   -0.4966 C.2        1 <1>        0.000
      9 O1         -2.5198   -1.5598    0.4067 O.2        1 <1>        0.000
     10 C7          1.7920    1.1546   -0.6484 C.3        1 <1>        0.000
     11 C8          2.8267   -1.1352   -1.0777 C.2        1 <1>        0.000
     12 O2          0.2186   -3.0426    0.5645 O.2        1 <1>        0.000
     13 O3          0.3799   -3.1304   -1.6476 O.3        1 <1>        0.000
     14 C10         3.2985   -2.1081   -0.2931 C.2        1 <1>        0.000
     15 H          -0.6966    1.8776   -1.1496 H.spc      1 <1>        0.000
     16 H          -3.0519    1.3715   -0.1698 H.spc      1 <1>        0.000
     17 H          -2.4633    1.3844    1.2267 H.spc      1 <1>        0.000
     18 H           1.5736    1.5874   -1.6247 H.spc      1 <1>        0.000
     19 H           2.8089    1.3724   -0.3218 H.spc      1 <1>        0.000
     20 H           3.3551   -0.9150   -2.0053 H.spc      1 <1>        0.000
     21 H           0.4881   -2.5167   -2.3779 H.spc      1 <1>        0.000
     22 H           2.7905   -2.3500    0.6404 H.spc      1 <1>        0.000
     23 H           4.1915   -2.6600   -0.5865 H.spc      1 <1>        0.000
@<TRIPOS>BOND
     1    2    5 1  
     2    8   12 2  
     3    3    8 1  
     4    1    2 1  
     5    7   10 1  
     6    2    6 1  
     7    1    3 1  
     8    8   13 1  
     9   11   14 2  
    10    4    5 1  
    11    3    7 2  
    12    1    4 am 
    13    4    9 2  
    14    7   11 1  
    15    6   10 1  
    16    2   15 1  
    17    5   16 1  
    18    5   17 1  
    19   10   18 1  
    20   10   19 1  
    21   11   20 1  
    22   13   21 1  
    23   14   22 1  
    24   14   23 1  
# Name:          frag5-660-67/138278 -- energy: -3.409348
# Creation time: Sat Jun  5 12:51:51 2010


@<TRIPOS>MOLECULE
frag5-660-67/138278 -- energy: -3.409348
   23    24     1     1     1
SMALL
USER_CHARGES


@<TRIPOS>ATOM
      1 N1         -0.6803   -0.3044   -0.2503 N.am       1 <1>        0.000
      2 C1         -0.6877    1.1259   -0.4547 C.3        1 <1>        0.000
      3 C2          0.4076   -1.0889   -0.3583 C.2        1 <1>        0.000
      4 C3         -1.9595   -0.4985    0.0903 C.2        1 <1>        0.000
      5 C4         -2.1573    1.0030    0.0374 C.3        1 <1>        0.000
      6 S1          0.6731    1.8249    0.4703 S.3        1 <1>        0.000
      7 C5          1.6414   -0.5545   -0.5427 C.2        1 <1>        0.000
      8 C6          0.2189   -2.5519   -0.2187 C.2        1 <1>        0.000
      9 O1         -2.6614   -1.4446    0.3474 O.2        1 <1>        0.000
     10 C7          1.8684    0.9499   -0.5587 C.3        1 <1>        0.000
     11 C8          2.8069   -1.4160   -0.6937 C.2        1 <1>        0.000
     12 O2         -0.2726   -3.0119    0.8016 O.2        1 <1>        0.000
     13 O3          0.5803   -3.3668   -1.2148 O.3        1 <1>        0.000
     14 C10         3.8504   -1.1072   -1.4650 C.2        1 <1>        0.000
     15 H          -0.5253    1.7411   -1.3397 H.spc      1 <1>        0.000
     16 H          -2.9792    1.4436   -0.5269 H.spc      1 <1>        0.000
     17 H          -2.5080    1.5562    0.9086 H.spc      1 <1>        0.000
     18 H           1.7561    1.3006   -1.5846 H.spc      1 <1>        0.000
     19 H           2.8657    1.1482   -0.1661 H.spc      1 <1>        0.000
     20 H           2.8270   -2.3600   -0.1491 H.spc      1 <1>        0.000
     21 H           0.9455   -2.8476   -1.9350 H.spc      1 <1>        0.000
     22 H           3.8584   -0.1700   -2.0215 H.spc      1 <1>        0.000
     23 H           4.6951   -1.7921   -1.5388 H.spc      1 <1>        0.000
@<TRIPOS>BOND
     1    2    5 1  
     2    8   12 2  
     3    3    8 1  
     4    1    2 1  
     5    7   10 1  
     6    2    6 1  
     7    1    3 1  
     8    8   13 1  
     9   11   14 2  
    10    4    5 1  
    11    3    7 2  
    12    1    4 am 
    13    4    9 2  
    14    7   11 1  
    15    6   10 1  
    16    2   15 1  
    17    5   16 1  
    18    5   17 1  
    19   10   18 1  
    20   10   19 1  
    21   11   20 1  
    22   13   21 1  
    23   14   22 1  
    24   14   23 1  
