#      Rotatable Fragment
#      Build by yxyuan
#
# Name:          frag5-610-95/138278
# Creation time: Sat Jun  5 12:53:46 2010


@<TRIPOS>MOLECULE
frag5-610-95/138278
   21    22     1     1     1
SMALL
USER_CHARGES


@<TRIPOS>ATOM
      1 C1         -2.2985    0.5185   -0.1362 C.ar       1 <1>        0.000
      2 C2         -2.4851   -0.8823   -0.0586 C.ar       1 <1>        0.000
      3 O1         -1.0316    1.0729   -0.0728 O.3        1 <1>        0.000
      4 C3         -3.4180    1.3370   -0.2740 C.ar       1 <1>        0.000
      5 C4         -1.3003   -1.8149    0.1363 C.3        1 <1>        0.000
      6 C5         -3.7772   -1.4057   -0.1550 C.ar       1 <1>        0.000
      7 C6          0.1141    0.3306    0.3392 C.3        1 <1>        0.000
      8 C7         -4.7156    0.8269   -0.3431 C.ar       1 <1>        0.000
      9 C8         -0.3393   -0.9811    1.0115 C.3        1 <1>        0.000
     10 C9         -4.8744   -0.5688   -0.2995 C.ar       1 <1>        0.000
     11 O2         -5.7910    1.6817   -0.4523 O.3        1 <1>        0.000
     12 H          -3.2750    2.4161   -0.3299 H.spc      1 <1>        0.000
     13 H          -1.5800   -2.7606    0.6005 H.spc      1 <1>        0.000
     14 H          -0.8494   -2.1264   -0.8059 H.spc      1 <1>        0.000
     15 H          -3.9250   -2.4849   -0.1162 H.spc      1 <1>        0.000
     16 H           0.6945    0.9210    1.0482 H.spc      1 <1>        0.000
     17 H           0.7300    0.0999   -0.5300 H.spc      1 <1>        0.000
     18 H           0.5506   -1.5844    1.1907 H.spc      1 <1>        0.000
     19 H          -0.8714   -0.7164    1.9252 H.spc      1 <1>        0.000
     20 H          -5.8725   -0.9994   -0.3803 H.spc      1 <1>        0.000
     21 H          -6.6026    1.1702   -0.4877 H.spc      1 <1>        0.000
@<TRIPOS>BOND
     1    5    9 1  
     2    4    8 ar 
     3    6   10 ar 
     4    8   10 ar 
     5    2    6 ar 
     6    3    7 1  
     7    7    9 1  
     8    1    2 ar 
     9    1    3 1  
    10    1    4 ar 
    11    2    5 1  
    12    8   11 1  
    13    4   12 1  
    14    5   13 1  
    15    5   14 1  
    16    6   15 1  
    17    7   16 1  
    18    7   17 1  
    19    9   18 1  
    20    9   19 1  
    21   10   20 1  
    22   11   21 1  
# Name:          frag5-610-95/138278 -- energy: -1.051862
# Creation time: Sat Jun  5 12:53:46 2010


@<TRIPOS>MOLECULE
frag5-610-95/138278 -- energy: -1.051862
   21    22     1     1     1
SMALL
USER_CHARGES


@<TRIPOS>ATOM
      1 C1         -2.2985    0.5185   -0.1362 C.ar       1 <1>        0.000
      2 C2         -2.4851   -0.8823   -0.0586 C.ar       1 <1>        0.000
      3 O1         -1.0316    1.0729   -0.0728 O.3        1 <1>        0.000
      4 C3         -3.4180    1.3370   -0.2740 C.ar       1 <1>        0.000
      5 C4         -1.3003   -1.8149    0.1363 C.3        1 <1>        0.000
      6 C5         -3.7772   -1.4057   -0.1550 C.ar       1 <1>        0.000
      7 C6          0.1141    0.3306    0.3392 C.3        1 <1>        0.000
      8 C7         -4.7156    0.8269   -0.3431 C.ar       1 <1>        0.000
      9 C8         -0.3393   -0.9811    1.0115 C.3        1 <1>        0.000
     10 C9         -4.8744   -0.5688   -0.2995 C.ar       1 <1>        0.000
     11 O2         -5.7910    1.6817   -0.4523 O.3        1 <1>        0.000
     12 H          -3.2750    2.4161   -0.3299 H.spc      1 <1>        0.000
     13 H          -1.5800   -2.7606    0.6005 H.spc      1 <1>        0.000
     14 H          -0.8494   -2.1264   -0.8059 H.spc      1 <1>        0.000
     15 H          -3.9250   -2.4849   -0.1162 H.spc      1 <1>        0.000
     16 H           0.6945    0.9210    1.0482 H.spc      1 <1>        0.000
     17 H           0.7300    0.0999   -0.5300 H.spc      1 <1>        0.000
     18 H           0.5506   -1.5844    1.1907 H.spc      1 <1>        0.000
     19 H          -0.8714   -0.7164    1.9252 H.spc      1 <1>        0.000
     20 H          -5.8725   -0.9994   -0.3803 H.spc      1 <1>        0.000
     21 H          -6.6026    1.1702   -0.4877 H.spc      1 <1>        0.000
@<TRIPOS>BOND
     1    5    9 1  
     2    4    8 ar 
     3    6   10 ar 
     4    8   10 ar 
     5    2    6 ar 
     6    3    7 1  
     7    7    9 1  
     8    1    2 ar 
     9    1    3 1  
    10    1    4 ar 
    11    2    5 1  
    12    8   11 1  
    13    4   12 1  
    14    5   13 1  
    15    5   14 1  
    16    6   15 1  
    17    7   16 1  
    18    7   17 1  
    19    9   18 1  
    20    9   19 1  
    21   10   20 1  
    22   11   21 1  
