#      Rotatable Fragment
#      Build by yxyuan
#
# Name:          frag4-332-182/48856
# Creation time: Sat Jun  5 12:52:51 2010


@<TRIPOS>MOLECULE
frag4-332-182/48856
   14    14     1     1     1
SMALL
USER_CHARGES


@<TRIPOS>ATOM
      1 N2         -2.4494    0.6767    0.3214 N.3        1 <1>        0.000
      2 C14        -3.1681    1.4152   -0.7152 C.3        1 <1>        0.000
      3 C15        -4.0622    0.3681   -1.3972 C.3        1 <1>        0.000
      4 C16        -4.4431   -0.5186   -0.2214 C.3        1 <1>        0.000
      5 C17        -3.1157   -0.6079    0.5464 C.3        1 <1>        0.000
      6 H          -2.4458    1.2168    1.1866 H.spc      1 <1>        0.000
      7 H          -2.4865    1.8882   -1.4222 H.spc      1 <1>        0.000
      8 H          -3.7514    2.2358   -0.2975 H.spc      1 <1>        0.000
      9 H          -3.5660   -0.1689   -2.2056 H.spc      1 <1>        0.000
     10 H          -4.9197    0.7977   -1.9151 H.spc      1 <1>        0.000
     11 H          -4.8377   -1.4897   -0.5203 H.spc      1 <1>        0.000
     12 H          -5.2634   -0.1195    0.3752 H.spc      1 <1>        0.000
     13 H          -3.2789   -0.7937    1.6080 H.spc      1 <1>        0.000
     14 H          -2.5065   -1.4415    0.1971 H.spc      1 <1>        0.000
@<TRIPOS>BOND
     1    1    2 1  
     2    1    5 1  
     3    2    3 1  
     4    3    4 1  
     5    4    5 1  
     6    1    6 1  
     7    2    7 1  
     8    2    8 1  
     9    3    9 1  
    10    3   10 1  
    11    4   11 1  
    12    4   12 1  
    13    5   13 1  
    14    5   14 1  
# Name:          frag4-332-182/48856 -- energy: -0.853903
# Creation time: Sat Jun  5 12:52:51 2010


@<TRIPOS>MOLECULE
frag4-332-182/48856 -- energy: -0.853903
   14    14     1     1     1
SMALL
USER_CHARGES


@<TRIPOS>ATOM
      1 N2         -2.4494    0.6767    0.3214 N.3        1 <1>        0.000
      2 C14        -3.1681    1.4152   -0.7152 C.3        1 <1>        0.000
      3 C15        -4.0622    0.3681   -1.3972 C.3        1 <1>        0.000
      4 C16        -4.4431   -0.5186   -0.2214 C.3        1 <1>        0.000
      5 C17        -3.1157   -0.6079    0.5464 C.3        1 <1>        0.000
      6 H          -2.4458    1.2168    1.1866 H.spc      1 <1>        0.000
      7 H          -2.4865    1.8882   -1.4222 H.spc      1 <1>        0.000
      8 H          -3.7514    2.2358   -0.2975 H.spc      1 <1>        0.000
      9 H          -3.5660   -0.1689   -2.2056 H.spc      1 <1>        0.000
     10 H          -4.9197    0.7977   -1.9151 H.spc      1 <1>        0.000
     11 H          -4.8377   -1.4897   -0.5203 H.spc      1 <1>        0.000
     12 H          -5.2634   -0.1195    0.3752 H.spc      1 <1>        0.000
     13 H          -3.2789   -0.7937    1.6080 H.spc      1 <1>        0.000
     14 H          -2.5065   -1.4415    0.1971 H.spc      1 <1>        0.000
@<TRIPOS>BOND
     1    1    2 1  
     2    1    5 1  
     3    2    3 1  
     4    3    4 1  
     5    4    5 1  
     6    1    6 1  
     7    2    7 1  
     8    2    8 1  
     9    3    9 1  
    10    3   10 1  
    11    4   11 1  
    12    4   12 1  
    13    5   13 1  
    14    5   14 1  
