#      Rotatable Fragment
#      Build by yxyuan
#
# Name:          frag4-460-37/48856
# Creation time: Sat Jun  5 12:52:48 2010


@<TRIPOS>MOLECULE
frag4-460-37/48856
   59    64     1     1     1
SMALL
USER_CHARGES


@<TRIPOS>ATOM
      1 C20        -2.1037    2.1418    0.5542 C.3        1 <1>        0.000
      2 C21        -2.0886    1.9655    2.0724 C.3        1 <1>        0.000
      3 C22        -0.9773    2.8070    2.6998 C.3        1 <1>        0.000
      4 C23         0.4284    2.5391    2.1124 C.3        1 <1>        0.000
      5 C24         1.5165    3.4531    2.7280 C.3        1 <1>        0.000
      6 C25         1.9177    3.0475    4.1698 C.3        1 <1>        0.000
      7 C26         3.0429    3.8986    4.7629 C.3        1 <1>        0.000
      8 C34         8.7746    3.0906    4.6929 C.3        1 <1>        0.000
      9 C27         4.2476    3.8995    3.8283 C.3        1 <1>        0.000
     10 C28         5.4515    4.7823    4.1881 C.3        1 <1>        0.000
     11 C29         6.4905    4.1752    5.1475 C.3        1 <1>        0.000
     12 C30         7.7841    4.1893    4.3328 C.3        1 <1>        0.000
     13 O16         8.4079    5.4790    4.4594 O.3        1 <1>        0.000
     14 C31         9.4381    6.0161    3.6677 C.3        1 <1>        0.000
     15 C32        10.5056    4.9487    3.8134 C.3        1 <1>        0.000
     16 C33         9.9323    3.5231    3.7791 C.3        1 <1>        0.000
     17 O17         7.2915    4.0440    2.9986 O.3        1 <1>        0.000
     18 C36         6.1935    4.9134    2.8311 C.3        1 <1>        0.000
     19 C37         5.2095    4.4990    1.7337 C.3        1 <1>        0.000
     20 C38         3.8563    4.4078    2.4368 C.3        1 <1>        0.000
     21 C39         2.7529    3.5483    1.8015 C.3        1 <1>        0.000
     22 C40         2.3436    4.0750    0.4200 C.3        1 <1>        0.000
     23 C41         1.2091    3.3012   -0.1545 C.2        1 <1>        0.000
     24 C42         0.3464    2.5822    0.5895 C.2        1 <1>        0.000
     25 C43        -0.7469    1.7710   -0.0448 C.3        1 <1>        0.000
     26 H          -2.8668    1.4888    0.1307 H.spc      1 <1>        0.000
     27 H          -2.3187    3.1849    0.3222 H.spc      1 <1>        0.000
     28 H          -3.0480    2.2898    2.4755 H.spc      1 <1>        0.000
     29 H          -1.9108    0.9155    2.3046 H.spc      1 <1>        0.000
     30 H          -1.2147    3.8524    2.5024 H.spc      1 <1>        0.000
     31 H          -0.9380    2.5504    3.7584 H.spc      1 <1>        0.000
     32 H           0.7570    1.5381    2.3918 H.spc      1 <1>        0.000
     33 H           1.0713    4.4446    2.8110 H.spc      1 <1>        0.000
     34 H           1.0400    3.1848    4.8013 H.spc      1 <1>        0.000
     35 H           2.2761    2.0189    4.1294 H.spc      1 <1>        0.000
     36 H           2.6885    4.9214    4.8906 H.spc      1 <1>        0.000
     37 H           3.3375    3.4813    5.7258 H.spc      1 <1>        0.000
     38 H           8.4163    2.0727    4.5397 H.spc      1 <1>        0.000
     39 H           9.0211    3.0152    5.7520 H.spc      1 <1>        0.000
     40 H           4.5492    2.8544    3.8985 H.spc      1 <1>        0.000
     41 H           5.0770    5.6799    4.6802 H.spc      1 <1>        0.000
     42 H           6.2171    3.1731    5.4780 H.spc      1 <1>        0.000
     43 H           6.5775    4.7372    6.0774 H.spc      1 <1>        0.000
     44 H           9.7624    7.0083    3.9815 H.spc      1 <1>        0.000
     45 H           9.1453    6.2075    2.6353 H.spc      1 <1>        0.000
     46 H          10.9892    5.0905    4.7799 H.spc      1 <1>        0.000
     47 H          11.1958    5.0508    2.9759 H.spc      1 <1>        0.000
     48 H          10.7657    2.9031    4.1095 H.spc      1 <1>        0.000
     49 H           9.5133    3.4388    2.7764 H.spc      1 <1>        0.000
     50 H           6.5433    5.9064    2.5487 H.spc      1 <1>        0.000
     51 H           5.4915    3.5527    1.2721 H.spc      1 <1>        0.000
     52 H           5.1925    5.2154    0.9124 H.spc      1 <1>        0.000
     53 H           3.3625    5.3787    2.3967 H.spc      1 <1>        0.000
     54 H           3.1657    2.5482    1.6689 H.spc      1 <1>        0.000
     55 H           3.1979    3.9779   -0.2500 H.spc      1 <1>        0.000
     56 H           2.0292    5.1130    0.5291 H.spc      1 <1>        0.000
     57 H           1.0689    3.3172   -1.2353 H.spc      1 <1>        0.000
     58 H          -0.7643    1.9752   -1.1154 H.spc      1 <1>        0.000
     59 H          -0.5556    0.7137    0.1383 H.spc      1 <1>        0.000
@<TRIPOS>BOND
     1   10   18 1  
     2   10   11 1  
     3   12   13 1  
     4    9   20 1  
     5   12    8 1  
     6    9   10 1  
     7    7    9 1  
     8   12   17 1  
     9   13   14 1  
    10   14   15 1  
    11    6    7 1  
    12    5   21 1  
    13    5    6 1  
    14    4   24 1  
    15    4    5 1  
    16   15   16 1  
    17    3    4 1  
    18   16    8 1  
    19    2    3 1  
    20    1   25 1  
    21    1    2 1  
    22   17   18 1  
    23   18   19 1  
    24   19   20 1  
    25   20   21 1  
    26   21   22 1  
    27   22   23 1  
    28   23   24 2  
    29   24   25 1  
    30   11   12 1  
    31    1   26 1  
    32    1   27 1  
    33    2   28 1  
    34    2   29 1  
    35    3   30 1  
    36    3   31 1  
    37    4   32 1  
    38    5   33 1  
    39    6   34 1  
    40    6   35 1  
    41    7   36 1  
    42    7   37 1  
    43    8   38 1  
    44    8   39 1  
    45    9   40 1  
    46   10   41 1  
    47   11   42 1  
    48   11   43 1  
    49   14   44 1  
    50   14   45 1  
    51   15   46 1  
    52   15   47 1  
    53   16   48 1  
    54   16   49 1  
    55   18   50 1  
    56   19   51 1  
    57   19   52 1  
    58   20   53 1  
    59   21   54 1  
    60   22   55 1  
    61   22   56 1  
    62   23   57 1  
    63   25   58 1  
    64   25   59 1  
# Name:          frag4-460-37/48856 -- energy: -11.342822
# Creation time: Sat Jun  5 12:52:48 2010


@<TRIPOS>MOLECULE
frag4-460-37/48856 -- energy: -11.342822
   59    64     1     1     1
SMALL
USER_CHARGES


@<TRIPOS>ATOM
      1 C20        -2.1037    2.1418    0.5542 C.3        1 <1>        0.000
      2 C21        -2.0886    1.9655    2.0724 C.3        1 <1>        0.000
      3 C22        -0.9773    2.8070    2.6998 C.3        1 <1>        0.000
      4 C23         0.4284    2.5391    2.1124 C.3        1 <1>        0.000
      5 C24         1.5165    3.4531    2.7280 C.3        1 <1>        0.000
      6 C25         1.9177    3.0475    4.1698 C.3        1 <1>        0.000
      7 C26         3.0429    3.8986    4.7629 C.3        1 <1>        0.000
      8 C34         8.7746    3.0906    4.6929 C.3        1 <1>        0.000
      9 C27         4.2476    3.8995    3.8283 C.3        1 <1>        0.000
     10 C28         5.4515    4.7823    4.1881 C.3        1 <1>        0.000
     11 C29         6.4905    4.1752    5.1475 C.3        1 <1>        0.000
     12 C30         7.7841    4.1893    4.3328 C.3        1 <1>        0.000
     13 O16         8.4079    5.4790    4.4594 O.3        1 <1>        0.000
     14 C31         9.4381    6.0161    3.6677 C.3        1 <1>        0.000
     15 C32        10.5056    4.9487    3.8134 C.3        1 <1>        0.000
     16 C33         9.9323    3.5231    3.7791 C.3        1 <1>        0.000
     17 O17         7.2915    4.0440    2.9986 O.3        1 <1>        0.000
     18 C36         6.1935    4.9134    2.8311 C.3        1 <1>        0.000
     19 C37         5.2095    4.4990    1.7337 C.3        1 <1>        0.000
     20 C38         3.8563    4.4078    2.4368 C.3        1 <1>        0.000
     21 C39         2.7529    3.5483    1.8015 C.3        1 <1>        0.000
     22 C40         2.3436    4.0750    0.4200 C.3        1 <1>        0.000
     23 C41         1.2091    3.3012   -0.1545 C.2        1 <1>        0.000
     24 C42         0.3464    2.5822    0.5895 C.2        1 <1>        0.000
     25 C43        -0.7469    1.7710   -0.0448 C.3        1 <1>        0.000
     26 H          -2.8668    1.4888    0.1307 H.spc      1 <1>        0.000
     27 H          -2.3187    3.1849    0.3222 H.spc      1 <1>        0.000
     28 H          -3.0480    2.2898    2.4755 H.spc      1 <1>        0.000
     29 H          -1.9108    0.9155    2.3046 H.spc      1 <1>        0.000
     30 H          -1.2147    3.8524    2.5024 H.spc      1 <1>        0.000
     31 H          -0.9380    2.5504    3.7584 H.spc      1 <1>        0.000
     32 H           0.7570    1.5381    2.3918 H.spc      1 <1>        0.000
     33 H           1.0713    4.4446    2.8110 H.spc      1 <1>        0.000
     34 H           1.0400    3.1848    4.8013 H.spc      1 <1>        0.000
     35 H           2.2761    2.0189    4.1294 H.spc      1 <1>        0.000
     36 H           2.6885    4.9214    4.8906 H.spc      1 <1>        0.000
     37 H           3.3375    3.4813    5.7258 H.spc      1 <1>        0.000
     38 H           8.4163    2.0727    4.5397 H.spc      1 <1>        0.000
     39 H           9.0211    3.0152    5.7520 H.spc      1 <1>        0.000
     40 H           4.5492    2.8544    3.8985 H.spc      1 <1>        0.000
     41 H           5.0770    5.6799    4.6802 H.spc      1 <1>        0.000
     42 H           6.2171    3.1731    5.4780 H.spc      1 <1>        0.000
     43 H           6.5775    4.7372    6.0774 H.spc      1 <1>        0.000
     44 H           9.7624    7.0083    3.9815 H.spc      1 <1>        0.000
     45 H           9.1453    6.2075    2.6353 H.spc      1 <1>        0.000
     46 H          10.9892    5.0905    4.7799 H.spc      1 <1>        0.000
     47 H          11.1958    5.0508    2.9759 H.spc      1 <1>        0.000
     48 H          10.7657    2.9031    4.1095 H.spc      1 <1>        0.000
     49 H           9.5133    3.4388    2.7764 H.spc      1 <1>        0.000
     50 H           6.5433    5.9064    2.5487 H.spc      1 <1>        0.000
     51 H           5.4915    3.5527    1.2721 H.spc      1 <1>        0.000
     52 H           5.1925    5.2154    0.9124 H.spc      1 <1>        0.000
     53 H           3.3625    5.3787    2.3967 H.spc      1 <1>        0.000
     54 H           3.1657    2.5482    1.6689 H.spc      1 <1>        0.000
     55 H           3.1979    3.9779   -0.2500 H.spc      1 <1>        0.000
     56 H           2.0292    5.1130    0.5291 H.spc      1 <1>        0.000
     57 H           1.0689    3.3172   -1.2353 H.spc      1 <1>        0.000
     58 H          -0.7643    1.9752   -1.1154 H.spc      1 <1>        0.000
     59 H          -0.5556    0.7137    0.1383 H.spc      1 <1>        0.000
@<TRIPOS>BOND
     1   10   18 1  
     2   10   11 1  
     3   12   13 1  
     4    9   20 1  
     5   12    8 1  
     6    9   10 1  
     7    7    9 1  
     8   12   17 1  
     9   13   14 1  
    10   14   15 1  
    11    6    7 1  
    12    5   21 1  
    13    5    6 1  
    14    4   24 1  
    15    4    5 1  
    16   15   16 1  
    17    3    4 1  
    18   16    8 1  
    19    2    3 1  
    20    1   25 1  
    21    1    2 1  
    22   17   18 1  
    23   18   19 1  
    24   19   20 1  
    25   20   21 1  
    26   21   22 1  
    27   22   23 1  
    28   23   24 2  
    29   24   25 1  
    30   11   12 1  
    31    1   26 1  
    32    1   27 1  
    33    2   28 1  
    34    2   29 1  
    35    3   30 1  
    36    3   31 1  
    37    4   32 1  
    38    5   33 1  
    39    6   34 1  
    40    6   35 1  
    41    7   36 1  
    42    7   37 1  
    43    8   38 1  
    44    8   39 1  
    45    9   40 1  
    46   10   41 1  
    47   11   42 1  
    48   11   43 1  
    49   14   44 1  
    50   14   45 1  
    51   15   46 1  
    52   15   47 1  
    53   16   48 1  
    54   16   49 1  
    55   18   50 1  
    56   19   51 1  
    57   19   52 1  
    58   20   53 1  
    59   21   54 1  
    60   22   55 1  
    61   22   56 1  
    62   23   57 1  
    63   25   58 1  
    64   25   59 1  
