#      Rotatable Fragment
#      Build by yxyuan
#
# Name:          frag3-271-3/96164
# Creation time: Sat Jun  5 12:53:23 2010


@<TRIPOS>MOLECULE
frag3-271-3/96164
    5     4     1     1     1
SMALL
USER_CHARGES


@<TRIPOS>ATOM
      1 O1          0.9088   -0.3784    0.2179 O.3        1 <1>        0.000
      2 C8         -0.2883    0.2068    0.1630 C.2        1 <1>        0.000
      3 S1         -1.3240    0.2307   -1.1194 S.2        1 <1>        0.000
      4 H           1.2944   -0.2350    1.0853 H.spc      1 <1>        0.000
      5 H          -0.6176    0.7254    1.0634 H.spc      1 <1>        0.000
@<TRIPOS>BOND
     1    1    2 1  
     2    2    3 2  
     3    1    4 1  
     4    2    5 1  
# Name:          frag3-271-3/96164 -- energy: -0.039072
# Creation time: Sat Jun  5 12:53:23 2010


@<TRIPOS>MOLECULE
frag3-271-3/96164 -- energy: -0.039072
    5     4     1     1     1
SMALL
USER_CHARGES


@<TRIPOS>ATOM
      1 O1          0.9088   -0.3784    0.2179 O.3        1 <1>        0.000
      2 C8         -0.2883    0.2068    0.1630 C.2        1 <1>        0.000
      3 S1         -1.3240    0.2307   -1.1194 S.2        1 <1>        0.000
      4 H           1.2944   -0.2350    1.0853 H.spc      1 <1>        0.000
      5 H          -0.6176    0.7254    1.0634 H.spc      1 <1>        0.000
@<TRIPOS>BOND
     1    1    2 1  
     2    2    3 2  
     3    1    4 1  
     4    2    5 1  
