#      Rotatable Fragment
#      Build by yxyuan
#
# Name:          frag4-333-174/48856
# Creation time: Sat Jun  5 12:52:52 2010


@<TRIPOS>MOLECULE
frag4-333-174/48856
   14    14     1     1     1
SMALL
USER_CHARGES


@<TRIPOS>ATOM
      1 C14        -1.0890   -0.9099    0.2259 C.2        1 <1>        0.000
      2 C15        -1.3889    0.3474   -0.1232 C.2        1 <1>        0.000
      3 C16        -0.3114    1.3075   -0.3525 C.3        1 <1>        0.000
      4 C17         1.0890    0.9104   -0.2237 C.2        1 <1>        0.000
      5 C18         1.3889   -0.3479    0.1214 C.2        1 <1>        0.000
      6 C19         0.3114   -1.3079    0.3510 C.3        1 <1>        0.000
      7 H          -1.8838   -1.6314    0.4154 H.spc      1 <1>        0.000
      8 H          -2.4292    0.6526   -0.2356 H.spc      1 <1>        0.000
      9 H          -0.4487    2.0518    0.4318 H.spc      1 <1>        0.000
     10 H          -0.4149    1.5755   -1.4040 H.spc      1 <1>        0.000
     11 H           1.8837    1.6335   -0.4073 H.spc      1 <1>        0.000
     12 H           2.4293   -0.6541    0.2303 H.spc      1 <1>        0.000
     13 H           0.4467   -2.0507   -0.4351 H.spc      1 <1>        0.000
     14 H           0.4170   -1.5780    1.4017 H.spc      1 <1>        0.000
@<TRIPOS>BOND
     1    1    2 2  
     2    1    6 1  
     3    2    3 1  
     4    3    4 1  
     5    4    5 2  
     6    5    6 1  
     7    1    7 1  
     8    2    8 1  
     9    3    9 1  
    10    3   10 1  
    11    4   11 1  
    12    5   12 1  
    13    6   13 1  
    14    6   14 1  
# Name:          frag4-333-174/48856 -- energy: -0.427544
# Creation time: Sat Jun  5 12:52:52 2010


@<TRIPOS>MOLECULE
frag4-333-174/48856 -- energy: -0.427544
   14    14     1     1     1
SMALL
USER_CHARGES


@<TRIPOS>ATOM
      1 C14        -1.0890   -0.9099    0.2259 C.2        1 <1>        0.000
      2 C15        -1.3889    0.3474   -0.1232 C.2        1 <1>        0.000
      3 C16        -0.3114    1.3075   -0.3525 C.3        1 <1>        0.000
      4 C17         1.0890    0.9104   -0.2237 C.2        1 <1>        0.000
      5 C18         1.3889   -0.3479    0.1214 C.2        1 <1>        0.000
      6 C19         0.3114   -1.3079    0.3510 C.3        1 <1>        0.000
      7 H          -1.8838   -1.6314    0.4154 H.spc      1 <1>        0.000
      8 H          -2.4292    0.6526   -0.2356 H.spc      1 <1>        0.000
      9 H          -0.4487    2.0518    0.4318 H.spc      1 <1>        0.000
     10 H          -0.4149    1.5755   -1.4040 H.spc      1 <1>        0.000
     11 H           1.8837    1.6335   -0.4073 H.spc      1 <1>        0.000
     12 H           2.4293   -0.6541    0.2303 H.spc      1 <1>        0.000
     13 H           0.4467   -2.0507   -0.4351 H.spc      1 <1>        0.000
     14 H           0.4170   -1.5780    1.4017 H.spc      1 <1>        0.000
@<TRIPOS>BOND
     1    1    2 2  
     2    1    6 1  
     3    2    3 1  
     4    3    4 1  
     5    4    5 2  
     6    5    6 1  
     7    1    7 1  
     8    2    8 1  
     9    3    9 1  
    10    3   10 1  
    11    4   11 1  
    12    5   12 1  
    13    6   13 1  
    14    6   14 1  
