#      Rotatable Fragment
#      Build by yxyuan
#
# Name:          frag3-166-11/31924
# Creation time: Sat Jun  5 12:52:05 2010


@<TRIPOS>MOLECULE
frag3-166-11/31924
   18    17     1     1     1
SMALL
USER_CHARGES


@<TRIPOS>ATOM
      1 C7          3.5200    0.0256    1.4297 C.2        1 <1>        0.000
      2 C8          2.3755   -0.6014    1.7199 C.2        1 <1>        0.000
      3 C9          1.3063   -0.8317    0.7410 C.2        1 <1>        0.000
      4 C10         0.3088   -1.7074    0.9249 C.2        1 <1>        0.000
      5 C11        -0.7736   -1.9366   -0.0397 C.2        1 <1>        0.000
      6 C12        -1.9158   -2.5741    0.2538 C.2        1 <1>        0.000
      7 C13        -2.9960   -2.7940   -0.7173 C.2        1 <1>        0.000
      8 C14        -3.9871   -3.6732   -0.5398 C.2        1 <1>        0.000
      9 H           3.6972    0.3969    0.4203 H.spc      1 <1>        0.000
     10 H           4.2759    0.1655    2.2024 H.spc      1 <1>        0.000
     11 H           2.2284   -0.9610    2.7383 H.spc      1 <1>        0.000
     12 H           1.3247   -0.2591   -0.1863 H.spc      1 <1>        0.000
     13 H           0.3007   -2.2858    1.8487 H.spc      1 <1>        0.000
     14 H          -0.6406   -1.5660   -1.0561 H.spc      1 <1>        0.000
     15 H          -2.0504   -2.9497    1.2681 H.spc      1 <1>        0.000
     16 H          -2.9889   -2.2064   -1.6353 H.spc      1 <1>        0.000
     17 H          -4.0242   -4.2769    0.3670 H.spc      1 <1>        0.000
     18 H          -4.7581   -3.7865   -1.3019 H.spc      1 <1>        0.000
@<TRIPOS>BOND
     1    6    7 1  
     2    7    8 2  
     3    5    6 2  
     4    1    2 2  
     5    2    3 1  
     6    3    4 2  
     7    4    5 1  
     8    1    9 1  
     9    1   10 1  
    10    2   11 1  
    11    3   12 1  
    12    4   13 1  
    13    5   14 1  
    14    6   15 1  
    15    7   16 1  
    16    8   17 1  
    17    8   18 1  
# Name:          frag3-166-11/31924
# Creation time: Sat Jun  5 12:52:05 2010


@<TRIPOS>MOLECULE
frag3-166-11/31924
   18    17     1     1     1
SMALL
USER_CHARGES


@<TRIPOS>ATOM
      1 C7         -2.9878   -4.1717   -0.8807 C.2        1 <1>        0.000
      2 C8         -2.8349   -2.9215   -0.4349 C.2        1 <1>        0.000
      3 C9         -1.5816   -2.4010    0.1129 C.2        1 <1>        0.000
      4 C10        -1.4182   -1.1394    0.5393 C.2        1 <1>        0.000
      5 C11        -0.1707   -0.6170    1.0996 C.2        1 <1>        0.000
      6 C12         1.0427   -1.1244    0.8240 C.2        1 <1>        0.000
      7 C13         2.2915   -0.6005    1.3829 C.2        1 <1>        0.000
      8 C14         3.4972   -1.1171    1.1293 C.2        1 <1>        0.000
      9 H          -2.1500   -4.8682   -0.8481 H.spc      1 <1>        0.000
     10 H          -3.9503   -4.4951   -1.2770 H.spc      1 <1>        0.000
     11 H          -3.6928   -2.2508   -0.4819 H.spc      1 <1>        0.000
     12 H          -0.7303   -3.0785    0.1784 H.spc      1 <1>        0.000
     13 H          -2.2678   -0.4607    0.4638 H.spc      1 <1>        0.000
     14 H          -0.2295    0.2328    1.7797 H.spc      1 <1>        0.000
     15 H           1.1012   -1.9752    0.1452 H.spc      1 <1>        0.000
     16 H           2.2334    0.2629    2.0457 H.spc      1 <1>        0.000
     17 H           3.5927   -1.9806    0.4710 H.spc      1 <1>        0.000
     18 H           4.3854   -0.6751    1.5807 H.spc      1 <1>        0.000
@<TRIPOS>BOND
     1    6    7 1  
     2    7    8 2  
     3    5    6 2  
     4    1    2 2  
     5    2    3 1  
     6    3    4 2  
     7    4    5 1  
     8    1    9 1  
     9    1   10 1  
    10    2   11 1  
    11    3   12 1  
    12    4   13 1  
    13    5   14 1  
    14    6   15 1  
    15    7   16 1  
    16    8   17 1  
    17    8   18 1  
# Name:          frag3-166-11/31924
# Creation time: Sat Jun  5 12:52:05 2010


@<TRIPOS>MOLECULE
frag3-166-11/31924
   18    17     1     1     1
SMALL
USER_CHARGES


@<TRIPOS>ATOM
      1 C7         -3.1933   -3.9655   -0.2676 C.2        1 <1>        0.000
      2 C8         -3.0622   -2.6946   -0.6644 C.2        1 <1>        0.000
      3 C9         -1.8035   -1.9498   -0.5840 C.2        1 <1>        0.000
      4 C10        -0.9859   -1.9899    0.4805 C.2        1 <1>        0.000
      5 C11         0.2830   -1.2666    0.5742 C.2        1 <1>        0.000
      6 C12         1.0418   -1.2141    1.6799 C.2        1 <1>        0.000
      7 C13         2.3140   -0.4893    1.7583 C.2        1 <1>        0.000
      8 C14         3.2440   -0.5229    0.7955 C.2        1 <1>        0.000
      9 H          -2.3358   -4.5001    0.1410 H.spc      1 <1>        0.000
     10 H          -4.1576   -4.4664   -0.3529 H.spc      1 <1>        0.000
     11 H          -3.9379   -2.1868   -1.0687 H.spc      1 <1>        0.000
     12 H          -1.5152   -1.3302   -1.4332 H.spc      1 <1>        0.000
     13 H          -1.2872   -2.6015    1.3309 H.spc      1 <1>        0.000
     14 H           0.6343   -0.7364   -0.3110 H.spc      1 <1>        0.000
     15 H           0.6930   -1.7394    2.5690 H.spc      1 <1>        0.000
     16 H           2.5133    0.1086    2.6476 H.spc      1 <1>        0.000
     17 H           3.0742   -1.1117   -0.1059 H.spc      1 <1>        0.000
     18 H           4.1708    0.0386    0.9132 H.spc      1 <1>        0.000
@<TRIPOS>BOND
     1    6    7 1  
     2    7    8 2  
     3    5    6 2  
     4    1    2 2  
     5    2    3 1  
     6    3    4 2  
     7    4    5 1  
     8    1    9 1  
     9    1   10 1  
    10    2   11 1  
    11    3   12 1  
    12    4   13 1  
    13    5   14 1  
    14    6   15 1  
    15    7   16 1  
    16    8   17 1  
    17    8   18 1  
# Name:          frag3-166-11/31924
# Creation time: Sat Jun  5 12:52:05 2010


@<TRIPOS>MOLECULE
frag3-166-11/31924
   18    17     1     1     1
SMALL
USER_CHARGES


@<TRIPOS>ATOM
      1 C7          3.2206   -0.8382    1.3906 C.2        1 <1>        0.000
      2 C8          2.0338   -0.5129    1.9155 C.2        1 <1>        0.000
      3 C9          0.7563   -0.9517    1.3560 C.2        1 <1>        0.000
      4 C10         0.5334   -1.0984    0.0374 C.2        1 <1>        0.000
      5 C11        -0.7318   -1.5540   -0.5354 C.2        1 <1>        0.000
      6 C12        -1.5307   -2.4667    0.0434 C.2        1 <1>        0.000
      7 C13        -2.8018   -2.9175   -0.5256 C.2        1 <1>        0.000
      8 C14        -3.6419   -3.7534    0.0906 C.2        1 <1>        0.000
      9 H           3.2692   -1.4624    0.4984 H.spc      1 <1>        0.000
     10 H           4.1389   -0.4790    1.8552 H.spc      1 <1>        0.000
     11 H           2.0185    0.1127    2.8080 H.spc      1 <1>        0.000
     12 H          -0.0596   -1.1719    2.0444 H.spc      1 <1>        0.000
     13 H           1.3481   -0.8625   -0.6473 H.spc      1 <1>        0.000
     14 H          -1.0460   -1.1283   -1.4884 H.spc      1 <1>        0.000
     15 H          -1.2132   -2.8969    0.9932 H.spc      1 <1>        0.000
     16 H          -3.0799   -2.5484   -1.5128 H.spc      1 <1>        0.000
     17 H          -3.3965   -4.1425    1.0788 H.spc      1 <1>        0.000
     18 H          -4.5729   -4.0464   -0.3947 H.spc      1 <1>        0.000
@<TRIPOS>BOND
     1    6    7 1  
     2    7    8 2  
     3    5    6 2  
     4    1    2 2  
     5    2    3 1  
     6    3    4 2  
     7    4    5 1  
     8    1    9 1  
     9    1   10 1  
    10    2   11 1  
    11    3   12 1  
    12    4   13 1  
    13    5   14 1  
    14    6   15 1  
    15    7   16 1  
    16    8   17 1  
    17    8   18 1  
# Name:          frag3-166-11/31924
# Creation time: Sat Jun  5 12:52:05 2010


@<TRIPOS>MOLECULE
frag3-166-11/31924
   18    17     1     1     1
SMALL
USER_CHARGES


@<TRIPOS>ATOM
      1 C7         -3.8852   -3.7183   -0.2030 C.2        1 <1>        0.000
      2 C8         -2.9148   -2.8819   -0.5828 C.2        1 <1>        0.000
      3 C9         -1.7031   -2.6326    0.2015 C.2        1 <1>        0.000
      4 C10        -0.8394   -1.6405   -0.0542 C.2        1 <1>        0.000
      5 C11         0.3674   -1.3732    0.7295 C.2        1 <1>        0.000
      6 C12         1.4546   -0.7474    0.2515 C.2        1 <1>        0.000
      7 C13         2.6567   -0.4845    1.0488 C.2        1 <1>        0.000
      8 C14         2.7018   -0.6142    2.3812 C.2        1 <1>        0.000
      9 H          -3.7997   -4.2606    0.7386 H.spc      1 <1>        0.000
     10 H          -4.7623   -3.8583   -0.8348 H.spc      1 <1>        0.000
     11 H          -3.0315   -2.3553   -1.5300 H.spc      1 <1>        0.000
     12 H          -1.4915   -3.2929    1.0426 H.spc      1 <1>        0.000
     13 H          -1.0497   -0.9891   -0.9025 H.spc      1 <1>        0.000
     14 H           0.3845   -1.7035    1.7681 H.spc      1 <1>        0.000
     15 H           1.4431   -0.4163   -0.7869 H.spc      1 <1>        0.000
     16 H           3.5612   -0.1668    0.5300 H.spc      1 <1>        0.000
     17 H           1.8136   -0.9302    2.9284 H.spc      1 <1>        0.000
     18 H           3.6267   -0.4038    2.9183 H.spc      1 <1>        0.000
@<TRIPOS>BOND
     1    6    7 1  
     2    7    8 2  
     3    5    6 2  
     4    1    2 2  
     5    2    3 1  
     6    3    4 2  
     7    4    5 1  
     8    1    9 1  
     9    1   10 1  
    10    2   11 1  
    11    3   12 1  
    12    4   13 1  
    13    5   14 1  
    14    6   15 1  
    15    7   16 1  
    16    8   17 1  
    17    8   18 1  
# Name:          frag3-166-11/31924
# Creation time: Sat Jun  5 12:52:05 2010


@<TRIPOS>MOLECULE
frag3-166-11/31924
   18    17     1     1     1
SMALL
USER_CHARGES


@<TRIPOS>ATOM
      1 C7         -3.2786   -3.9057   -0.2408 C.2        1 <1>        0.000
      2 C8         -3.1393   -2.5964   -0.4758 C.2        1 <1>        0.000
      3 C9         -2.0664   -1.7822    0.0979 C.2        1 <1>        0.000
      4 C10        -0.7641   -2.0932   -0.0028 C.2        1 <1>        0.000
      5 C11         0.3228   -1.2890    0.5544 C.2        1 <1>        0.000
      6 C12         1.6030   -1.6879    0.6184 C.2        1 <1>        0.000
      7 C13         2.6826   -0.8695    1.1774 C.2        1 <1>        0.000
      8 C14         2.4780    0.1313    2.0438 C.2        1 <1>        0.000
      9 H          -2.5708   -4.4212    0.4083 H.spc      1 <1>        0.000
     10 H          -4.0999   -4.4572   -0.6984 H.spc      1 <1>        0.000
     11 H          -3.8632   -2.1096   -1.1293 H.spc      1 <1>        0.000
     12 H          -2.3395   -0.8744    0.6359 H.spc      1 <1>        0.000
     13 H          -0.4992   -3.0064   -0.5357 H.spc      1 <1>        0.000
     14 H           0.0773   -0.3008    0.9433 H.spc      1 <1>        0.000
     15 H           1.8536   -2.6762    0.2329 H.spc      1 <1>        0.000
     16 H           3.7061   -1.0867    0.8720 H.spc      1 <1>        0.000
     17 H           1.4659    0.3728    2.3683 H.spc      1 <1>        0.000
     18 H           3.3236    0.7042    2.4243 H.spc      1 <1>        0.000
@<TRIPOS>BOND
     1    6    7 1  
     2    7    8 2  
     3    5    6 2  
     4    1    2 2  
     5    2    3 1  
     6    3    4 2  
     7    4    5 1  
     8    1    9 1  
     9    1   10 1  
    10    2   11 1  
    11    3   12 1  
    12    4   13 1  
    13    5   14 1  
    14    6   15 1  
    15    7   16 1  
    16    8   17 1  
    17    8   18 1  
# Name:          frag3-166-11/31924
# Creation time: Sat Jun  5 12:52:05 2010


@<TRIPOS>MOLECULE
frag3-166-11/31924
   18    17     1     1     1
SMALL
USER_CHARGES


@<TRIPOS>ATOM
      1 C7         -3.5950   -3.3578   -0.0351 C.2        1 <1>        0.000
      2 C8         -2.5896   -3.0969   -0.8780 C.2        1 <1>        0.000
      3 C9         -1.3149   -2.5175   -0.4597 C.2        1 <1>        0.000
      4 C10        -1.2107   -1.4993    0.4134 C.2        1 <1>        0.000
      5 C11         0.0560   -0.9236    0.8561 C.2        1 <1>        0.000
      6 C12         1.1383   -1.6528    1.1852 C.2        1 <1>        0.000
      7 C13         2.4091   -1.0716    1.6188 C.2        1 <1>        0.000
      8 C14         2.9449    0.0269    1.0716 C.2        1 <1>        0.000
      9 H          -3.4871   -3.1371    1.0269 H.spc      1 <1>        0.000
     10 H          -4.5222   -3.7911   -0.4102 H.spc      1 <1>        0.000
     11 H          -2.7286   -3.3290   -1.9339 H.spc      1 <1>        0.000
     12 H          -0.3982   -2.9331   -0.8781 H.spc      1 <1>        0.000
     13 H          -2.1312   -1.0769    0.8163 H.spc      1 <1>        0.000
     14 H           0.1295    0.1618    0.9241 H.spc      1 <1>        0.000
     15 H           1.0638   -2.7386    1.1253 H.spc      1 <1>        0.000
     16 H           2.9487   -1.5590    2.4309 H.spc      1 <1>        0.000
     17 H           2.4297    0.5372    0.2578 H.spc      1 <1>        0.000
     18 H           3.8962    0.4108    1.4400 H.spc      1 <1>        0.000
@<TRIPOS>BOND
     1    6    7 1  
     2    7    8 2  
     3    5    6 2  
     4    1    2 2  
     5    2    3 1  
     6    3    4 2  
     7    4    5 1  
     8    1    9 1  
     9    1   10 1  
    10    2   11 1  
    11    3   12 1  
    12    4   13 1  
    13    5   14 1  
    14    6   15 1  
    15    7   16 1  
    16    8   17 1  
    17    8   18 1  
# Name:          frag3-166-11/31924
# Creation time: Sat Jun  5 12:52:05 2010


@<TRIPOS>MOLECULE
frag3-166-11/31924
   18    17     1     1     1
SMALL
USER_CHARGES


@<TRIPOS>ATOM
      1 C7          3.2925   -0.6697    1.3138 C.2        1 <1>        0.000
      2 C8          2.0744   -0.1974    1.6006 C.2        1 <1>        0.000
      3 C9          0.8593   -0.6214    0.9053 C.2        1 <1>        0.000
      4 C10         0.5628   -1.9066    0.6441 C.2        1 <1>        0.000
      5 C11        -0.6532   -2.3466   -0.0371 C.2        1 <1>        0.000
      6 C12        -1.8967   -2.0791    0.3998 C.2        1 <1>        0.000
      7 C13        -3.1120   -2.5158   -0.2909 C.2        1 <1>        0.000
      8 C14        -3.2892   -3.7561   -0.7630 C.2        1 <1>        0.000
      9 H           3.4177   -1.4111    0.5247 H.spc      1 <1>        0.000
     10 H           4.1600   -0.3132    1.8692 H.spc      1 <1>        0.000
     11 H           1.9823    0.5432    2.3951 H.spc      1 <1>        0.000
     12 H           0.1562    0.1460    0.5814 H.spc      1 <1>        0.000
     13 H           1.2747   -2.6690    0.9605 H.spc      1 <1>        0.000
     14 H          -0.5458   -2.9262   -0.9540 H.spc      1 <1>        0.000
     15 H          -2.0062   -1.5049    1.3198 H.spc      1 <1>        0.000
     16 H          -3.9155   -1.7922   -0.4280 H.spc      1 <1>        0.000
     17 H          -2.5044   -4.5027   -0.6416 H.spc      1 <1>        0.000
     18 H          -4.2183   -4.0192   -1.2687 H.spc      1 <1>        0.000
@<TRIPOS>BOND
     1    6    7 1  
     2    7    8 2  
     3    5    6 2  
     4    1    2 2  
     5    2    3 1  
     6    3    4 2  
     7    4    5 1  
     8    1    9 1  
     9    1   10 1  
    10    2   11 1  
    11    3   12 1  
    12    4   13 1  
    13    5   14 1  
    14    6   15 1  
    15    7   16 1  
    16    8   17 1  
    17    8   18 1  
# Name:          frag3-166-11/31924 -- energy: -1.258445
# Creation time: Sat Jun  5 12:52:05 2010


@<TRIPOS>MOLECULE
frag3-166-11/31924 -- energy: -1.258445
   18    17     1     1     1
SMALL
USER_CHARGES


@<TRIPOS>ATOM
      1 C7          3.5200    0.0256    1.4297 C.2        1 <1>        0.000
      2 C8          2.3755   -0.6014    1.7199 C.2        1 <1>        0.000
      3 C9          1.3063   -0.8317    0.7410 C.2        1 <1>        0.000
      4 C10         0.3088   -1.7074    0.9249 C.2        1 <1>        0.000
      5 C11        -0.7736   -1.9366   -0.0397 C.2        1 <1>        0.000
      6 C12        -1.9158   -2.5741    0.2538 C.2        1 <1>        0.000
      7 C13        -2.9960   -2.7940   -0.7173 C.2        1 <1>        0.000
      8 C14        -3.9871   -3.6732   -0.5398 C.2        1 <1>        0.000
      9 H           3.6972    0.3969    0.4203 H.spc      1 <1>        0.000
     10 H           4.2759    0.1655    2.2024 H.spc      1 <1>        0.000
     11 H           2.2284   -0.9610    2.7383 H.spc      1 <1>        0.000
     12 H           1.3247   -0.2591   -0.1863 H.spc      1 <1>        0.000
     13 H           0.3007   -2.2858    1.8487 H.spc      1 <1>        0.000
     14 H          -0.6406   -1.5660   -1.0561 H.spc      1 <1>        0.000
     15 H          -2.0504   -2.9497    1.2681 H.spc      1 <1>        0.000
     16 H          -2.9889   -2.2064   -1.6353 H.spc      1 <1>        0.000
     17 H          -4.0242   -4.2769    0.3670 H.spc      1 <1>        0.000
     18 H          -4.7581   -3.7865   -1.3019 H.spc      1 <1>        0.000
@<TRIPOS>BOND
     1    6    7 1  
     2    7    8 2  
     3    5    6 2  
     4    1    2 2  
     5    2    3 1  
     6    3    4 2  
     7    4    5 1  
     8    1    9 1  
     9    1   10 1  
    10    2   11 1  
    11    3   12 1  
    12    4   13 1  
    13    5   14 1  
    14    6   15 1  
    15    7   16 1  
    16    8   17 1  
    17    8   18 1  
# Name:          frag3-166-11/31924 -- energy: -1.278173
# Creation time: Sat Jun  5 12:52:05 2010


@<TRIPOS>MOLECULE
frag3-166-11/31924 -- energy: -1.278173
   18    17     1     1     1
SMALL
USER_CHARGES


@<TRIPOS>ATOM
      1 C7         -2.9878   -4.1717   -0.8807 C.2        1 <1>        0.000
      2 C8         -2.8349   -2.9215   -0.4349 C.2        1 <1>        0.000
      3 C9         -1.5816   -2.4010    0.1129 C.2        1 <1>        0.000
      4 C10        -1.4182   -1.1394    0.5393 C.2        1 <1>        0.000
      5 C11        -0.1707   -0.6170    1.0996 C.2        1 <1>        0.000
      6 C12         1.0427   -1.1244    0.8240 C.2        1 <1>        0.000
      7 C13         2.2915   -0.6005    1.3829 C.2        1 <1>        0.000
      8 C14         3.4972   -1.1171    1.1293 C.2        1 <1>        0.000
      9 H          -2.1500   -4.8682   -0.8481 H.spc      1 <1>        0.000
     10 H          -3.9503   -4.4951   -1.2770 H.spc      1 <1>        0.000
     11 H          -3.6928   -2.2508   -0.4819 H.spc      1 <1>        0.000
     12 H          -0.7303   -3.0785    0.1784 H.spc      1 <1>        0.000
     13 H          -2.2678   -0.4607    0.4638 H.spc      1 <1>        0.000
     14 H          -0.2295    0.2328    1.7797 H.spc      1 <1>        0.000
     15 H           1.1012   -1.9752    0.1452 H.spc      1 <1>        0.000
     16 H           2.2334    0.2629    2.0457 H.spc      1 <1>        0.000
     17 H           3.5927   -1.9806    0.4710 H.spc      1 <1>        0.000
     18 H           4.3854   -0.6751    1.5807 H.spc      1 <1>        0.000
@<TRIPOS>BOND
     1    6    7 1  
     2    7    8 2  
     3    5    6 2  
     4    1    2 2  
     5    2    3 1  
     6    3    4 2  
     7    4    5 1  
     8    1    9 1  
     9    1   10 1  
    10    2   11 1  
    11    3   12 1  
    12    4   13 1  
    13    5   14 1  
    14    6   15 1  
    15    7   16 1  
    16    8   17 1  
    17    8   18 1  
# Name:          frag3-166-11/31924 -- energy: -1.415611
# Creation time: Sat Jun  5 12:52:05 2010


@<TRIPOS>MOLECULE
frag3-166-11/31924 -- energy: -1.415611
   18    17     1     1     1
SMALL
USER_CHARGES


@<TRIPOS>ATOM
      1 C7         -3.1933   -3.9655   -0.2676 C.2        1 <1>        0.000
      2 C8         -3.0622   -2.6946   -0.6644 C.2        1 <1>        0.000
      3 C9         -1.8035   -1.9498   -0.5840 C.2        1 <1>        0.000
      4 C10        -0.9859   -1.9899    0.4805 C.2        1 <1>        0.000
      5 C11         0.2830   -1.2666    0.5742 C.2        1 <1>        0.000
      6 C12         1.0418   -1.2141    1.6799 C.2        1 <1>        0.000
      7 C13         2.3140   -0.4893    1.7583 C.2        1 <1>        0.000
      8 C14         3.2440   -0.5229    0.7955 C.2        1 <1>        0.000
      9 H          -2.3358   -4.5001    0.1410 H.spc      1 <1>        0.000
     10 H          -4.1576   -4.4664   -0.3529 H.spc      1 <1>        0.000
     11 H          -3.9379   -2.1868   -1.0687 H.spc      1 <1>        0.000
     12 H          -1.5152   -1.3302   -1.4332 H.spc      1 <1>        0.000
     13 H          -1.2872   -2.6015    1.3309 H.spc      1 <1>        0.000
     14 H           0.6343   -0.7364   -0.3110 H.spc      1 <1>        0.000
     15 H           0.6930   -1.7394    2.5690 H.spc      1 <1>        0.000
     16 H           2.5133    0.1086    2.6476 H.spc      1 <1>        0.000
     17 H           3.0742   -1.1117   -0.1059 H.spc      1 <1>        0.000
     18 H           4.1708    0.0386    0.9132 H.spc      1 <1>        0.000
@<TRIPOS>BOND
     1    6    7 1  
     2    7    8 2  
     3    5    6 2  
     4    1    2 2  
     5    2    3 1  
     6    3    4 2  
     7    4    5 1  
     8    1    9 1  
     9    1   10 1  
    10    2   11 1  
    11    3   12 1  
    12    4   13 1  
    13    5   14 1  
    14    6   15 1  
    15    7   16 1  
    16    8   17 1  
    17    8   18 1  
# Name:          frag3-166-11/31924 -- energy: -1.400898
# Creation time: Sat Jun  5 12:52:05 2010


@<TRIPOS>MOLECULE
frag3-166-11/31924 -- energy: -1.400898
   18    17     1     1     1
SMALL
USER_CHARGES


@<TRIPOS>ATOM
      1 C7          3.2206   -0.8382    1.3906 C.2        1 <1>        0.000
      2 C8          2.0338   -0.5129    1.9155 C.2        1 <1>        0.000
      3 C9          0.7563   -0.9517    1.3560 C.2        1 <1>        0.000
      4 C10         0.5334   -1.0984    0.0374 C.2        1 <1>        0.000
      5 C11        -0.7318   -1.5540   -0.5354 C.2        1 <1>        0.000
      6 C12        -1.5307   -2.4667    0.0434 C.2        1 <1>        0.000
      7 C13        -2.8018   -2.9175   -0.5256 C.2        1 <1>        0.000
      8 C14        -3.6419   -3.7534    0.0906 C.2        1 <1>        0.000
      9 H           3.2692   -1.4624    0.4984 H.spc      1 <1>        0.000
     10 H           4.1389   -0.4790    1.8552 H.spc      1 <1>        0.000
     11 H           2.0185    0.1127    2.8080 H.spc      1 <1>        0.000
     12 H          -0.0596   -1.1719    2.0444 H.spc      1 <1>        0.000
     13 H           1.3481   -0.8625   -0.6473 H.spc      1 <1>        0.000
     14 H          -1.0460   -1.1283   -1.4884 H.spc      1 <1>        0.000
     15 H          -1.2132   -2.8969    0.9932 H.spc      1 <1>        0.000
     16 H          -3.0799   -2.5484   -1.5128 H.spc      1 <1>        0.000
     17 H          -3.3965   -4.1425    1.0788 H.spc      1 <1>        0.000
     18 H          -4.5729   -4.0464   -0.3947 H.spc      1 <1>        0.000
@<TRIPOS>BOND
     1    6    7 1  
     2    7    8 2  
     3    5    6 2  
     4    1    2 2  
     5    2    3 1  
     6    3    4 2  
     7    4    5 1  
     8    1    9 1  
     9    1   10 1  
    10    2   11 1  
    11    3   12 1  
    12    4   13 1  
    13    5   14 1  
    14    6   15 1  
    15    7   16 1  
    16    8   17 1  
    17    8   18 1  
# Name:          frag3-166-11/31924 -- energy: -1.062312
# Creation time: Sat Jun  5 12:52:05 2010


@<TRIPOS>MOLECULE
frag3-166-11/31924 -- energy: -1.062312
   18    17     1     1     1
SMALL
USER_CHARGES


@<TRIPOS>ATOM
      1 C7         -3.8852   -3.7183   -0.2030 C.2        1 <1>        0.000
      2 C8         -2.9148   -2.8819   -0.5828 C.2        1 <1>        0.000
      3 C9         -1.7031   -2.6326    0.2015 C.2        1 <1>        0.000
      4 C10        -0.8394   -1.6405   -0.0542 C.2        1 <1>        0.000
      5 C11         0.3674   -1.3732    0.7295 C.2        1 <1>        0.000
      6 C12         1.4546   -0.7474    0.2515 C.2        1 <1>        0.000
      7 C13         2.6567   -0.4845    1.0488 C.2        1 <1>        0.000
      8 C14         2.7018   -0.6142    2.3812 C.2        1 <1>        0.000
      9 H          -3.7997   -4.2606    0.7386 H.spc      1 <1>        0.000
     10 H          -4.7623   -3.8583   -0.8348 H.spc      1 <1>        0.000
     11 H          -3.0315   -2.3553   -1.5300 H.spc      1 <1>        0.000
     12 H          -1.4915   -3.2929    1.0426 H.spc      1 <1>        0.000
     13 H          -1.0497   -0.9891   -0.9025 H.spc      1 <1>        0.000
     14 H           0.3845   -1.7035    1.7681 H.spc      1 <1>        0.000
     15 H           1.4431   -0.4163   -0.7869 H.spc      1 <1>        0.000
     16 H           3.5612   -0.1668    0.5300 H.spc      1 <1>        0.000
     17 H           1.8136   -0.9302    2.9284 H.spc      1 <1>        0.000
     18 H           3.6267   -0.4038    2.9183 H.spc      1 <1>        0.000
@<TRIPOS>BOND
     1    6    7 1  
     2    7    8 2  
     3    5    6 2  
     4    1    2 2  
     5    2    3 1  
     6    3    4 2  
     7    4    5 1  
     8    1    9 1  
     9    1   10 1  
    10    2   11 1  
    11    3   12 1  
    12    4   13 1  
    13    5   14 1  
    14    6   15 1  
    15    7   16 1  
    16    8   17 1  
    17    8   18 1  
# Name:          frag3-166-11/31924 -- energy: -1.290707
# Creation time: Sat Jun  5 12:52:06 2010


@<TRIPOS>MOLECULE
frag3-166-11/31924 -- energy: -1.290707
   18    17     1     1     1
SMALL
USER_CHARGES


@<TRIPOS>ATOM
      1 C7         -3.2786   -3.9057   -0.2408 C.2        1 <1>        0.000
      2 C8         -3.1393   -2.5964   -0.4758 C.2        1 <1>        0.000
      3 C9         -2.0664   -1.7822    0.0979 C.2        1 <1>        0.000
      4 C10        -0.7641   -2.0932   -0.0028 C.2        1 <1>        0.000
      5 C11         0.3228   -1.2890    0.5544 C.2        1 <1>        0.000
      6 C12         1.6030   -1.6879    0.6184 C.2        1 <1>        0.000
      7 C13         2.6826   -0.8695    1.1774 C.2        1 <1>        0.000
      8 C14         2.4780    0.1313    2.0438 C.2        1 <1>        0.000
      9 H          -2.5708   -4.4212    0.4083 H.spc      1 <1>        0.000
     10 H          -4.0999   -4.4572   -0.6984 H.spc      1 <1>        0.000
     11 H          -3.8632   -2.1096   -1.1293 H.spc      1 <1>        0.000
     12 H          -2.3395   -0.8744    0.6359 H.spc      1 <1>        0.000
     13 H          -0.4992   -3.0064   -0.5357 H.spc      1 <1>        0.000
     14 H           0.0773   -0.3008    0.9433 H.spc      1 <1>        0.000
     15 H           1.8536   -2.6762    0.2329 H.spc      1 <1>        0.000
     16 H           3.7061   -1.0867    0.8720 H.spc      1 <1>        0.000
     17 H           1.4659    0.3728    2.3683 H.spc      1 <1>        0.000
     18 H           3.3236    0.7042    2.4243 H.spc      1 <1>        0.000
@<TRIPOS>BOND
     1    6    7 1  
     2    7    8 2  
     3    5    6 2  
     4    1    2 2  
     5    2    3 1  
     6    3    4 2  
     7    4    5 1  
     8    1    9 1  
     9    1   10 1  
    10    2   11 1  
    11    3   12 1  
    12    4   13 1  
    13    5   14 1  
    14    6   15 1  
    15    7   16 1  
    16    8   17 1  
    17    8   18 1  
# Name:          frag3-166-11/31924 -- energy: -1.514181
# Creation time: Sat Jun  5 12:52:06 2010


@<TRIPOS>MOLECULE
frag3-166-11/31924 -- energy: -1.514181
   18    17     1     1     1
SMALL
USER_CHARGES


@<TRIPOS>ATOM
      1 C7         -3.5950   -3.3578   -0.0351 C.2        1 <1>        0.000
      2 C8         -2.5896   -3.0969   -0.8780 C.2        1 <1>        0.000
      3 C9         -1.3149   -2.5175   -0.4597 C.2        1 <1>        0.000
      4 C10        -1.2107   -1.4993    0.4134 C.2        1 <1>        0.000
      5 C11         0.0560   -0.9236    0.8561 C.2        1 <1>        0.000
      6 C12         1.1383   -1.6528    1.1852 C.2        1 <1>        0.000
      7 C13         2.4091   -1.0716    1.6188 C.2        1 <1>        0.000
      8 C14         2.9449    0.0269    1.0716 C.2        1 <1>        0.000
      9 H          -3.4871   -3.1371    1.0269 H.spc      1 <1>        0.000
     10 H          -4.5222   -3.7911   -0.4102 H.spc      1 <1>        0.000
     11 H          -2.7286   -3.3290   -1.9339 H.spc      1 <1>        0.000
     12 H          -0.3982   -2.9331   -0.8781 H.spc      1 <1>        0.000
     13 H          -2.1312   -1.0769    0.8163 H.spc      1 <1>        0.000
     14 H           0.1295    0.1618    0.9241 H.spc      1 <1>        0.000
     15 H           1.0638   -2.7386    1.1253 H.spc      1 <1>        0.000
     16 H           2.9487   -1.5590    2.4309 H.spc      1 <1>        0.000
     17 H           2.4297    0.5372    0.2578 H.spc      1 <1>        0.000
     18 H           3.8962    0.4108    1.4400 H.spc      1 <1>        0.000
@<TRIPOS>BOND
     1    6    7 1  
     2    7    8 2  
     3    5    6 2  
     4    1    2 2  
     5    2    3 1  
     6    3    4 2  
     7    4    5 1  
     8    1    9 1  
     9    1   10 1  
    10    2   11 1  
    11    3   12 1  
    12    4   13 1  
    13    5   14 1  
    14    6   15 1  
    15    7   16 1  
    16    8   17 1  
    17    8   18 1  
# Name:          frag3-166-11/31924 -- energy: -1.502446
# Creation time: Sat Jun  5 12:52:06 2010


@<TRIPOS>MOLECULE
frag3-166-11/31924 -- energy: -1.502446
   18    17     1     1     1
SMALL
USER_CHARGES


@<TRIPOS>ATOM
      1 C7          3.2925   -0.6697    1.3138 C.2        1 <1>        0.000
      2 C8          2.0744   -0.1974    1.6006 C.2        1 <1>        0.000
      3 C9          0.8593   -0.6214    0.9053 C.2        1 <1>        0.000
      4 C10         0.5628   -1.9066    0.6441 C.2        1 <1>        0.000
      5 C11        -0.6532   -2.3466   -0.0371 C.2        1 <1>        0.000
      6 C12        -1.8967   -2.0791    0.3998 C.2        1 <1>        0.000
      7 C13        -3.1120   -2.5158   -0.2909 C.2        1 <1>        0.000
      8 C14        -3.2892   -3.7561   -0.7630 C.2        1 <1>        0.000
      9 H           3.4177   -1.4111    0.5247 H.spc      1 <1>        0.000
     10 H           4.1600   -0.3132    1.8692 H.spc      1 <1>        0.000
     11 H           1.9823    0.5432    2.3951 H.spc      1 <1>        0.000
     12 H           0.1562    0.1460    0.5814 H.spc      1 <1>        0.000
     13 H           1.2747   -2.6690    0.9605 H.spc      1 <1>        0.000
     14 H          -0.5458   -2.9262   -0.9540 H.spc      1 <1>        0.000
     15 H          -2.0062   -1.5049    1.3198 H.spc      1 <1>        0.000
     16 H          -3.9155   -1.7922   -0.4280 H.spc      1 <1>        0.000
     17 H          -2.5044   -4.5027   -0.6416 H.spc      1 <1>        0.000
     18 H          -4.2183   -4.0192   -1.2687 H.spc      1 <1>        0.000
@<TRIPOS>BOND
     1    6    7 1  
     2    7    8 2  
     3    5    6 2  
     4    1    2 2  
     5    2    3 1  
     6    3    4 2  
     7    4    5 1  
     8    1    9 1  
     9    1   10 1  
    10    2   11 1  
    11    3   12 1  
    12    4   13 1  
    13    5   14 1  
    14    6   15 1  
    15    7   16 1  
    16    8   17 1  
    17    8   18 1  
