#      Rotatable Fragment
#      Build by yxyuan
#
# Name:          frag4-376-269/150395
# Creation time: Sat Jun  5 12:53:32 2010


@<TRIPOS>MOLECULE
frag4-376-269/150395
   16    16     1     1     1
SMALL
USER_CHARGES


@<TRIPOS>ATOM
      1 N4          0.1783    0.7027    0.4206 N.3        1 <1>        0.000
      2 C20         0.0876   -0.3275   -0.5579 C.3        1 <1>        0.000
      3 C21         1.4272    1.3088    0.7295 C.3        1 <1>        0.000
      4 C22         1.4198   -0.5363   -1.2804 C.3        1 <1>        0.000
      5 C23         2.5123    0.2178    0.6850 C.3        1 <1>        0.000
      6 N5          2.3893   -0.8226   -0.2839 N.3        1 <1>        0.000
      7 H          -0.0967    0.2445    1.2894 H.spc      1 <1>        0.000
      8 H          -0.6621   -0.0381   -1.2944 H.spc      1 <1>        0.000
      9 H          -0.1814   -1.2568   -0.0558 H.spc      1 <1>        0.000
     10 H           1.3902    1.7616    1.7203 H.spc      1 <1>        0.000
     11 H           1.6531    2.0930    0.0070 H.spc      1 <1>        0.000
     12 H           1.6970    0.3539   -1.8450 H.spc      1 <1>        0.000
     13 H           1.3473   -1.3555   -1.9958 H.spc      1 <1>        0.000
     14 H           3.4332    0.7409    0.4273 H.spc      1 <1>        0.000
     15 H           2.4537   -0.2832    1.6513 H.spc      1 <1>        0.000
     16 H           2.0953   -1.6692    0.2032 H.spc      1 <1>        0.000
@<TRIPOS>BOND
     1    5    6 1  
     2    1    2 1  
     3    1    3 1  
     4    2    4 1  
     5    3    5 1  
     6    4    6 1  
     7    1    7 1  
     8    2    8 1  
     9    2    9 1  
    10    3   10 1  
    11    3   11 1  
    12    4   12 1  
    13    4   13 1  
    14    5   14 1  
    15    5   15 1  
    16    6   16 1  
# Name:          frag4-376-269/150395 -- energy: -0.686590
# Creation time: Sat Jun  5 12:53:32 2010


@<TRIPOS>MOLECULE
frag4-376-269/150395 -- energy: -0.686590
   16    16     1     1     1
SMALL
USER_CHARGES


@<TRIPOS>ATOM
      1 N4          0.1783    0.7027    0.4206 N.3        1 <1>        0.000
      2 C20         0.0876   -0.3275   -0.5579 C.3        1 <1>        0.000
      3 C21         1.4272    1.3088    0.7295 C.3        1 <1>        0.000
      4 C22         1.4198   -0.5363   -1.2804 C.3        1 <1>        0.000
      5 C23         2.5123    0.2178    0.6850 C.3        1 <1>        0.000
      6 N5          2.3893   -0.8226   -0.2839 N.3        1 <1>        0.000
      7 H          -0.0967    0.2445    1.2894 H.spc      1 <1>        0.000
      8 H          -0.6621   -0.0381   -1.2944 H.spc      1 <1>        0.000
      9 H          -0.1814   -1.2568   -0.0558 H.spc      1 <1>        0.000
     10 H           1.3902    1.7616    1.7203 H.spc      1 <1>        0.000
     11 H           1.6531    2.0930    0.0070 H.spc      1 <1>        0.000
     12 H           1.6970    0.3539   -1.8450 H.spc      1 <1>        0.000
     13 H           1.3473   -1.3555   -1.9958 H.spc      1 <1>        0.000
     14 H           3.4332    0.7409    0.4273 H.spc      1 <1>        0.000
     15 H           2.4537   -0.2832    1.6513 H.spc      1 <1>        0.000
     16 H           2.0953   -1.6692    0.2032 H.spc      1 <1>        0.000
@<TRIPOS>BOND
     1    5    6 1  
     2    1    2 1  
     3    1    3 1  
     4    2    4 1  
     5    3    5 1  
     6    4    6 1  
     7    1    7 1  
     8    2    8 1  
     9    2    9 1  
    10    3   10 1  
    11    3   11 1  
    12    4   12 1  
    13    4   13 1  
    14    5   14 1  
    15    5   15 1  
    16    6   16 1  
