#      Rotatable Fragment
#      Build by yxyuan
#
# Name:          frag3-262-4/96164
# Creation time: Sat Jun  5 12:53:22 2010


@<TRIPOS>MOLECULE
frag3-262-4/96164
   11    10     1     1     1
SMALL
USER_CHARGES


@<TRIPOS>ATOM
      1 O1          2.0431   -0.1465   -0.0987 O.3        1 <1>        0.000
      2 C1          1.0139    0.5821    0.3805 C.2        1 <1>        0.000
      3 C2          3.2553   -0.1332    0.4667 C.2        1 <1>        0.000
      4 C3         -0.2124    0.3040   -0.0600 C.2        1 <1>        0.000
      5 Cl1         1.2260    1.8602    1.5542 Cl         1 <1>        0.000
      6 C4          4.3018   -0.6295   -0.1818 C.2        1 <1>        0.000
      7 H           3.3843    0.2870    1.4642 H.spc      1 <1>        0.000
      8 H          -1.0664    0.8704    0.3114 H.spc      1 <1>        0.000
      9 H          -0.3616   -0.4899   -0.7918 H.spc      1 <1>        0.000
     10 H           4.1754   -1.0502   -1.1794 H.spc      1 <1>        0.000
     11 H           5.2875   -0.6163    0.2832 H.spc      1 <1>        0.000
@<TRIPOS>BOND
     1    1    2 1  
     2    1    3 1  
     3    2    4 2  
     4    2    5 1  
     5    3    6 2  
     6    3    7 1  
     7    4    8 1  
     8    4    9 1  
     9    6   10 1  
    10    6   11 1  
# Name:          frag3-262-4/96164
# Creation time: Sat Jun  5 12:53:22 2010


@<TRIPOS>MOLECULE
frag3-262-4/96164
   11    10     1     1     1
SMALL
USER_CHARGES


@<TRIPOS>ATOM
      1 O1          2.1470   -0.2345    0.6580 O.3        1 <1>        0.000
      2 C1          1.1042    0.6045    0.5823 C.2        1 <1>        0.000
      3 C2          2.9936   -0.4007   -0.3671 C.2        1 <1>        0.000
      4 C3          0.1381    0.3627   -0.3099 C.2        1 <1>        0.000
      5 Cl1         0.9412    2.0201    1.6160 Cl         1 <1>        0.000
      6 C4          4.3036   -0.5151   -0.1184 C.2        1 <1>        0.000
      7 H           2.6202   -0.4422   -1.3903 H.spc      1 <1>        0.000
      8 H          -0.7182    1.0333   -0.3812 H.spc      1 <1>        0.000
      9 H           0.2069   -0.5050   -0.9660 H.spc      1 <1>        0.000
     10 H           4.6693   -0.4726    0.9075 H.spc      1 <1>        0.000
     11 H           5.0048   -0.6508   -0.9418 H.spc      1 <1>        0.000
@<TRIPOS>BOND
     1    1    2 1  
     2    1    3 1  
     3    2    4 2  
     4    2    5 1  
     5    3    6 2  
     6    3    7 1  
     7    4    8 1  
     8    4    9 1  
     9    6   10 1  
    10    6   11 1  
# Name:          frag3-262-4/96164
# Creation time: Sat Jun  5 12:53:22 2010


@<TRIPOS>MOLECULE
frag3-262-4/96164
   11    10     1     1     1
SMALL
USER_CHARGES


@<TRIPOS>ATOM
      1 O1          1.8677   -0.6260    0.2476 O.3        1 <1>        0.000
      2 C1          1.0949    0.4892    0.3923 C.2        1 <1>        0.000
      3 C2          3.1820   -0.6051    0.4889 C.2        1 <1>        0.000
      4 C3         -0.0591    0.5232   -0.2648 C.2        1 <1>        0.000
      5 Cl1         1.5654    1.8364    1.3879 Cl         1 <1>        0.000
      6 C4          3.9766    0.2192   -0.1912 C.2        1 <1>        0.000
      7 H           3.6054   -1.2656    1.2456 H.spc      1 <1>        0.000
      8 H          -0.7093    1.3939   -0.1797 H.spc      1 <1>        0.000
      9 H          -0.3558   -0.3196   -0.8891 H.spc      1 <1>        0.000
     10 H           3.5557    0.8807   -0.9484 H.spc      1 <1>        0.000
     11 H           5.0479    0.2324    0.0094 H.spc      1 <1>        0.000
@<TRIPOS>BOND
     1    1    2 1  
     2    1    3 1  
     3    2    4 2  
     4    2    5 1  
     5    3    6 2  
     6    3    7 1  
     7    4    8 1  
     8    4    9 1  
     9    6   10 1  
    10    6   11 1  
# Name:          frag3-262-4/96164
# Creation time: Sat Jun  5 12:53:22 2010


@<TRIPOS>MOLECULE
frag3-262-4/96164
   11    10     1     1     1
SMALL
USER_CHARGES


@<TRIPOS>ATOM
      1 O1          1.9591   -0.1642   -0.4549 O.3        1 <1>        0.000
      2 C1          1.0840    0.5082    0.3508 C.2        1 <1>        0.000
      3 C2          3.2825   -0.0153   -0.3359 C.2        1 <1>        0.000
      4 C3         -0.2101    0.2752    0.1619 C.2        1 <1>        0.000
      5 Cl1         1.5980    1.6336    1.5687 Cl         1 <1>        0.000
      6 C4          3.9141   -0.4006    0.7703 C.2        1 <1>        0.000
      7 H           3.8506    0.4268   -1.1544 H.spc      1 <1>        0.000
      8 H          -0.9515    0.7910    0.7721 H.spc      1 <1>        0.000
      9 H          -0.5306   -0.4318   -0.6033 H.spc      1 <1>        0.000
     10 H           3.3521   -0.8434    1.5926 H.spc      1 <1>        0.000
     11 H           4.9934   -0.2734    0.8540 H.spc      1 <1>        0.000
@<TRIPOS>BOND
     1    1    2 1  
     2    1    3 1  
     3    2    4 2  
     4    2    5 1  
     5    3    6 2  
     6    3    7 1  
     7    4    8 1  
     8    4    9 1  
     9    6   10 1  
    10    6   11 1  
# Name:          frag3-262-4/96164
# Creation time: Sat Jun  5 12:53:22 2010


@<TRIPOS>MOLECULE
frag3-262-4/96164
   11    10     1     1     1
SMALL
USER_CHARGES


@<TRIPOS>ATOM
      1 O1          2.4908    0.3727    0.6822 O.3        1 <1>        0.000
      2 C1          1.1936    0.7104    0.6250 C.2        1 <1>        0.000
      3 C2          3.1486   -0.0935   -0.3870 C.2        1 <1>        0.000
      4 C3          0.3956    0.0684   -0.2346 C.2        1 <1>        0.000
      5 Cl1         0.4876    1.9633    1.6364 Cl         1 <1>        0.000
      6 C4          3.9115   -1.1842   -0.2611 C.2        1 <1>        0.000
      7 H           3.0630    0.4108   -1.3495 H.spc      1 <1>        0.000
      8 H          -0.6616    0.3270   -0.2941 H.spc      1 <1>        0.000
      9 H           0.8023   -0.7136   -0.8759 H.spc      1 <1>        0.000
     10 H           3.9929   -1.6839    0.7042 H.spc      1 <1>        0.000
     11 H           4.4521   -1.5737   -1.1237 H.spc      1 <1>        0.000
@<TRIPOS>BOND
     1    1    2 1  
     2    1    3 1  
     3    2    4 2  
     4    2    5 1  
     5    3    6 2  
     6    3    7 1  
     7    4    8 1  
     8    4    9 1  
     9    6   10 1  
    10    6   11 1  
# Name:          frag3-262-4/96164
# Creation time: Sat Jun  5 12:53:22 2010


@<TRIPOS>MOLECULE
frag3-262-4/96164
   11    10     1     1     1
SMALL
USER_CHARGES


@<TRIPOS>ATOM
      1 O1          2.3302    0.5779   -0.2049 O.3        1 <1>        0.000
      2 C1          1.1366    0.7075    0.4026 C.2        1 <1>        0.000
      3 C2          3.3549   -0.0625    0.3683 C.2        1 <1>        0.000
      4 C3          0.1536   -0.1312    0.0614 C.2        1 <1>        0.000
      5 Cl1         0.8180    1.9185    1.6284 Cl         1 <1>        0.000
      6 C4          3.8343   -1.1731   -0.1949 C.2        1 <1>        0.000
      7 H           3.7953    0.3201    1.2890 H.spc      1 <1>        0.000
      8 H          -0.8211   -0.0531    0.5430 H.spc      1 <1>        0.000
      9 H           0.3266   -0.8933   -0.6984 H.spc      1 <1>        0.000
     10 H           3.3910   -1.5523   -1.1156 H.spc      1 <1>        0.000
     11 H           4.6692   -1.7011    0.2658 H.spc      1 <1>        0.000
@<TRIPOS>BOND
     1    1    2 1  
     2    1    3 1  
     3    2    4 2  
     4    2    5 1  
     5    3    6 2  
     6    3    7 1  
     7    4    8 1  
     8    4    9 1  
     9    6   10 1  
    10    6   11 1  
# Name:          frag3-262-4/96164
# Creation time: Sat Jun  5 12:53:22 2010


@<TRIPOS>MOLECULE
frag3-262-4/96164
   11    10     1     1     1
SMALL
USER_CHARGES


@<TRIPOS>ATOM
      1 O1          2.2296    0.5991   -0.4993 O.3        1 <1>        0.000
      2 C1          1.2133    0.6851    0.3891 C.2        1 <1>        0.000
      3 C2          3.1216   -0.3936   -0.4663 C.2        1 <1>        0.000
      4 C3          0.2222   -0.2067    0.2908 C.2        1 <1>        0.000
      5 Cl1         1.1476    1.8858    1.6554 Cl         1 <1>        0.000
      6 C4          3.6934   -0.7328    0.6910 C.2        1 <1>        0.000
      7 H           3.3821   -0.9253   -1.3815 H.spc      1 <1>        0.000
      8 H          -0.6096   -0.1769    0.9946 H.spc      1 <1>        0.000
      9 H           0.2459   -0.9636   -0.4932 H.spc      1 <1>        0.000
     10 H           3.4316   -0.1999    1.6051 H.spc      1 <1>        0.000
     11 H           4.4222   -1.5428    0.7221 H.spc      1 <1>        0.000
@<TRIPOS>BOND
     1    1    2 1  
     2    1    3 1  
     3    2    4 2  
     4    2    5 1  
     5    3    6 2  
     6    3    7 1  
     7    4    8 1  
     8    4    9 1  
     9    6   10 1  
    10    6   11 1  
# Name:          frag3-262-4/96164 -- energy: -0.567377
# Creation time: Sat Jun  5 12:53:22 2010


@<TRIPOS>MOLECULE
frag3-262-4/96164 -- energy: -0.567377
   11    10     1     1     1
SMALL
USER_CHARGES


@<TRIPOS>ATOM
      1 O1          2.0431   -0.1465   -0.0987 O.3        1 <1>        0.000
      2 C1          1.0139    0.5821    0.3805 C.2        1 <1>        0.000
      3 C2          3.2553   -0.1332    0.4667 C.2        1 <1>        0.000
      4 C3         -0.2124    0.3040   -0.0600 C.2        1 <1>        0.000
      5 Cl1         1.2260    1.8602    1.5542 Cl         1 <1>        0.000
      6 C4          4.3018   -0.6295   -0.1818 C.2        1 <1>        0.000
      7 H           3.3843    0.2870    1.4642 H.spc      1 <1>        0.000
      8 H          -1.0664    0.8704    0.3114 H.spc      1 <1>        0.000
      9 H          -0.3616   -0.4899   -0.7918 H.spc      1 <1>        0.000
     10 H           4.1754   -1.0502   -1.1794 H.spc      1 <1>        0.000
     11 H           5.2875   -0.6163    0.2832 H.spc      1 <1>        0.000
@<TRIPOS>BOND
     1    1    2 1  
     2    1    3 1  
     3    2    4 2  
     4    2    5 1  
     5    3    6 2  
     6    3    7 1  
     7    4    8 1  
     8    4    9 1  
     9    6   10 1  
    10    6   11 1  
# Name:          frag3-262-4/96164 -- energy: -0.731716
# Creation time: Sat Jun  5 12:53:22 2010


@<TRIPOS>MOLECULE
frag3-262-4/96164 -- energy: -0.731716
   11    10     1     1     1
SMALL
USER_CHARGES


@<TRIPOS>ATOM
      1 O1          2.1470   -0.2345    0.6580 O.3        1 <1>        0.000
      2 C1          1.1042    0.6045    0.5823 C.2        1 <1>        0.000
      3 C2          2.9936   -0.4007   -0.3671 C.2        1 <1>        0.000
      4 C3          0.1381    0.3627   -0.3099 C.2        1 <1>        0.000
      5 Cl1         0.9412    2.0201    1.6160 Cl         1 <1>        0.000
      6 C4          4.3036   -0.5151   -0.1184 C.2        1 <1>        0.000
      7 H           2.6202   -0.4422   -1.3903 H.spc      1 <1>        0.000
      8 H          -0.7182    1.0333   -0.3812 H.spc      1 <1>        0.000
      9 H           0.2069   -0.5050   -0.9660 H.spc      1 <1>        0.000
     10 H           4.6693   -0.4726    0.9075 H.spc      1 <1>        0.000
     11 H           5.0048   -0.6508   -0.9418 H.spc      1 <1>        0.000
@<TRIPOS>BOND
     1    1    2 1  
     2    1    3 1  
     3    2    4 2  
     4    2    5 1  
     5    3    6 2  
     6    3    7 1  
     7    4    8 1  
     8    4    9 1  
     9    6   10 1  
    10    6   11 1  
# Name:          frag3-262-4/96164 -- energy: -0.815896
# Creation time: Sat Jun  5 12:53:22 2010


@<TRIPOS>MOLECULE
frag3-262-4/96164 -- energy: -0.815896
   11    10     1     1     1
SMALL
USER_CHARGES


@<TRIPOS>ATOM
      1 O1          1.8677   -0.6260    0.2476 O.3        1 <1>        0.000
      2 C1          1.0949    0.4892    0.3923 C.2        1 <1>        0.000
      3 C2          3.1820   -0.6051    0.4889 C.2        1 <1>        0.000
      4 C3         -0.0591    0.5232   -0.2648 C.2        1 <1>        0.000
      5 Cl1         1.5654    1.8364    1.3879 Cl         1 <1>        0.000
      6 C4          3.9766    0.2192   -0.1912 C.2        1 <1>        0.000
      7 H           3.6054   -1.2656    1.2456 H.spc      1 <1>        0.000
      8 H          -0.7093    1.3939   -0.1797 H.spc      1 <1>        0.000
      9 H          -0.3558   -0.3196   -0.8891 H.spc      1 <1>        0.000
     10 H           3.5557    0.8807   -0.9484 H.spc      1 <1>        0.000
     11 H           5.0479    0.2324    0.0094 H.spc      1 <1>        0.000
@<TRIPOS>BOND
     1    1    2 1  
     2    1    3 1  
     3    2    4 2  
     4    2    5 1  
     5    3    6 2  
     6    3    7 1  
     7    4    8 1  
     8    4    9 1  
     9    6   10 1  
    10    6   11 1  
# Name:          frag3-262-4/96164 -- energy: -0.755717
# Creation time: Sat Jun  5 12:53:22 2010


@<TRIPOS>MOLECULE
frag3-262-4/96164 -- energy: -0.755717
   11    10     1     1     1
SMALL
USER_CHARGES


@<TRIPOS>ATOM
      1 O1          1.9591   -0.1642   -0.4549 O.3        1 <1>        0.000
      2 C1          1.0840    0.5082    0.3508 C.2        1 <1>        0.000
      3 C2          3.2825   -0.0153   -0.3359 C.2        1 <1>        0.000
      4 C3         -0.2101    0.2752    0.1619 C.2        1 <1>        0.000
      5 Cl1         1.5980    1.6336    1.5687 Cl         1 <1>        0.000
      6 C4          3.9141   -0.4006    0.7703 C.2        1 <1>        0.000
      7 H           3.8506    0.4268   -1.1544 H.spc      1 <1>        0.000
      8 H          -0.9515    0.7910    0.7721 H.spc      1 <1>        0.000
      9 H          -0.5306   -0.4318   -0.6033 H.spc      1 <1>        0.000
     10 H           3.3521   -0.8434    1.5926 H.spc      1 <1>        0.000
     11 H           4.9934   -0.2734    0.8540 H.spc      1 <1>        0.000
@<TRIPOS>BOND
     1    1    2 1  
     2    1    3 1  
     3    2    4 2  
     4    2    5 1  
     5    3    6 2  
     6    3    7 1  
     7    4    8 1  
     8    4    9 1  
     9    6   10 1  
    10    6   11 1  
# Name:          frag3-262-4/96164 -- energy: -0.390063
# Creation time: Sat Jun  5 12:53:22 2010


@<TRIPOS>MOLECULE
frag3-262-4/96164 -- energy: -0.390063
   11    10     1     1     1
SMALL
USER_CHARGES


@<TRIPOS>ATOM
      1 O1          2.4908    0.3727    0.6822 O.3        1 <1>        0.000
      2 C1          1.1936    0.7104    0.6250 C.2        1 <1>        0.000
      3 C2          3.1486   -0.0935   -0.3870 C.2        1 <1>        0.000
      4 C3          0.3956    0.0684   -0.2346 C.2        1 <1>        0.000
      5 Cl1         0.4876    1.9633    1.6364 Cl         1 <1>        0.000
      6 C4          3.9115   -1.1842   -0.2611 C.2        1 <1>        0.000
      7 H           3.0630    0.4108   -1.3495 H.spc      1 <1>        0.000
      8 H          -0.6616    0.3270   -0.2941 H.spc      1 <1>        0.000
      9 H           0.8023   -0.7136   -0.8759 H.spc      1 <1>        0.000
     10 H           3.9929   -1.6839    0.7042 H.spc      1 <1>        0.000
     11 H           4.4521   -1.5737   -1.1237 H.spc      1 <1>        0.000
@<TRIPOS>BOND
     1    1    2 1  
     2    1    3 1  
     3    2    4 2  
     4    2    5 1  
     5    3    6 2  
     6    3    7 1  
     7    4    8 1  
     8    4    9 1  
     9    6   10 1  
    10    6   11 1  
# Name:          frag3-262-4/96164 -- energy: -0.862938
# Creation time: Sat Jun  5 12:53:22 2010


@<TRIPOS>MOLECULE
frag3-262-4/96164 -- energy: -0.862938
   11    10     1     1     1
SMALL
USER_CHARGES


@<TRIPOS>ATOM
      1 O1          2.3302    0.5779   -0.2049 O.3        1 <1>        0.000
      2 C1          1.1366    0.7075    0.4026 C.2        1 <1>        0.000
      3 C2          3.3549   -0.0625    0.3683 C.2        1 <1>        0.000
      4 C3          0.1536   -0.1312    0.0614 C.2        1 <1>        0.000
      5 Cl1         0.8180    1.9185    1.6284 Cl         1 <1>        0.000
      6 C4          3.8343   -1.1731   -0.1949 C.2        1 <1>        0.000
      7 H           3.7953    0.3201    1.2890 H.spc      1 <1>        0.000
      8 H          -0.8211   -0.0531    0.5430 H.spc      1 <1>        0.000
      9 H           0.3266   -0.8933   -0.6984 H.spc      1 <1>        0.000
     10 H           3.3910   -1.5523   -1.1156 H.spc      1 <1>        0.000
     11 H           4.6692   -1.7011    0.2658 H.spc      1 <1>        0.000
@<TRIPOS>BOND
     1    1    2 1  
     2    1    3 1  
     3    2    4 2  
     4    2    5 1  
     5    3    6 2  
     6    3    7 1  
     7    4    8 1  
     8    4    9 1  
     9    6   10 1  
    10    6   11 1  
# Name:          frag3-262-4/96164 -- energy: -0.854040
# Creation time: Sat Jun  5 12:53:22 2010


@<TRIPOS>MOLECULE
frag3-262-4/96164 -- energy: -0.854040
   11    10     1     1     1
SMALL
USER_CHARGES


@<TRIPOS>ATOM
      1 O1          2.2296    0.5991   -0.4993 O.3        1 <1>        0.000
      2 C1          1.2133    0.6851    0.3891 C.2        1 <1>        0.000
      3 C2          3.1216   -0.3936   -0.4663 C.2        1 <1>        0.000
      4 C3          0.2222   -0.2067    0.2908 C.2        1 <1>        0.000
      5 Cl1         1.1476    1.8858    1.6554 Cl         1 <1>        0.000
      6 C4          3.6934   -0.7328    0.6910 C.2        1 <1>        0.000
      7 H           3.3821   -0.9253   -1.3815 H.spc      1 <1>        0.000
      8 H          -0.6096   -0.1769    0.9946 H.spc      1 <1>        0.000
      9 H           0.2459   -0.9636   -0.4932 H.spc      1 <1>        0.000
     10 H           3.4316   -0.1999    1.6051 H.spc      1 <1>        0.000
     11 H           4.4222   -1.5428    0.7221 H.spc      1 <1>        0.000
@<TRIPOS>BOND
     1    1    2 1  
     2    1    3 1  
     3    2    4 2  
     4    2    5 1  
     5    3    6 2  
     6    3    7 1  
     7    4    8 1  
     8    4    9 1  
     9    6   10 1  
    10    6   11 1  
