#      Rotatable Fragment
#      Build by yxyuan
#
# Name:          frag2-026-4720/319335
# Creation time: Sat Jun  5 12:53:23 2010


@<TRIPOS>MOLECULE
frag2-026-4720/319335
    5     4     1     1     1
SMALL
USER_CHARGES


@<TRIPOS>ATOM
      1 C17         0.3856   -0.1508   -0.0647 C.2        1 <1>        0.000
      2 N7         -0.8794   -0.0839   -0.2586 N.2        1 <1>        0.000
      3 H           0.8731    0.5601    0.6025 H.spc      1 <1>        0.000
      4 H           0.9741   -0.9186   -0.5669 H.spc      1 <1>        0.000
      5 H          -1.4301    0.6346    0.2114 H.spc      1 <1>        0.000
@<TRIPOS>BOND
     1    1    2 2  
     2    1    3 1  
     3    1    4 1  
     4    2    5 1  
# Name:          frag2-026-4720/319335 -- energy: -0.030510
# Creation time: Sat Jun  5 12:53:23 2010


@<TRIPOS>MOLECULE
frag2-026-4720/319335 -- energy: -0.030510
    5     4     1     1     1
SMALL
USER_CHARGES


@<TRIPOS>ATOM
      1 C17         0.3856   -0.1508   -0.0647 C.2        1 <1>        0.000
      2 N7         -0.8794   -0.0839   -0.2586 N.2        1 <1>        0.000
      3 H           0.8731    0.5601    0.6025 H.spc      1 <1>        0.000
      4 H           0.9741   -0.9186   -0.5669 H.spc      1 <1>        0.000
      5 H          -1.4301    0.6346    0.2114 H.spc      1 <1>        0.000
@<TRIPOS>BOND
     1    1    2 2  
     2    1    3 1  
     3    1    4 1  
     4    2    5 1  
