#      Rotatable Fragment
#      Build by yxyuan
#
# Name:          frag3-100-400/96164
# Creation time: Sat Jun  5 12:52:04 2010


@<TRIPOS>MOLECULE
frag3-100-400/96164
    9     8     1     1     1
SMALL
USER_CHARGES


@<TRIPOS>ATOM
      1 N1          1.5493   -0.2135    0.1771 N.am       1 <1>        0.000
      2 C17         0.3881    0.2500   -0.3543 C.2        1 <1>        0.000
      3 N2         -0.8334   -0.2727   -0.1312 N.am       1 <1>        0.000
      4 O3          0.4572    1.2213   -1.0987 O.2        1 <1>        0.000
      5 O4         -1.1023   -1.3861    0.6004 O.3        1 <1>        0.000
      6 H           2.4322    0.2447   -0.0486 H.spc      1 <1>        0.000
      7 H           1.5383   -1.0197    0.8018 H.spc      1 <1>        0.000
      8 H          -1.6283    0.2109   -0.5491 H.spc      1 <1>        0.000
      9 H          -2.0492   -1.5441    0.6043 H.spc      1 <1>        0.000
@<TRIPOS>BOND
     1    1    2 am 
     2    2    3 am 
     3    2    4 2  
     4    3    5 1  
     5    1    6 1  
     6    1    7 1  
     7    3    8 1  
     8    5    9 1  
# Name:          frag3-100-400/96164 -- energy: -0.320675
# Creation time: Sat Jun  5 12:52:04 2010


@<TRIPOS>MOLECULE
frag3-100-400/96164 -- energy: -0.320675
    9     8     1     1     1
SMALL
USER_CHARGES


@<TRIPOS>ATOM
      1 N1          1.5493   -0.2135    0.1771 N.am       1 <1>        0.000
      2 C17         0.3881    0.2500   -0.3543 C.2        1 <1>        0.000
      3 N2         -0.8334   -0.2727   -0.1312 N.am       1 <1>        0.000
      4 O3          0.4572    1.2213   -1.0987 O.2        1 <1>        0.000
      5 O4         -1.1023   -1.3861    0.6004 O.3        1 <1>        0.000
      6 H           2.4322    0.2447   -0.0486 H.spc      1 <1>        0.000
      7 H           1.5383   -1.0197    0.8018 H.spc      1 <1>        0.000
      8 H          -1.6283    0.2109   -0.5491 H.spc      1 <1>        0.000
      9 H          -2.0492   -1.5441    0.6043 H.spc      1 <1>        0.000
@<TRIPOS>BOND
     1    1    2 am 
     2    2    3 am 
     3    2    4 2  
     4    3    5 1  
     5    1    6 1  
     6    1    7 1  
     7    3    8 1  
     8    5    9 1  
