#      Rotatable Fragment
#      Build by yxyuan
#
# Name:          frag3-148-27/96164
# Creation time: Sat Jun  5 12:53:05 2010


@<TRIPOS>MOLECULE
frag3-148-27/96164
    8     7     1     1     1
SMALL
USER_CHARGES


@<TRIPOS>ATOM
      1 O3          1.2800    0.8394   -0.2864 O.3        1 <1>        0.000
      2 C17         0.7302   -0.3204    0.0760 C.2        1 <1>        0.000
      3 N1         -0.5271   -0.1869    0.5336 N.am       1 <1>        0.000
      4 O4          1.3504   -1.3706    0.0803 O.2        1 <1>        0.000
      5 O5         -1.2955   -1.0251    1.2947 O.3        1 <1>        0.000
      6 H           0.6248    1.5378   -0.2189 H.spc      1 <1>        0.000
      7 H          -0.9848    0.6854    0.2690 H.spc      1 <1>        0.000
      8 H          -2.1541   -0.6227    1.4443 H.spc      1 <1>        0.000
@<TRIPOS>BOND
     1    1    2 1  
     2    2    3 am 
     3    2    4 2  
     4    3    5 1  
     5    1    6 1  
     6    3    7 1  
     7    5    8 1  
# Name:          frag3-148-27/96164 -- energy: 0.431056
# Creation time: Sat Jun  5 12:53:05 2010


@<TRIPOS>MOLECULE
frag3-148-27/96164 -- energy: 0.431056
    8     7     1     1     1
SMALL
USER_CHARGES


@<TRIPOS>ATOM
      1 O3          1.2800    0.8394   -0.2864 O.3        1 <1>        0.000
      2 C17         0.7302   -0.3204    0.0760 C.2        1 <1>        0.000
      3 N1         -0.5271   -0.1869    0.5336 N.am       1 <1>        0.000
      4 O4          1.3504   -1.3706    0.0803 O.2        1 <1>        0.000
      5 O5         -1.2955   -1.0251    1.2947 O.3        1 <1>        0.000
      6 H           0.6248    1.5378   -0.2189 H.spc      1 <1>        0.000
      7 H          -0.9848    0.6854    0.2690 H.spc      1 <1>        0.000
      8 H          -2.1541   -0.6227    1.4443 H.spc      1 <1>        0.000
@<TRIPOS>BOND
     1    1    2 1  
     2    2    3 am 
     3    2    4 2  
     4    3    5 1  
     5    1    6 1  
     6    3    7 1  
     7    5    8 1  
