#      Rotatable Fragment
#      Build by yxyuan
#
# Name:          frag5-619-32/41815
# Creation time: Sat Jun  5 12:52:59 2010


@<TRIPOS>MOLECULE
frag5-619-32/41815
   14    14     1     1     1
SMALL
USER_CHARGES


@<TRIPOS>ATOM
      1 C8         -0.8281   -1.2801    0.0234 C.ar       1 <1>        0.000
      2 C9         -1.0822    0.0983    0.0145 C.ar       1 <1>        0.000
      3 N1         -0.0132    0.9310   -0.0004 N.ar       1 <1>        0.000
      4 C10         1.2611    0.4810   -0.0188 C.ar       1 <1>        0.000
      5 N2          1.4716   -0.8535   -0.0100 N.ar       1 <1>        0.000
      6 C11         0.4691   -1.7388    0.0111 C.ar       1 <1>        0.000
      7 N3          2.3633    1.3947   -0.0470 N.pl3      1 <1>        0.000
      8 N4         -2.4045    0.6431    0.0257 N.pl3      1 <1>        0.000
      9 H          -1.6570   -1.9877    0.0400 H.spc      1 <1>        0.000
     10 H           0.6769   -2.8088    0.0184 H.spc      1 <1>        0.000
     11 H           3.3196    1.0400   -0.0607 H.spc      1 <1>        0.000
     12 H           2.1922    2.4002   -0.0534 H.spc      1 <1>        0.000
     13 H          -3.2124    0.0207    0.0408 H.spc      1 <1>        0.000
     14 H          -2.5396    1.6541    0.0186 H.spc      1 <1>        0.000
@<TRIPOS>BOND
     1    1    2 ar 
     2    1    6 ar 
     3    2    3 ar 
     4    2    8 1  
     5    4    5 ar 
     6    3    4 ar 
     7    4    7 1  
     8    5    6 ar 
     9    1    9 1  
    10    6   10 1  
    11    7   11 1  
    12    7   12 1  
    13    8   13 1  
    14    8   14 1  
# Name:          frag5-619-32/41815 -- energy: -0.180184
# Creation time: Sat Jun  5 12:52:59 2010


@<TRIPOS>MOLECULE
frag5-619-32/41815 -- energy: -0.180184
   14    14     1     1     1
SMALL
USER_CHARGES


@<TRIPOS>ATOM
      1 C8         -0.8281   -1.2801    0.0234 C.ar       1 <1>        0.000
      2 C9         -1.0822    0.0983    0.0145 C.ar       1 <1>        0.000
      3 N1         -0.0132    0.9310   -0.0004 N.ar       1 <1>        0.000
      4 C10         1.2611    0.4810   -0.0188 C.ar       1 <1>        0.000
      5 N2          1.4716   -0.8535   -0.0100 N.ar       1 <1>        0.000
      6 C11         0.4691   -1.7388    0.0111 C.ar       1 <1>        0.000
      7 N3          2.3633    1.3947   -0.0470 N.pl3      1 <1>        0.000
      8 N4         -2.4045    0.6431    0.0257 N.pl3      1 <1>        0.000
      9 H          -1.6570   -1.9877    0.0400 H.spc      1 <1>        0.000
     10 H           0.6769   -2.8088    0.0184 H.spc      1 <1>        0.000
     11 H           3.3196    1.0400   -0.0607 H.spc      1 <1>        0.000
     12 H           2.1922    2.4002   -0.0534 H.spc      1 <1>        0.000
     13 H          -3.2124    0.0207    0.0408 H.spc      1 <1>        0.000
     14 H          -2.5396    1.6541    0.0186 H.spc      1 <1>        0.000
@<TRIPOS>BOND
     1    1    2 ar 
     2    1    6 ar 
     3    2    3 ar 
     4    2    8 1  
     5    4    5 ar 
     6    3    4 ar 
     7    4    7 1  
     8    5    6 ar 
     9    1    9 1  
    10    6   10 1  
    11    7   11 1  
    12    7   12 1  
    13    8   13 1  
    14    8   14 1  
