#      Rotatable Fragment
#      Build by yxyuan
#
# Name:          frag2-045-65/92655
# Creation time: Sat Jun  5 12:51:57 2010


@<TRIPOS>MOLECULE
frag2-045-65/92655
    9     9     1     1     1
SMALL
USER_CHARGES


@<TRIPOS>ATOM
      1 C12        -1.2434    0.4551    0.0112 C.ar       1 <1>        0.000
      2 N3         -1.0631   -0.8873    0.0131 N.ar       1 <1>        0.000
      3 C13         0.2267   -1.3042    0.0008 C.ar       1 <1>        0.000
      4 N4          1.3036   -0.4756   -0.0139 N.ar       1 <1>        0.000
      5 C14         1.0146    0.8498   -0.0122 C.ar       1 <1>        0.000
      6 N5         -0.2383    1.3619   -0.0016 N.ar       1 <1>        0.000
      7 H          -2.2667    0.8306    0.0206 H.spc      1 <1>        0.000
      8 H           0.4128   -2.3782    0.0028 H.spc      1 <1>        0.000
      9 H           1.8491    1.5509   -0.0199 H.spc      1 <1>        0.000
@<TRIPOS>BOND
     1    1    2 ar 
     2    1    6 ar 
     3    2    3 ar 
     4    3    4 ar 
     5    4    5 ar 
     6    5    6 ar 
     7    1    7 1  
     8    3    8 1  
     9    5    9 1  
# Name:          frag2-045-65/92655 -- energy: 0.238046
# Creation time: Sat Jun  5 12:51:57 2010


@<TRIPOS>MOLECULE
frag2-045-65/92655 -- energy: 0.238046
    9     9     1     1     1
SMALL
USER_CHARGES


@<TRIPOS>ATOM
      1 C12        -1.2434    0.4551    0.0112 C.ar       1 <1>        0.000
      2 N3         -1.0631   -0.8873    0.0131 N.ar       1 <1>        0.000
      3 C13         0.2267   -1.3042    0.0008 C.ar       1 <1>        0.000
      4 N4          1.3036   -0.4756   -0.0139 N.ar       1 <1>        0.000
      5 C14         1.0146    0.8498   -0.0122 C.ar       1 <1>        0.000
      6 N5         -0.2383    1.3619   -0.0016 N.ar       1 <1>        0.000
      7 H          -2.2667    0.8306    0.0206 H.spc      1 <1>        0.000
      8 H           0.4128   -2.3782    0.0028 H.spc      1 <1>        0.000
      9 H           1.8491    1.5509   -0.0199 H.spc      1 <1>        0.000
@<TRIPOS>BOND
     1    1    2 ar 
     2    1    6 ar 
     3    2    3 ar 
     4    3    4 ar 
     5    4    5 ar 
     6    5    6 ar 
     7    1    7 1  
     8    3    8 1  
     9    5    9 1  
