#      Rotatable Fragment
#      Build by yxyuan
#
# Name:          frag4-324-248/48856
# Creation time: Sat Jun  5 12:52:48 2010


@<TRIPOS>MOLECULE
frag4-324-248/48856
    6     6     1     1     1
SMALL
USER_CHARGES


@<TRIPOS>ATOM
      1 N1         -0.0759   -0.6768    0.3233 N.ar       1 <1>        0.000
      2 N2         -1.3671   -0.4347   -0.1861 N.ar       1 <1>        0.000
      3 N3         -1.3381    0.6974   -0.7499 N.ar       1 <1>        0.000
      4 N4         -0.0432    1.1825   -0.4648 N.ar       1 <1>        0.000
      5 C1          0.7393    0.3521    0.1642 C.ar       1 <1>        0.000
      6 H           1.7776    0.4722    0.4734 H.spc      1 <1>        0.000
@<TRIPOS>BOND
     1    1    2 ar 
     2    1    5 ar 
     3    2    3 ar 
     4    3    4 ar 
     5    4    5 ar 
     6    5    6 1  
# Name:          frag4-324-248/48856 -- energy: -0.032903
# Creation time: Sat Jun  5 12:52:48 2010


@<TRIPOS>MOLECULE
frag4-324-248/48856 -- energy: -0.032903
    6     6     1     1     1
SMALL
USER_CHARGES


@<TRIPOS>ATOM
      1 N1         -0.0759   -0.6768    0.3233 N.ar       1 <1>        0.000
      2 N2         -1.3671   -0.4347   -0.1861 N.ar       1 <1>        0.000
      3 N3         -1.3381    0.6974   -0.7499 N.ar       1 <1>        0.000
      4 N4         -0.0432    1.1825   -0.4648 N.ar       1 <1>        0.000
      5 C1          0.7393    0.3521    0.1642 C.ar       1 <1>        0.000
      6 H           1.7776    0.4722    0.4734 H.spc      1 <1>        0.000
@<TRIPOS>BOND
     1    1    2 ar 
     2    1    5 ar 
     3    2    3 ar 
     4    3    4 ar 
     5    4    5 ar 
     6    5    6 1  
