#      Rotatable Fragment
#      Build by yxyuan
#
# Name:          frag3-284-2/31924
# Creation time: Sat Jun  5 12:52:45 2010


@<TRIPOS>MOLECULE
frag3-284-2/31924
   10     9     1     1     1
SMALL
USER_CHARGES


@<TRIPOS>ATOM
      1 P1          0.8213    0.7661   -0.0148 P.3        1 <1>        0.000
      2 O1          0.5075    1.3896   -1.2856 O.2        1 <1>        0.000
      3 O2          2.2350    1.2637    0.4936 O.3        1 <1>        0.000
      4 O3          0.9610   -0.7962   -0.2404 O.3        1 <1>        0.000
      5 C5         -0.3933    1.1157    1.2036 C.2        1 <1>        0.000
      6 O4         -0.1102    1.8034    2.1855 O.2        1 <1>        0.000
      7 O5         -1.6390    0.6165    1.0855 O.3        1 <1>        0.000
      8 H           2.4361    0.8471    1.3348 H.spc      1 <1>        0.000
      9 H           1.1690   -1.2216    0.5947 H.spc      1 <1>        0.000
     10 H          -1.7027    0.1069    0.2744 H.spc      1 <1>        0.000
@<TRIPOS>BOND
     1    1    2 2  
     2    1    3 1  
     3    1    4 1  
     4    1    5 1  
     5    5    6 2  
     6    5    7 1  
     7    3    8 1  
     8    4    9 1  
     9    7   10 1  
# Name:          frag3-284-2/31924
# Creation time: Sat Jun  5 12:52:45 2010


@<TRIPOS>MOLECULE
frag3-284-2/31924
   10     9     1     1     1
SMALL
USER_CHARGES


@<TRIPOS>ATOM
      1 P1          0.8097    0.7620    0.0218 P.3        1 <1>        0.000
      2 O1          0.3320    1.0168   -1.3421 O.2        1 <1>        0.000
      3 O2          2.1126    1.6167    0.2335 O.3        1 <1>        0.000
      4 O3          1.2774   -0.7493    0.0441 O.3        1 <1>        0.000
      5 C5         -0.3917    1.0792    1.2189 C.2        1 <1>        0.000
      6 O4         -0.1421    0.9307    2.3996 O.2        1 <1>        0.000
      7 O5         -1.6156    1.5027    0.8516 O.3        1 <1>        0.000
      8 H           2.4495    1.4701    1.1204 H.spc      1 <1>        0.000
      9 H           1.6017   -0.9699    0.9204 H.spc      1 <1>        0.000
     10 H          -1.6560    1.5698   -0.1052 H.spc      1 <1>        0.000
@<TRIPOS>BOND
     1    1    2 2  
     2    1    3 1  
     3    1    4 1  
     4    1    5 1  
     5    5    6 2  
     6    5    7 1  
     7    3    8 1  
     8    4    9 1  
     9    7   10 1  
# Name:          frag3-284-2/31924
# Creation time: Sat Jun  5 12:52:45 2010


@<TRIPOS>MOLECULE
frag3-284-2/31924
   10     9     1     1     1
SMALL
USER_CHARGES


@<TRIPOS>ATOM
      1 P1          0.8072    0.7769   -0.0015 P.3        1 <1>        0.000
      2 O1          0.7130    1.6187   -1.1802 O.2        1 <1>        0.000
      3 O2          2.2421    0.9663    0.6557 O.3        1 <1>        0.000
      4 O3          0.7929   -0.7297   -0.4826 O.3        1 <1>        0.000
      5 C5         -0.4372    1.0931    1.1533 C.2        1 <1>        0.000
      6 O4         -1.6080    1.2073    0.8116 O.2        1 <1>        0.000
      7 O5         -0.1277    1.2263    2.4712 O.3        1 <1>        0.000
      8 H           2.3110    0.4119    1.4364 H.spc      1 <1>        0.000
      9 H           0.8543   -1.3088    0.2806 H.spc      1 <1>        0.000
     10 H           0.8182    1.1131    2.5896 H.spc      1 <1>        0.000
@<TRIPOS>BOND
     1    1    2 2  
     2    1    3 1  
     3    1    4 1  
     4    1    5 1  
     5    5    6 2  
     6    5    7 1  
     7    3    8 1  
     8    4    9 1  
     9    7   10 1  
# Name:          frag3-284-2/31924
# Creation time: Sat Jun  5 12:52:45 2010


@<TRIPOS>MOLECULE
frag3-284-2/31924
   10     9     1     1     1
SMALL
USER_CHARGES


@<TRIPOS>ATOM
      1 P1          0.8295    0.7889   -0.0250 P.3        1 <1>        0.000
      2 O1          0.8637    1.7778   -1.0777 O.2        1 <1>        0.000
      3 O2          2.2358    0.7067    0.7051 O.3        1 <1>        0.000
      4 O3          0.6015   -0.6563   -0.6308 O.3        1 <1>        0.000
      5 C5         -0.4110    1.1321    1.1658 C.2        1 <1>        0.000
      6 O4         -0.9806    2.2139    1.1943 O.2        1 <1>        0.000
      7 O5         -0.7565    0.1957    2.0956 O.3        1 <1>        0.000
      8 H           2.1959    0.0461    1.4005 H.spc      1 <1>        0.000
      9 H           0.5813   -1.3007    0.0805 H.spc      1 <1>        0.000
     10 H          -0.2352   -0.5985    1.9573 H.spc      1 <1>        0.000
@<TRIPOS>BOND
     1    1    2 2  
     2    1    3 1  
     3    1    4 1  
     4    1    5 1  
     5    5    6 2  
     6    5    7 1  
     7    3    8 1  
     8    4    9 1  
     9    7   10 1  
# Name:          frag3-284-2/31924 -- energy: -0.735272
# Creation time: Sat Jun  5 12:52:45 2010


@<TRIPOS>MOLECULE
frag3-284-2/31924 -- energy: -0.735272
   10     9     1     1     1
SMALL
USER_CHARGES


@<TRIPOS>ATOM
      1 P1          0.8213    0.7661   -0.0148 P.3        1 <1>        0.000
      2 O1          0.5075    1.3896   -1.2856 O.2        1 <1>        0.000
      3 O2          2.2350    1.2637    0.4936 O.3        1 <1>        0.000
      4 O3          0.9610   -0.7962   -0.2404 O.3        1 <1>        0.000
      5 C5         -0.3933    1.1157    1.2036 C.2        1 <1>        0.000
      6 O4         -0.1102    1.8034    2.1855 O.2        1 <1>        0.000
      7 O5         -1.6390    0.6165    1.0855 O.3        1 <1>        0.000
      8 H           2.4361    0.8471    1.3348 H.spc      1 <1>        0.000
      9 H           1.1690   -1.2216    0.5947 H.spc      1 <1>        0.000
     10 H          -1.7027    0.1069    0.2744 H.spc      1 <1>        0.000
@<TRIPOS>BOND
     1    1    2 2  
     2    1    3 1  
     3    1    4 1  
     4    1    5 1  
     5    5    6 2  
     6    5    7 1  
     7    3    8 1  
     8    4    9 1  
     9    7   10 1  
# Name:          frag3-284-2/31924 -- energy: -0.606115
# Creation time: Sat Jun  5 12:52:45 2010


@<TRIPOS>MOLECULE
frag3-284-2/31924 -- energy: -0.606115
   10     9     1     1     1
SMALL
USER_CHARGES


@<TRIPOS>ATOM
      1 P1          0.8097    0.7620    0.0218 P.3        1 <1>        0.000
      2 O1          0.3320    1.0168   -1.3421 O.2        1 <1>        0.000
      3 O2          2.1126    1.6167    0.2335 O.3        1 <1>        0.000
      4 O3          1.2774   -0.7493    0.0441 O.3        1 <1>        0.000
      5 C5         -0.3917    1.0792    1.2189 C.2        1 <1>        0.000
      6 O4         -0.1421    0.9307    2.3996 O.2        1 <1>        0.000
      7 O5         -1.6156    1.5027    0.8516 O.3        1 <1>        0.000
      8 H           2.4495    1.4701    1.1204 H.spc      1 <1>        0.000
      9 H           1.6017   -0.9699    0.9204 H.spc      1 <1>        0.000
     10 H          -1.6560    1.5698   -0.1052 H.spc      1 <1>        0.000
@<TRIPOS>BOND
     1    1    2 2  
     2    1    3 1  
     3    1    4 1  
     4    1    5 1  
     5    5    6 2  
     6    5    7 1  
     7    3    8 1  
     8    4    9 1  
     9    7   10 1  
# Name:          frag3-284-2/31924 -- energy: -0.515169
# Creation time: Sat Jun  5 12:52:45 2010


@<TRIPOS>MOLECULE
frag3-284-2/31924 -- energy: -0.515169
   10     9     1     1     1
SMALL
USER_CHARGES


@<TRIPOS>ATOM
      1 P1          0.8072    0.7769   -0.0015 P.3        1 <1>        0.000
      2 O1          0.7130    1.6187   -1.1802 O.2        1 <1>        0.000
      3 O2          2.2421    0.9663    0.6557 O.3        1 <1>        0.000
      4 O3          0.7929   -0.7297   -0.4826 O.3        1 <1>        0.000
      5 C5         -0.4372    1.0931    1.1533 C.2        1 <1>        0.000
      6 O4         -1.6080    1.2073    0.8116 O.2        1 <1>        0.000
      7 O5         -0.1277    1.2263    2.4712 O.3        1 <1>        0.000
      8 H           2.3110    0.4119    1.4364 H.spc      1 <1>        0.000
      9 H           0.8543   -1.3088    0.2806 H.spc      1 <1>        0.000
     10 H           0.8182    1.1131    2.5896 H.spc      1 <1>        0.000
@<TRIPOS>BOND
     1    1    2 2  
     2    1    3 1  
     3    1    4 1  
     4    1    5 1  
     5    5    6 2  
     6    5    7 1  
     7    3    8 1  
     8    4    9 1  
     9    7   10 1  
# Name:          frag3-284-2/31924 -- energy: -0.799436
# Creation time: Sat Jun  5 12:52:45 2010


@<TRIPOS>MOLECULE
frag3-284-2/31924 -- energy: -0.799436
   10     9     1     1     1
SMALL
USER_CHARGES


@<TRIPOS>ATOM
      1 P1          0.8295    0.7889   -0.0250 P.3        1 <1>        0.000
      2 O1          0.8637    1.7778   -1.0777 O.2        1 <1>        0.000
      3 O2          2.2358    0.7067    0.7051 O.3        1 <1>        0.000
      4 O3          0.6015   -0.6563   -0.6308 O.3        1 <1>        0.000
      5 C5         -0.4110    1.1321    1.1658 C.2        1 <1>        0.000
      6 O4         -0.9806    2.2139    1.1943 O.2        1 <1>        0.000
      7 O5         -0.7565    0.1957    2.0956 O.3        1 <1>        0.000
      8 H           2.1959    0.0461    1.4005 H.spc      1 <1>        0.000
      9 H           0.5813   -1.3007    0.0805 H.spc      1 <1>        0.000
     10 H          -0.2352   -0.5985    1.9573 H.spc      1 <1>        0.000
@<TRIPOS>BOND
     1    1    2 2  
     2    1    3 1  
     3    1    4 1  
     4    1    5 1  
     5    5    6 2  
     6    5    7 1  
     7    3    8 1  
     8    4    9 1  
     9    7   10 1  
