#      Rotatable Fragment
#      Build by yxyuan
#
# Name:          frag5-508-209/41815
# Creation time: Sat Jun  5 12:52:50 2010


@<TRIPOS>MOLECULE
frag5-508-209/41815
   42    45     1     1     1
SMALL
USER_CHARGES


@<TRIPOS>ATOM
      1 C1          0.8172   -0.4855   -1.5581 C.3        1 <1>        0.000
      2 C2         -0.5303    0.1042   -2.0290 C.3        1 <1>        0.000
      3 C3         -1.5325    0.0828   -0.8639 C.3        1 <1>        0.000
      4 C4         -2.9028    0.7382   -1.1000 C.3        1 <1>        0.000
      5 C5         -3.4112    1.0785    0.3231 C.3        1 <1>        0.000
      6 C6         -2.1945    0.9136    1.2704 C.3        1 <1>        0.000
      7 C7         -0.9832    0.8985    0.3181 C.3        1 <1>        0.000
      8 C16         2.7337   -0.4077    0.1994 C.3        1 <1>        0.000
      9 C8          0.3376    0.2885    0.8386 C.3        1 <1>        0.000
     10 C9          0.8905    1.0946    2.0315 C.3        1 <1>        0.000
     11 C10         2.1644    0.4327    2.5781 C.3        1 <1>        0.000
     12 C11         3.2026    0.2269    1.5016 C.2        1 <1>        0.000
     13 C12         4.4885    0.5506    1.7266 C.2        1 <1>        0.000
     14 C13         5.5421    0.2563    0.7455 C.2        1 <1>        0.000
     15 C14         5.2310   -0.6879   -0.3764 C.3        1 <1>        0.000
     16 C15         3.8298   -0.3477   -0.9024 C.3        1 <1>        0.000
     17 C17         1.3969    0.2299   -0.3011 C.3        1 <1>        0.000
     18 O2          6.6521    0.7558    0.8622 O.2        1 <1>        0.000
     19 H           0.6459   -1.5290   -1.2938 H.spc      1 <1>        0.000
     20 H           1.5340   -0.3586   -2.3694 H.spc      1 <1>        0.000
     21 H          -0.3814    1.1314   -2.3620 H.spc      1 <1>        0.000
     22 H          -0.9195   -0.4916   -2.8546 H.spc      1 <1>        0.000
     23 H          -1.6625   -0.9879   -0.7063 H.spc      1 <1>        0.000
     24 H          -3.5872    0.0796   -1.6348 H.spc      1 <1>        0.000
     25 H          -2.8323    1.6221   -1.7340 H.spc      1 <1>        0.000
     26 H          -4.2283    0.4192    0.6158 H.spc      1 <1>        0.000
     27 H          -3.8070    2.0932    0.3660 H.spc      1 <1>        0.000
     28 H          -2.2587    0.0076    1.8730 H.spc      1 <1>        0.000
     29 H          -2.1319    1.7144    2.0073 H.spc      1 <1>        0.000
     30 H          -0.6615    1.9191    0.1106 H.spc      1 <1>        0.000
     31 H           2.5416   -1.4596    0.4106 H.spc      1 <1>        0.000
     32 H           0.1256   -0.7251    1.1788 H.spc      1 <1>        0.000
     33 H           1.1293    2.1045    1.6982 H.spc      1 <1>        0.000
     34 H           0.1385    1.1240    2.8200 H.spc      1 <1>        0.000
     35 H           2.5885    1.0875    3.3394 H.spc      1 <1>        0.000
     36 H           1.8946   -0.5431    2.9819 H.spc      1 <1>        0.000
     37 H           4.7560    1.0441    2.6610 H.spc      1 <1>        0.000
     38 H           5.9687   -0.5855   -1.1723 H.spc      1 <1>        0.000
     39 H           5.2621   -1.7185   -0.0228 H.spc      1 <1>        0.000
     40 H           3.8585    0.6722   -1.2860 H.spc      1 <1>        0.000
     41 H           3.5742   -1.0839   -1.6645 H.spc      1 <1>        0.000
     42 H           1.6393    1.2489   -0.6026 H.spc      1 <1>        0.000
@<TRIPOS>BOND
     1    3    4 1  
     2    2    3 1  
     3    1   17 1  
     4    4    5 1  
     5    1    2 1  
     6    5    6 1  
     7    3    7 1  
     8    8   17 1  
     9   16    8 1  
    10   15   16 1  
    11   14   18 2  
    12   14   15 1  
    13   13   14 1  
    14   12    8 1  
    15   12   13 2  
    16   11   12 1  
    17   10   11 1  
    18    9   17 1  
    19    9   10 1  
    20    7    9 1  
    21    6    7 1  
    22    1   19 1  
    23    1   20 1  
    24    2   21 1  
    25    2   22 1  
    26    3   23 1  
    27    4   24 1  
    28    4   25 1  
    29    5   26 1  
    30    5   27 1  
    31    6   28 1  
    32    6   29 1  
    33    7   30 1  
    34    8   31 1  
    35    9   32 1  
    36   10   33 1  
    37   10   34 1  
    38   11   35 1  
    39   11   36 1  
    40   13   37 1  
    41   15   38 1  
    42   15   39 1  
    43   16   40 1  
    44   16   41 1  
    45   17   42 1  
# Name:          frag5-508-209/41815 -- energy: -7.805347
# Creation time: Sat Jun  5 12:52:50 2010


@<TRIPOS>MOLECULE
frag5-508-209/41815 -- energy: -7.805347
   42    45     1     1     1
SMALL
USER_CHARGES


@<TRIPOS>ATOM
      1 C1          0.8172   -0.4855   -1.5581 C.3        1 <1>        0.000
      2 C2         -0.5303    0.1042   -2.0290 C.3        1 <1>        0.000
      3 C3         -1.5325    0.0828   -0.8639 C.3        1 <1>        0.000
      4 C4         -2.9028    0.7382   -1.1000 C.3        1 <1>        0.000
      5 C5         -3.4112    1.0785    0.3231 C.3        1 <1>        0.000
      6 C6         -2.1945    0.9136    1.2704 C.3        1 <1>        0.000
      7 C7         -0.9832    0.8985    0.3181 C.3        1 <1>        0.000
      8 C16         2.7337   -0.4077    0.1994 C.3        1 <1>        0.000
      9 C8          0.3376    0.2885    0.8386 C.3        1 <1>        0.000
     10 C9          0.8905    1.0946    2.0315 C.3        1 <1>        0.000
     11 C10         2.1644    0.4327    2.5781 C.3        1 <1>        0.000
     12 C11         3.2026    0.2269    1.5016 C.2        1 <1>        0.000
     13 C12         4.4885    0.5506    1.7266 C.2        1 <1>        0.000
     14 C13         5.5421    0.2563    0.7455 C.2        1 <1>        0.000
     15 C14         5.2310   -0.6879   -0.3764 C.3        1 <1>        0.000
     16 C15         3.8298   -0.3477   -0.9024 C.3        1 <1>        0.000
     17 C17         1.3969    0.2299   -0.3011 C.3        1 <1>        0.000
     18 O2          6.6521    0.7558    0.8622 O.2        1 <1>        0.000
     19 H           0.6459   -1.5290   -1.2938 H.spc      1 <1>        0.000
     20 H           1.5340   -0.3586   -2.3694 H.spc      1 <1>        0.000
     21 H          -0.3814    1.1314   -2.3620 H.spc      1 <1>        0.000
     22 H          -0.9195   -0.4916   -2.8546 H.spc      1 <1>        0.000
     23 H          -1.6625   -0.9879   -0.7063 H.spc      1 <1>        0.000
     24 H          -3.5872    0.0796   -1.6348 H.spc      1 <1>        0.000
     25 H          -2.8323    1.6221   -1.7340 H.spc      1 <1>        0.000
     26 H          -4.2283    0.4192    0.6158 H.spc      1 <1>        0.000
     27 H          -3.8070    2.0932    0.3660 H.spc      1 <1>        0.000
     28 H          -2.2587    0.0076    1.8730 H.spc      1 <1>        0.000
     29 H          -2.1319    1.7144    2.0073 H.spc      1 <1>        0.000
     30 H          -0.6615    1.9191    0.1106 H.spc      1 <1>        0.000
     31 H           2.5416   -1.4596    0.4106 H.spc      1 <1>        0.000
     32 H           0.1256   -0.7251    1.1788 H.spc      1 <1>        0.000
     33 H           1.1293    2.1045    1.6982 H.spc      1 <1>        0.000
     34 H           0.1385    1.1240    2.8200 H.spc      1 <1>        0.000
     35 H           2.5885    1.0875    3.3394 H.spc      1 <1>        0.000
     36 H           1.8946   -0.5431    2.9819 H.spc      1 <1>        0.000
     37 H           4.7560    1.0441    2.6610 H.spc      1 <1>        0.000
     38 H           5.9687   -0.5855   -1.1723 H.spc      1 <1>        0.000
     39 H           5.2621   -1.7185   -0.0228 H.spc      1 <1>        0.000
     40 H           3.8585    0.6722   -1.2860 H.spc      1 <1>        0.000
     41 H           3.5742   -1.0839   -1.6645 H.spc      1 <1>        0.000
     42 H           1.6393    1.2489   -0.6026 H.spc      1 <1>        0.000
@<TRIPOS>BOND
     1    3    4 1  
     2    2    3 1  
     3    1   17 1  
     4    4    5 1  
     5    1    2 1  
     6    5    6 1  
     7    3    7 1  
     8    8   17 1  
     9   16    8 1  
    10   15   16 1  
    11   14   18 2  
    12   14   15 1  
    13   13   14 1  
    14   12    8 1  
    15   12   13 2  
    16   11   12 1  
    17   10   11 1  
    18    9   17 1  
    19    9   10 1  
    20    7    9 1  
    21    6    7 1  
    22    1   19 1  
    23    1   20 1  
    24    2   21 1  
    25    2   22 1  
    26    3   23 1  
    27    4   24 1  
    28    4   25 1  
    29    5   26 1  
    30    5   27 1  
    31    6   28 1  
    32    6   29 1  
    33    7   30 1  
    34    8   31 1  
    35    9   32 1  
    36   10   33 1  
    37   10   34 1  
    38   11   35 1  
    39   11   36 1  
    40   13   37 1  
    41   15   38 1  
    42   15   39 1  
    43   16   40 1  
    44   16   41 1  
    45   17   42 1  
