#      Rotatable Fragment
#      Build by yxyuan
#
# Name:          frag3-264-3/96164
# Creation time: Sat Jun  5 12:53:22 2010


@<TRIPOS>MOLECULE
frag3-264-3/96164
   13    12     1     1     1
SMALL
USER_CHARGES


@<TRIPOS>ATOM
      1 C4         -3.9273   -1.0412   -0.0215 C.2        1 <1>        0.000
      2 N1         -2.5859   -0.9479   -0.1581 N.am       1 <1>        0.000
      3 O1         -4.5727   -1.9009    0.5968 O.2        1 <1>        0.000
      4 C7         -1.6985   -0.2393   -0.9166 C.2        1 <1>        0.000
      5 C8         -1.9856    0.7163   -1.8196 C.2        1 <1>        0.000
      6 C9         -0.2356   -0.5895   -0.9319 C.2        1 <1>        0.000
      7 O2          0.6567    0.1704   -1.2546 O.2        1 <1>        0.000
      8 O3         -0.0151   -1.8565   -0.5490 O.3        1 <1>        0.000
      9 H          -4.5135   -0.2661   -0.5151 H.spc      1 <1>        0.000
     10 H          -2.1041   -1.5804    0.4808 H.spc      1 <1>        0.000
     11 H          -1.1947    1.1308   -2.4447 H.spc      1 <1>        0.000
     12 H          -3.0091    1.0759   -1.9259 H.spc      1 <1>        0.000
     13 H          -0.8525   -2.2766   -0.3394 H.spc      1 <1>        0.000
@<TRIPOS>BOND
     1    1    2 am 
     2    1    3 2  
     3    2    4 1  
     4    4    5 2  
     5    4    6 1  
     6    6    7 2  
     7    6    8 1  
     8    1    9 1  
     9    2   10 1  
    10    5   11 1  
    11    5   12 1  
    12    8   13 1  
# Name:          frag3-264-3/96164
# Creation time: Sat Jun  5 12:53:22 2010


@<TRIPOS>MOLECULE
frag3-264-3/96164
   13    12     1     1     1
SMALL
USER_CHARGES


@<TRIPOS>ATOM
      1 C4         -3.9282   -1.0506   -0.0104 C.2        1 <1>        0.000
      2 N1         -2.6043   -1.0369   -0.2019 N.am       1 <1>        0.000
      3 O1         -4.6326   -1.8276    0.6370 O.2        1 <1>        0.000
      4 C7         -1.7051   -0.3206   -0.9500 C.2        1 <1>        0.000
      5 C8         -1.9935    0.7071   -1.7795 C.2        1 <1>        0.000
      6 C9         -0.2578   -0.6542   -0.9156 C.2        1 <1>        0.000
      7 O2          0.1044   -1.7565   -0.5477 O.2        1 <1>        0.000
      8 O3          0.6531    0.2509   -1.2865 O.3        1 <1>        0.000
      9 H          -4.4708   -0.2458   -0.5063 H.spc      1 <1>        0.000
     10 H          -2.1387   -1.7505    0.3588 H.spc      1 <1>        0.000
     11 H          -1.1958    1.1974   -2.3375 H.spc      1 <1>        0.000
     12 H          -3.0237    1.0454   -1.8903 H.spc      1 <1>        0.000
     13 H           0.2095    1.0615   -1.5469 H.spc      1 <1>        0.000
@<TRIPOS>BOND
     1    1    2 am 
     2    1    3 2  
     3    2    4 1  
     4    4    5 2  
     5    4    6 1  
     6    6    7 2  
     7    6    8 1  
     8    1    9 1  
     9    2   10 1  
    10    5   11 1  
    11    5   12 1  
    12    8   13 1  
# Name:          frag3-264-3/96164
# Creation time: Sat Jun  5 12:53:22 2010


@<TRIPOS>MOLECULE
frag3-264-3/96164
   13    12     1     1     1
SMALL
USER_CHARGES


@<TRIPOS>ATOM
      1 C4         -3.2529   -1.5322    0.2773 C.2        1 <1>        0.000
      2 N1         -2.9681   -0.5487   -0.6131 N.am       1 <1>        0.000
      3 O1         -4.2997   -1.8068    0.8520 O.2        1 <1>        0.000
      4 C7         -1.8162   -0.1289   -1.1877 C.2        1 <1>        0.000
      5 C8         -1.6892    0.7793   -2.1672 C.2        1 <1>        0.000
      6 C9         -0.4639   -0.6179   -0.8319 C.2        1 <1>        0.000
      7 O2          0.4858    0.1184   -0.6039 O.2        1 <1>        0.000
      8 O3         -0.3599   -1.9517   -0.7801 O.3        1 <1>        0.000
      9 H          -2.4140   -2.1841    0.5210 H.spc      1 <1>        0.000
     10 H          -3.7875   -0.0184   -0.9095 H.spc      1 <1>        0.000
     11 H          -0.7011    1.0303   -2.5530 H.spc      1 <1>        0.000
     12 H          -2.5741    1.2661   -2.5771 H.spc      1 <1>        0.000
     13 H          -1.2098   -2.3462   -0.9892 H.spc      1 <1>        0.000
@<TRIPOS>BOND
     1    1    2 am 
     2    1    3 2  
     3    2    4 1  
     4    4    5 2  
     5    4    6 1  
     6    6    7 2  
     7    6    8 1  
     8    1    9 1  
     9    2   10 1  
    10    5   11 1  
    11    5   12 1  
    12    8   13 1  
# Name:          frag3-264-3/96164
# Creation time: Sat Jun  5 12:53:22 2010


@<TRIPOS>MOLECULE
frag3-264-3/96164
   13    12     1     1     1
SMALL
USER_CHARGES


@<TRIPOS>ATOM
      1 C4         -3.2971   -1.6900   -0.0239 C.2        1 <1>        0.000
      2 N1         -2.9422   -0.4449   -0.4558 N.am       1 <1>        0.000
      3 O1         -4.2663   -2.0775    0.6139 O.2        1 <1>        0.000
      4 C7         -1.7871    0.0401   -0.9994 C.2        1 <1>        0.000
      5 C8         -1.6618    1.1980   -1.6827 C.2        1 <1>        0.000
      6 C9         -0.4727   -0.6664   -0.9095 C.2        1 <1>        0.000
      7 O2          0.5169   -0.3727   -1.5621 O.2        1 <1>        0.000
      8 O3         -0.4537   -1.6751   -0.0350 O.3        1 <1>        0.000
      9 H          -2.5935   -2.4772   -0.2948 H.spc      1 <1>        0.000
     10 H          -3.6776    0.2545   -0.3534 H.spc      1 <1>        0.000
     11 H          -0.6906    1.4948   -2.0787 H.spc      1 <1>        0.000
     12 H          -2.5319    1.8359   -1.8383 H.spc      1 <1>        0.000
     13 H          -1.3161   -1.7543    0.3792 H.spc      1 <1>        0.000
@<TRIPOS>BOND
     1    1    2 am 
     2    1    3 2  
     3    2    4 1  
     4    4    5 2  
     5    4    6 1  
     6    6    7 2  
     7    6    8 1  
     8    1    9 1  
     9    2   10 1  
    10    5   11 1  
    11    5   12 1  
    12    8   13 1  
# Name:          frag3-264-3/96164
# Creation time: Sat Jun  5 12:53:22 2010


@<TRIPOS>MOLECULE
frag3-264-3/96164
   13    12     1     1     1
SMALL
USER_CHARGES


@<TRIPOS>ATOM
      1 C4         -3.5971   -1.3380    0.0340 C.2        1 <1>        0.000
      2 N1         -3.1604   -0.5507   -0.9884 N.am       1 <1>        0.000
      3 O1         -3.0634   -1.7700    1.0503 O.2        1 <1>        0.000
      4 C7         -1.9045   -0.1151   -1.2743 C.2        1 <1>        0.000
      5 C8         -1.6267    0.8578   -2.1586 C.2        1 <1>        0.000
      6 C9         -0.6596   -0.6935   -0.7107 C.2        1 <1>        0.000
      7 O2          0.2634   -0.0418   -0.2617 O.2        1 <1>        0.000
      8 O3         -0.6157   -2.0371   -0.7453 O.3        1 <1>        0.000
      9 H          -4.6364   -1.6484   -0.0734 H.spc      1 <1>        0.000
     10 H          -3.8844   -0.2415   -1.6369 H.spc      1 <1>        0.000
     11 H          -0.5906    1.1209   -2.3719 H.spc      1 <1>        0.000
     12 H          -2.4374    1.3839   -2.6626 H.spc      1 <1>        0.000
     13 H          -1.4282   -2.3729   -1.1309 H.spc      1 <1>        0.000
@<TRIPOS>BOND
     1    1    2 am 
     2    1    3 2  
     3    2    4 1  
     4    4    5 2  
     5    4    6 1  
     6    6    7 2  
     7    6    8 1  
     8    1    9 1  
     9    2   10 1  
    10    5   11 1  
    11    5   12 1  
    12    8   13 1  
# Name:          frag3-264-3/96164
# Creation time: Sat Jun  5 12:53:22 2010


@<TRIPOS>MOLECULE
frag3-264-3/96164
   13    12     1     1     1
SMALL
USER_CHARGES


@<TRIPOS>ATOM
      1 C4         -3.5598   -1.3012    0.1030 C.2        1 <1>        0.000
      2 N1         -3.0417   -0.1017   -0.2795 N.am       1 <1>        0.000
      3 O1         -3.1748   -2.4531   -0.0543 O.2        1 <1>        0.000
      4 C7         -1.8501    0.1525   -0.8768 C.2        1 <1>        0.000
      5 C8         -1.4804    1.2657   -1.5215 C.2        1 <1>        0.000
      6 C9         -0.7191   -0.8075   -0.8796 C.2        1 <1>        0.000
      7 O2         -0.0566   -1.0876   -1.8604 O.2        1 <1>        0.000
      8 O3         -0.4815   -1.3556    0.3146 O.3        1 <1>        0.000
      9 H          -4.4964   -1.2210    0.6548 H.spc      1 <1>        0.000
     10 H          -3.6261    0.7131   -0.0925 H.spc      1 <1>        0.000
     11 H          -0.4783    1.3440   -1.9431 H.spc      1 <1>        0.000
     12 H          -2.1815    2.0939   -1.6249 H.spc      1 <1>        0.000
     13 H          -1.1069   -1.0085    0.9549 H.spc      1 <1>        0.000
@<TRIPOS>BOND
     1    1    2 am 
     2    1    3 2  
     3    2    4 1  
     4    4    5 2  
     5    4    6 1  
     6    6    7 2  
     7    6    8 1  
     8    1    9 1  
     9    2   10 1  
    10    5   11 1  
    11    5   12 1  
    12    8   13 1  
# Name:          frag3-264-3/96164
# Creation time: Sat Jun  5 12:53:22 2010


@<TRIPOS>MOLECULE
frag3-264-3/96164
   13    12     1     1     1
SMALL
USER_CHARGES


@<TRIPOS>ATOM
      1 C4         -3.7278   -1.6401    0.1966 C.2        1 <1>        0.000
      2 N1         -2.4080   -1.4015    0.0203 N.am       1 <1>        0.000
      3 O1         -4.7172   -1.0122   -0.1308 O.2        1 <1>        0.000
      4 C7         -1.7285   -0.4647   -0.6947 C.2        1 <1>        0.000
      5 C8         -2.1859    0.6311   -1.2976 C.2        1 <1>        0.000
      6 C9         -0.2808   -0.5974   -0.9870 C.2        1 <1>        0.000
      7 O2          0.1865   -1.6919   -1.2403 O.2        1 <1>        0.000
      8 O3          0.4978    0.4881   -0.9211 O.3        1 <1>        0.000
      9 H          -3.9449   -2.5654    0.7303 H.spc      1 <1>        0.000
     10 H          -1.8034   -2.0519    0.5222 H.spc      1 <1>        0.000
     11 H          -1.5099    1.2525   -1.8849 H.spc      1 <1>        0.000
     12 H          -3.2363    0.9066   -1.2038 H.spc      1 <1>        0.000
     13 H          -0.0409    1.2547   -0.7121 H.spc      1 <1>        0.000
@<TRIPOS>BOND
     1    1    2 am 
     2    1    3 2  
     3    2    4 1  
     4    4    5 2  
     5    4    6 1  
     6    6    7 2  
     7    6    8 1  
     8    1    9 1  
     9    2   10 1  
    10    5   11 1  
    11    5   12 1  
    12    8   13 1  
# Name:          frag3-264-3/96164
# Creation time: Sat Jun  5 12:53:22 2010


@<TRIPOS>MOLECULE
frag3-264-3/96164
   13    12     1     1     1
SMALL
USER_CHARGES


@<TRIPOS>ATOM
      1 C4         -3.6632   -1.3525   -0.2493 C.2        1 <1>        0.000
      2 N1         -3.1426   -0.2034   -0.7776 N.am       1 <1>        0.000
      3 O1         -3.1499   -2.2619    0.3931 O.2        1 <1>        0.000
      4 C7         -1.8362    0.1436   -0.8930 C.2        1 <1>        0.000
      5 C8         -1.2811    1.3220   -1.1881 C.2        1 <1>        0.000
      6 C9         -0.7526   -0.8546   -0.8351 C.2        1 <1>        0.000
      7 O2         -0.6860   -1.7807   -1.6321 O.2        1 <1>        0.000
      8 O3          0.1476   -0.7008    0.1275 O.3        1 <1>        0.000
      9 H          -4.7296   -1.4838   -0.4330 H.spc      1 <1>        0.000
     10 H          -3.8189    0.4753   -1.1274 H.spc      1 <1>        0.000
     11 H          -0.2036    1.3952   -1.3354 H.spc      1 <1>        0.000
     12 H          -1.9056    2.2105   -1.2817 H.spc      1 <1>        0.000
     13 H          -0.0712    0.0759    0.6475 H.spc      1 <1>        0.000
@<TRIPOS>BOND
     1    1    2 am 
     2    1    3 2  
     3    2    4 1  
     4    4    5 2  
     5    4    6 1  
     6    6    7 2  
     7    6    8 1  
     8    1    9 1  
     9    2   10 1  
    10    5   11 1  
    11    5   12 1  
    12    8   13 1  
# Name:          frag3-264-3/96164
# Creation time: Sat Jun  5 12:53:22 2010


@<TRIPOS>MOLECULE
frag3-264-3/96164
   13    12     1     1     1
SMALL
USER_CHARGES


@<TRIPOS>ATOM
      1 C4         -3.7161   -1.3171    0.4641 C.2        1 <1>        0.000
      2 N1         -2.4119   -0.9826    0.2721 N.am       1 <1>        0.000
      3 O1         -4.7214   -1.2034   -0.2216 O.2        1 <1>        0.000
      4 C7         -1.7191   -0.4129   -0.7508 C.2        1 <1>        0.000
      5 C8         -2.2135    0.2356   -1.8015 C.2        1 <1>        0.000
      6 C9         -0.2621   -0.5588   -0.9526 C.2        1 <1>        0.000
      7 O2          0.4931    0.3632   -1.2274 O.2        1 <1>        0.000
      8 O3          0.1870   -1.8125   -0.8370 O.3        1 <1>        0.000
      9 H          -3.9039   -1.7839    1.4310 H.spc      1 <1>        0.000
     10 H          -1.8222   -1.2092    1.0729 H.spc      1 <1>        0.000
     11 H          -1.5516    0.5517   -2.6077 H.spc      1 <1>        0.000
     12 H          -3.2806    0.4509   -1.8564 H.spc      1 <1>        0.000
     13 H          -0.5447   -2.3945   -0.6190 H.spc      1 <1>        0.000
@<TRIPOS>BOND
     1    1    2 am 
     2    1    3 2  
     3    2    4 1  
     4    4    5 2  
     5    4    6 1  
     6    6    7 2  
     7    6    8 1  
     8    1    9 1  
     9    2   10 1  
    10    5   11 1  
    11    5   12 1  
    12    8   13 1  
# Name:          frag3-264-3/96164
# Creation time: Sat Jun  5 12:53:22 2010


@<TRIPOS>MOLECULE
frag3-264-3/96164
   13    12     1     1     1
SMALL
USER_CHARGES


@<TRIPOS>ATOM
      1 C4         -3.5512   -0.8817    0.3918 C.2        1 <1>        0.000
      2 N1         -3.0112    0.0042   -0.4962 N.am       1 <1>        0.000
      3 O1         -3.2793   -2.0449    0.6395 O.2        1 <1>        0.000
      4 C7         -1.8844   -0.1423   -1.2516 C.2        1 <1>        0.000
      5 C8         -1.6925    0.2767   -2.5018 C.2        1 <1>        0.000
      6 C9         -0.6680   -0.7715   -0.7237 C.2        1 <1>        0.000
      7 O2         -0.2943   -0.5547    0.4233 O.2        1 <1>        0.000
      8 O3          0.0170   -1.5742   -1.5359 O.3        1 <1>        0.000
      9 H          -4.3714   -0.4774    0.9850 H.spc      1 <1>        0.000
     10 H          -3.5127    0.8852   -0.6088 H.spc      1 <1>        0.000
     11 H          -0.7266    0.1275   -2.9844 H.spc      1 <1>        0.000
     12 H          -2.5014    0.7686   -3.0420 H.spc      1 <1>        0.000
     13 H          -0.4263   -1.6212   -2.3861 H.spc      1 <1>        0.000
@<TRIPOS>BOND
     1    1    2 am 
     2    1    3 2  
     3    2    4 1  
     4    4    5 2  
     5    4    6 1  
     6    6    7 2  
     7    6    8 1  
     8    1    9 1  
     9    2   10 1  
    10    5   11 1  
    11    5   12 1  
    12    8   13 1  
# Name:          frag3-264-3/96164
# Creation time: Sat Jun  5 12:53:22 2010


@<TRIPOS>MOLECULE
frag3-264-3/96164
   13    12     1     1     1
SMALL
USER_CHARGES


@<TRIPOS>ATOM
      1 C4         -3.8757   -1.6389   -0.2874 C.2        1 <1>        0.000
      2 N1         -2.6143   -1.4790   -0.7798 N.am       1 <1>        0.000
      3 O1         -4.5607   -0.9513    0.4494 O.2        1 <1>        0.000
      4 C7         -1.7212   -0.4594   -0.7900 C.2        1 <1>        0.000
      5 C8         -1.9724    0.8451   -0.6525 C.2        1 <1>        0.000
      6 C9         -0.2828   -0.6089   -1.0026 C.2        1 <1>        0.000
      7 O2          0.2915   -0.2520   -2.0218 O.2        1 <1>        0.000
      8 O3          0.3716   -1.1441    0.0300 O.3        1 <1>        0.000
      9 H          -4.3644   -2.5564   -0.6152 H.spc      1 <1>        0.000
     10 H          -2.2634   -2.3158   -1.2458 H.spc      1 <1>        0.000
     11 H          -1.1570    1.5661   -0.7098 H.spc      1 <1>        0.000
     12 H          -2.9928    1.1887   -0.4830 H.spc      1 <1>        0.000
     13 H          -0.2526   -1.3560    0.7279 H.spc      1 <1>        0.000
@<TRIPOS>BOND
     1    1    2 am 
     2    1    3 2  
     3    2    4 1  
     4    4    5 2  
     5    4    6 1  
     6    6    7 2  
     7    6    8 1  
     8    1    9 1  
     9    2   10 1  
    10    5   11 1  
    11    5   12 1  
    12    8   13 1  
# Name:          frag3-264-3/96164
# Creation time: Sat Jun  5 12:53:22 2010


@<TRIPOS>MOLECULE
frag3-264-3/96164
   13    12     1     1     1
SMALL
USER_CHARGES


@<TRIPOS>ATOM
      1 C4         -3.3415   -1.5903    0.1334 C.2        1 <1>        0.000
      2 N1         -2.9435   -0.4656   -0.5135 N.am       1 <1>        0.000
      3 O1         -4.4386   -1.9046    0.5718 O.2        1 <1>        0.000
      4 C7         -1.7604   -0.0289   -1.0190 C.2        1 <1>        0.000
      5 C8         -1.6362    1.0997   -1.7434 C.2        1 <1>        0.000
      6 C9         -0.4718   -0.7569   -0.8859 C.2        1 <1>        0.000
      7 O2         -0.4459   -1.9751   -0.7538 O.2        1 <1>        0.000
      8 O3          0.6738   -0.0667   -0.8441 O.3        1 <1>        0.000
      9 H          -2.5576   -2.3320    0.2866 H.spc      1 <1>        0.000
     10 H          -3.7028    0.2014   -0.6510 H.spc      1 <1>        0.000
     11 H          -0.6659    1.3804   -2.1529 H.spc      1 <1>        0.000
     12 H          -2.5060    1.7324   -1.9201 H.spc      1 <1>        0.000
     13 H           0.4876    0.8677   -0.9621 H.spc      1 <1>        0.000
@<TRIPOS>BOND
     1    1    2 am 
     2    1    3 2  
     3    2    4 1  
     4    4    5 2  
     5    4    6 1  
     6    6    7 2  
     7    6    8 1  
     8    1    9 1  
     9    2   10 1  
    10    5   11 1  
    11    5   12 1  
    12    8   13 1  
# Name:          frag3-264-3/96164 -- energy: -0.361079
# Creation time: Sat Jun  5 12:53:22 2010


@<TRIPOS>MOLECULE
frag3-264-3/96164 -- energy: -0.361079
   13    12     1     1     1
SMALL
USER_CHARGES


@<TRIPOS>ATOM
      1 C4         -3.2529   -1.5322    0.2773 C.2        1 <1>        0.000
      2 N1         -2.9681   -0.5487   -0.6131 N.am       1 <1>        0.000
      3 O1         -4.2997   -1.8068    0.8520 O.2        1 <1>        0.000
      4 C7         -1.8162   -0.1289   -1.1877 C.2        1 <1>        0.000
      5 C8         -1.6892    0.7793   -2.1672 C.2        1 <1>        0.000
      6 C9         -0.4639   -0.6179   -0.8319 C.2        1 <1>        0.000
      7 O2          0.4858    0.1184   -0.6039 O.2        1 <1>        0.000
      8 O3         -0.3599   -1.9517   -0.7801 O.3        1 <1>        0.000
      9 H          -2.4140   -2.1841    0.5210 H.spc      1 <1>        0.000
     10 H          -3.7875   -0.0184   -0.9095 H.spc      1 <1>        0.000
     11 H          -0.7011    1.0303   -2.5530 H.spc      1 <1>        0.000
     12 H          -2.5741    1.2661   -2.5771 H.spc      1 <1>        0.000
     13 H          -1.2098   -2.3462   -0.9892 H.spc      1 <1>        0.000
@<TRIPOS>BOND
     1    1    2 am 
     2    1    3 2  
     3    2    4 1  
     4    4    5 2  
     5    4    6 1  
     6    6    7 2  
     7    6    8 1  
     8    1    9 1  
     9    2   10 1  
    10    5   11 1  
    11    5   12 1  
    12    8   13 1  
# Name:          frag3-264-3/96164 -- energy: -1.015634
# Creation time: Sat Jun  5 12:53:22 2010


@<TRIPOS>MOLECULE
frag3-264-3/96164 -- energy: -1.015634
   13    12     1     1     1
SMALL
USER_CHARGES


@<TRIPOS>ATOM
      1 C4         -3.5971   -1.3380    0.0340 C.2        1 <1>        0.000
      2 N1         -3.1604   -0.5507   -0.9884 N.am       1 <1>        0.000
      3 O1         -3.0634   -1.7700    1.0503 O.2        1 <1>        0.000
      4 C7         -1.9045   -0.1151   -1.2743 C.2        1 <1>        0.000
      5 C8         -1.6267    0.8578   -2.1586 C.2        1 <1>        0.000
      6 C9         -0.6596   -0.6935   -0.7107 C.2        1 <1>        0.000
      7 O2          0.2634   -0.0418   -0.2617 O.2        1 <1>        0.000
      8 O3         -0.6157   -2.0371   -0.7453 O.3        1 <1>        0.000
      9 H          -4.6364   -1.6484   -0.0734 H.spc      1 <1>        0.000
     10 H          -3.8844   -0.2415   -1.6369 H.spc      1 <1>        0.000
     11 H          -0.5906    1.1209   -2.3719 H.spc      1 <1>        0.000
     12 H          -2.4374    1.3839   -2.6626 H.spc      1 <1>        0.000
     13 H          -1.4282   -2.3729   -1.1309 H.spc      1 <1>        0.000
@<TRIPOS>BOND
     1    1    2 am 
     2    1    3 2  
     3    2    4 1  
     4    4    5 2  
     5    4    6 1  
     6    6    7 2  
     7    6    8 1  
     8    1    9 1  
     9    2   10 1  
    10    5   11 1  
    11    5   12 1  
    12    8   13 1  
# Name:          frag3-264-3/96164 -- energy: -0.810977
# Creation time: Sat Jun  5 12:53:22 2010


@<TRIPOS>MOLECULE
frag3-264-3/96164 -- energy: -0.810977
   13    12     1     1     1
SMALL
USER_CHARGES


@<TRIPOS>ATOM
      1 C4         -3.5598   -1.3012    0.1030 C.2        1 <1>        0.000
      2 N1         -3.0417   -0.1017   -0.2795 N.am       1 <1>        0.000
      3 O1         -3.1748   -2.4531   -0.0543 O.2        1 <1>        0.000
      4 C7         -1.8501    0.1525   -0.8768 C.2        1 <1>        0.000
      5 C8         -1.4804    1.2657   -1.5215 C.2        1 <1>        0.000
      6 C9         -0.7191   -0.8075   -0.8796 C.2        1 <1>        0.000
      7 O2         -0.0566   -1.0876   -1.8604 O.2        1 <1>        0.000
      8 O3         -0.4815   -1.3556    0.3146 O.3        1 <1>        0.000
      9 H          -4.4964   -1.2210    0.6548 H.spc      1 <1>        0.000
     10 H          -3.6261    0.7131   -0.0925 H.spc      1 <1>        0.000
     11 H          -0.4783    1.3440   -1.9431 H.spc      1 <1>        0.000
     12 H          -2.1815    2.0939   -1.6249 H.spc      1 <1>        0.000
     13 H          -1.1069   -1.0085    0.9549 H.spc      1 <1>        0.000
@<TRIPOS>BOND
     1    1    2 am 
     2    1    3 2  
     3    2    4 1  
     4    4    5 2  
     5    4    6 1  
     6    6    7 2  
     7    6    8 1  
     8    1    9 1  
     9    2   10 1  
    10    5   11 1  
    11    5   12 1  
    12    8   13 1  
# Name:          frag3-264-3/96164 -- energy: 0.297127
# Creation time: Sat Jun  5 12:53:22 2010


@<TRIPOS>MOLECULE
frag3-264-3/96164 -- energy: 0.297127
   13    12     1     1     1
SMALL
USER_CHARGES


@<TRIPOS>ATOM
      1 C4         -3.7278   -1.6401    0.1966 C.2        1 <1>        0.000
      2 N1         -2.4080   -1.4015    0.0203 N.am       1 <1>        0.000
      3 O1         -4.7172   -1.0122   -0.1308 O.2        1 <1>        0.000
      4 C7         -1.7285   -0.4647   -0.6947 C.2        1 <1>        0.000
      5 C8         -2.1859    0.6311   -1.2976 C.2        1 <1>        0.000
      6 C9         -0.2808   -0.5974   -0.9870 C.2        1 <1>        0.000
      7 O2          0.1865   -1.6919   -1.2403 O.2        1 <1>        0.000
      8 O3          0.4978    0.4881   -0.9211 O.3        1 <1>        0.000
      9 H          -3.9449   -2.5654    0.7303 H.spc      1 <1>        0.000
     10 H          -1.8034   -2.0519    0.5222 H.spc      1 <1>        0.000
     11 H          -1.5099    1.2525   -1.8849 H.spc      1 <1>        0.000
     12 H          -3.2363    0.9066   -1.2038 H.spc      1 <1>        0.000
     13 H          -0.0409    1.2547   -0.7121 H.spc      1 <1>        0.000
@<TRIPOS>BOND
     1    1    2 am 
     2    1    3 2  
     3    2    4 1  
     4    4    5 2  
     5    4    6 1  
     6    6    7 2  
     7    6    8 1  
     8    1    9 1  
     9    2   10 1  
    10    5   11 1  
    11    5   12 1  
    12    8   13 1  
# Name:          frag3-264-3/96164 -- energy: -0.857763
# Creation time: Sat Jun  5 12:53:22 2010


@<TRIPOS>MOLECULE
frag3-264-3/96164 -- energy: -0.857763
   13    12     1     1     1
SMALL
USER_CHARGES


@<TRIPOS>ATOM
      1 C4         -3.6632   -1.3525   -0.2493 C.2        1 <1>        0.000
      2 N1         -3.1426   -0.2034   -0.7776 N.am       1 <1>        0.000
      3 O1         -3.1499   -2.2619    0.3931 O.2        1 <1>        0.000
      4 C7         -1.8362    0.1436   -0.8930 C.2        1 <1>        0.000
      5 C8         -1.2811    1.3220   -1.1881 C.2        1 <1>        0.000
      6 C9         -0.7526   -0.8546   -0.8351 C.2        1 <1>        0.000
      7 O2         -0.6860   -1.7807   -1.6321 O.2        1 <1>        0.000
      8 O3          0.1476   -0.7008    0.1275 O.3        1 <1>        0.000
      9 H          -4.7296   -1.4838   -0.4330 H.spc      1 <1>        0.000
     10 H          -3.8189    0.4753   -1.1274 H.spc      1 <1>        0.000
     11 H          -0.2036    1.3952   -1.3354 H.spc      1 <1>        0.000
     12 H          -1.9056    2.2105   -1.2817 H.spc      1 <1>        0.000
     13 H          -0.0712    0.0759    0.6475 H.spc      1 <1>        0.000
@<TRIPOS>BOND
     1    1    2 am 
     2    1    3 2  
     3    2    4 1  
     4    4    5 2  
     5    4    6 1  
     6    6    7 2  
     7    6    8 1  
     8    1    9 1  
     9    2   10 1  
    10    5   11 1  
    11    5   12 1  
    12    8   13 1  
# Name:          frag3-264-3/96164 -- energy: -0.751194
# Creation time: Sat Jun  5 12:53:22 2010


@<TRIPOS>MOLECULE
frag3-264-3/96164 -- energy: -0.751194
   13    12     1     1     1
SMALL
USER_CHARGES


@<TRIPOS>ATOM
      1 C4         -3.7161   -1.3171    0.4641 C.2        1 <1>        0.000
      2 N1         -2.4119   -0.9826    0.2721 N.am       1 <1>        0.000
      3 O1         -4.7214   -1.2034   -0.2216 O.2        1 <1>        0.000
      4 C7         -1.7191   -0.4129   -0.7508 C.2        1 <1>        0.000
      5 C8         -2.2135    0.2356   -1.8015 C.2        1 <1>        0.000
      6 C9         -0.2621   -0.5588   -0.9526 C.2        1 <1>        0.000
      7 O2          0.4931    0.3632   -1.2274 O.2        1 <1>        0.000
      8 O3          0.1870   -1.8125   -0.8370 O.3        1 <1>        0.000
      9 H          -3.9039   -1.7839    1.4310 H.spc      1 <1>        0.000
     10 H          -1.8222   -1.2092    1.0729 H.spc      1 <1>        0.000
     11 H          -1.5516    0.5517   -2.6077 H.spc      1 <1>        0.000
     12 H          -3.2806    0.4509   -1.8564 H.spc      1 <1>        0.000
     13 H          -0.5447   -2.3945   -0.6190 H.spc      1 <1>        0.000
@<TRIPOS>BOND
     1    1    2 am 
     2    1    3 2  
     3    2    4 1  
     4    4    5 2  
     5    4    6 1  
     6    6    7 2  
     7    6    8 1  
     8    1    9 1  
     9    2   10 1  
    10    5   11 1  
    11    5   12 1  
    12    8   13 1  
# Name:          frag3-264-3/96164 -- energy: 0.350768
# Creation time: Sat Jun  5 12:53:22 2010


@<TRIPOS>MOLECULE
frag3-264-3/96164 -- energy: 0.350768
   13    12     1     1     1
SMALL
USER_CHARGES


@<TRIPOS>ATOM
      1 C4         -3.5512   -0.8817    0.3918 C.2        1 <1>        0.000
      2 N1         -3.0112    0.0042   -0.4962 N.am       1 <1>        0.000
      3 O1         -3.2793   -2.0449    0.6395 O.2        1 <1>        0.000
      4 C7         -1.8844   -0.1423   -1.2516 C.2        1 <1>        0.000
      5 C8         -1.6925    0.2767   -2.5018 C.2        1 <1>        0.000
      6 C9         -0.6680   -0.7715   -0.7237 C.2        1 <1>        0.000
      7 O2         -0.2943   -0.5547    0.4233 O.2        1 <1>        0.000
      8 O3          0.0170   -1.5742   -1.5359 O.3        1 <1>        0.000
      9 H          -4.3714   -0.4774    0.9850 H.spc      1 <1>        0.000
     10 H          -3.5127    0.8852   -0.6088 H.spc      1 <1>        0.000
     11 H          -0.7266    0.1275   -2.9844 H.spc      1 <1>        0.000
     12 H          -2.5014    0.7686   -3.0420 H.spc      1 <1>        0.000
     13 H          -0.4263   -1.6212   -2.3861 H.spc      1 <1>        0.000
@<TRIPOS>BOND
     1    1    2 am 
     2    1    3 2  
     3    2    4 1  
     4    4    5 2  
     5    4    6 1  
     6    6    7 2  
     7    6    8 1  
     8    1    9 1  
     9    2   10 1  
    10    5   11 1  
    11    5   12 1  
    12    8   13 1  
# Name:          frag3-264-3/96164 -- energy: -0.837068
# Creation time: Sat Jun  5 12:53:22 2010


@<TRIPOS>MOLECULE
frag3-264-3/96164 -- energy: -0.837068
   13    12     1     1     1
SMALL
USER_CHARGES


@<TRIPOS>ATOM
      1 C4         -3.8757   -1.6389   -0.2874 C.2        1 <1>        0.000
      2 N1         -2.6143   -1.4790   -0.7798 N.am       1 <1>        0.000
      3 O1         -4.5607   -0.9513    0.4494 O.2        1 <1>        0.000
      4 C7         -1.7212   -0.4594   -0.7900 C.2        1 <1>        0.000
      5 C8         -1.9724    0.8451   -0.6525 C.2        1 <1>        0.000
      6 C9         -0.2828   -0.6089   -1.0026 C.2        1 <1>        0.000
      7 O2          0.2915   -0.2520   -2.0218 O.2        1 <1>        0.000
      8 O3          0.3716   -1.1441    0.0300 O.3        1 <1>        0.000
      9 H          -4.3644   -2.5564   -0.6152 H.spc      1 <1>        0.000
     10 H          -2.2634   -2.3158   -1.2458 H.spc      1 <1>        0.000
     11 H          -1.1570    1.5661   -0.7098 H.spc      1 <1>        0.000
     12 H          -2.9928    1.1887   -0.4830 H.spc      1 <1>        0.000
     13 H          -0.2526   -1.3560    0.7279 H.spc      1 <1>        0.000
@<TRIPOS>BOND
     1    1    2 am 
     2    1    3 2  
     3    2    4 1  
     4    4    5 2  
     5    4    6 1  
     6    6    7 2  
     7    6    8 1  
     8    1    9 1  
     9    2   10 1  
    10    5   11 1  
    11    5   12 1  
    12    8   13 1  
# Name:          frag3-264-3/96164 -- energy: 1.532617
# Creation time: Sat Jun  5 12:53:22 2010


@<TRIPOS>MOLECULE
frag3-264-3/96164 -- energy: 1.532617
   13    12     1     1     1
SMALL
USER_CHARGES


@<TRIPOS>ATOM
      1 C4         -3.3415   -1.5903    0.1334 C.2        1 <1>        0.000
      2 N1         -2.9435   -0.4656   -0.5135 N.am       1 <1>        0.000
      3 O1         -4.4386   -1.9046    0.5718 O.2        1 <1>        0.000
      4 C7         -1.7604   -0.0289   -1.0190 C.2        1 <1>        0.000
      5 C8         -1.6362    1.0997   -1.7434 C.2        1 <1>        0.000
      6 C9         -0.4718   -0.7569   -0.8859 C.2        1 <1>        0.000
      7 O2         -0.4459   -1.9751   -0.7538 O.2        1 <1>        0.000
      8 O3          0.6738   -0.0667   -0.8441 O.3        1 <1>        0.000
      9 H          -2.5576   -2.3320    0.2866 H.spc      1 <1>        0.000
     10 H          -3.7028    0.2014   -0.6510 H.spc      1 <1>        0.000
     11 H          -0.6659    1.3804   -2.1529 H.spc      1 <1>        0.000
     12 H          -2.5060    1.7324   -1.9201 H.spc      1 <1>        0.000
     13 H           0.4876    0.8677   -0.9621 H.spc      1 <1>        0.000
@<TRIPOS>BOND
     1    1    2 am 
     2    1    3 2  
     3    2    4 1  
     4    4    5 2  
     5    4    6 1  
     6    6    7 2  
     7    6    8 1  
     8    1    9 1  
     9    2   10 1  
    10    5   11 1  
    11    5   12 1  
    12    8   13 1  
