#      Rotatable Fragment
#      Build by yxyuan
#
# Name:          frag2-039-616/319335
# Creation time: Sat Jun  5 12:53:34 2010


@<TRIPOS>MOLECULE
frag2-039-616/319335
   16    17     1     1     1
SMALL
USER_CHARGES


@<TRIPOS>ATOM
      1 C1          1.7941    0.8173   -0.3385 C.ar       1 <1>        0.000
      2 C2          0.4445    0.5250   -0.1448 C.ar       1 <1>        0.000
      3 N2          2.7214   -0.1558   -0.2486 N.ar       1 <1>        0.000
      4 C3          0.0927   -0.8061    0.1491 C.ar       1 <1>        0.000
      5 C4         -0.5639    1.4933   -0.2303 C.ar       1 <1>        0.000
      6 C7          2.3562   -1.4254    0.0294 C.ar       1 <1>        0.000
      7 N3          1.0667   -1.7369    0.2285 N.ar       1 <1>        0.000
      8 C8         -1.2435   -1.1388    0.3503 C.ar       1 <1>        0.000
      9 C9         -1.8971    1.1472   -0.0292 C.ar       1 <1>        0.000
     10 C12        -2.2365   -0.1741    0.2627 C.ar       1 <1>        0.000
     11 H           2.1005    1.8388   -0.5639 H.spc      1 <1>        0.000
     12 H          -0.3024    2.5270   -0.4563 H.spc      1 <1>        0.000
     13 H           3.1160   -2.2044    0.0926 H.spc      1 <1>        0.000
     14 H          -1.5131   -2.1698    0.5795 H.spc      1 <1>        0.000
     15 H          -2.6749    1.9076   -0.0997 H.spc      1 <1>        0.000
     16 H          -3.2795   -0.4478    0.4216 H.spc      1 <1>        0.000
@<TRIPOS>BOND
     1    8   10 ar 
     2    9   10 ar 
     3    1    2 ar 
     4    2    4 ar 
     5    1    3 ar 
     6    2    5 ar 
     7    3    6 ar 
     8    4    7 ar 
     9    4    8 ar 
    10    5    9 ar 
    11    6    7 ar 
    12    1   11 1  
    13    5   12 1  
    14    6   13 1  
    15    8   14 1  
    16    9   15 1  
    17   10   16 1  
# Name:          frag2-039-616/319335 -- energy: 0.019851
# Creation time: Sat Jun  5 12:53:34 2010


@<TRIPOS>MOLECULE
frag2-039-616/319335 -- energy: 0.019851
   16    17     1     1     1
SMALL
USER_CHARGES


@<TRIPOS>ATOM
      1 C1          1.7941    0.8173   -0.3385 C.ar       1 <1>        0.000
      2 C2          0.4445    0.5250   -0.1448 C.ar       1 <1>        0.000
      3 N2          2.7214   -0.1558   -0.2486 N.ar       1 <1>        0.000
      4 C3          0.0927   -0.8061    0.1491 C.ar       1 <1>        0.000
      5 C4         -0.5639    1.4933   -0.2303 C.ar       1 <1>        0.000
      6 C7          2.3562   -1.4254    0.0294 C.ar       1 <1>        0.000
      7 N3          1.0667   -1.7369    0.2285 N.ar       1 <1>        0.000
      8 C8         -1.2435   -1.1388    0.3503 C.ar       1 <1>        0.000
      9 C9         -1.8971    1.1472   -0.0292 C.ar       1 <1>        0.000
     10 C12        -2.2365   -0.1741    0.2627 C.ar       1 <1>        0.000
     11 H           2.1005    1.8388   -0.5639 H.spc      1 <1>        0.000
     12 H          -0.3024    2.5270   -0.4563 H.spc      1 <1>        0.000
     13 H           3.1160   -2.2044    0.0926 H.spc      1 <1>        0.000
     14 H          -1.5131   -2.1698    0.5795 H.spc      1 <1>        0.000
     15 H          -2.6749    1.9076   -0.0997 H.spc      1 <1>        0.000
     16 H          -3.2795   -0.4478    0.4216 H.spc      1 <1>        0.000
@<TRIPOS>BOND
     1    8   10 ar 
     2    9   10 ar 
     3    1    2 ar 
     4    2    4 ar 
     5    1    3 ar 
     6    2    5 ar 
     7    3    6 ar 
     8    4    7 ar 
     9    4    8 ar 
    10    5    9 ar 
    11    6    7 ar 
    12    1   11 1  
    13    5   12 1  
    14    6   13 1  
    15    8   14 1  
    16    9   15 1  
    17   10   16 1  
