#      Rotatable Fragment
#      Build by yxyuan
#
# Name:          frag4-357-107/48856
# Creation time: Sat Jun  5 12:53:13 2010


@<TRIPOS>MOLECULE
frag4-357-107/48856
    9     9     1     1     1
SMALL
USER_CHARGES


@<TRIPOS>ATOM
      1 C5         -1.0372    0.1447    0.0075 C.2        1 <1>        0.000
      2 O1         -0.5492    1.3802   -0.0753 O.3        1 <1>        0.000
      3 N2          0.6589    1.3726   -0.2618 N.2        1 <1>        0.000
      4 C6          1.1463    0.0086   -0.0884 C.3        1 <1>        0.000
      5 C7         -0.0642   -0.7923    0.0374 C.2        1 <1>        0.000
      6 H          -2.1019   -0.0853    0.0468 H.spc      1 <1>        0.000
      7 H           1.7949   -0.0881    0.7823 H.spc      1 <1>        0.000
      8 H           1.7675   -0.3147   -0.9236 H.spc      1 <1>        0.000
      9 H          -0.1605   -1.8739    0.1318 H.spc      1 <1>        0.000
@<TRIPOS>BOND
     1    1    2 1  
     2    1    5 2  
     3    2    3 2  
     4    3    4 1  
     5    4    5 1  
     6    1    6 1  
     7    4    7 1  
     8    4    8 1  
     9    5    9 1  
# Name:          frag4-357-107/48856 -- energy: -0.263257
# Creation time: Sat Jun  5 12:53:13 2010


@<TRIPOS>MOLECULE
frag4-357-107/48856 -- energy: -0.263257
    9     9     1     1     1
SMALL
USER_CHARGES


@<TRIPOS>ATOM
      1 C5         -1.0372    0.1447    0.0075 C.2        1 <1>        0.000
      2 O1         -0.5492    1.3802   -0.0753 O.3        1 <1>        0.000
      3 N2          0.6589    1.3726   -0.2618 N.2        1 <1>        0.000
      4 C6          1.1463    0.0086   -0.0884 C.3        1 <1>        0.000
      5 C7         -0.0642   -0.7923    0.0374 C.2        1 <1>        0.000
      6 H          -2.1019   -0.0853    0.0468 H.spc      1 <1>        0.000
      7 H           1.7949   -0.0881    0.7823 H.spc      1 <1>        0.000
      8 H           1.7675   -0.3147   -0.9236 H.spc      1 <1>        0.000
      9 H          -0.1605   -1.8739    0.1318 H.spc      1 <1>        0.000
@<TRIPOS>BOND
     1    1    2 1  
     2    1    5 2  
     3    2    3 2  
     4    3    4 1  
     5    4    5 1  
     6    1    6 1  
     7    4    7 1  
     8    4    8 1  
     9    5    9 1  
