#      Rotatable Fragment
#      Build by yxyuan
#
# Name:          frag4-420-51/48856
# Creation time: Sat Jun  5 12:52:05 2010


@<TRIPOS>MOLECULE
frag4-420-51/48856
   22    24     1     1     1
SMALL
USER_CHARGES


@<TRIPOS>ATOM
      1 C1          3.6491   -0.8082    0.2247 C.ar       1 <1>        0.000
      2 C2          2.4217   -1.4260    0.5489 C.ar       1 <1>        0.000
      3 C3          1.2568   -0.7159    0.2752 C.ar       1 <1>        0.000
      4 C4          1.1975    0.5603   -0.2926 C.ar       1 <1>        0.000
      5 C5          2.4624    1.1337   -0.5997 C.ar       1 <1>        0.000
      6 C6          3.6653    0.4637   -0.3456 C.ar       1 <1>        0.000
      7 N1          0.0148    1.2046   -0.5346 N.ar       1 <1>        0.000
      8 C7         -1.1876    0.6091   -0.2250 C.ar       1 <1>        0.000
      9 C8         -2.5465    1.2236   -0.4512 C.ar       1 <1>        0.000
     10 C9         -3.6931    0.6261   -0.1474 C.ar       1 <1>        0.000
     11 C10        -3.6267   -0.6773    0.4324 C.ar       1 <1>        0.000
     12 C11        -2.4414   -1.3450    0.6940 C.ar       1 <1>        0.000
     13 C12        -1.1766   -0.7277    0.3722 C.ar       1 <1>        0.000
     14 N2          0.0601   -1.3365    0.5989 N.ar       1 <1>        0.000
     15 H           4.5871   -1.3275    0.4210 H.spc      1 <1>        0.000
     16 H           2.3880   -2.4196    0.9958 H.spc      1 <1>        0.000
     17 H           2.4964    2.1269   -1.0474 H.spc      1 <1>        0.000
     18 H           4.6152    0.9371   -0.5939 H.spc      1 <1>        0.000
     19 H          -2.5902    2.2198   -0.8913 H.spc      1 <1>        0.000
     20 H          -4.6503    1.1130   -0.3339 H.spc      1 <1>        0.000
     21 H          -4.5629   -1.1757    0.6837 H.spc      1 <1>        0.000
     22 H          -2.4637   -2.3378    1.1434 H.spc      1 <1>        0.000
@<TRIPOS>BOND
     1    2    3 ar 
     2    8   13 ar 
     3   13   14 ar 
     4    4    5 ar 
     5    8    9 ar 
     6    1    2 ar 
     7    3    4 ar 
     8    9   10 ar 
     9    5    6 ar 
    10    3   14 ar 
    11   11   12 ar 
    12    1    6 ar 
    13   10   11 ar 
    14    4    7 ar 
    15   12   13 ar 
    16    7    8 ar 
    17    1   15 1  
    18    2   16 1  
    19    5   17 1  
    20    6   18 1  
    21    9   19 1  
    22   10   20 1  
    23   11   21 1  
    24   12   22 1  
# Name:          frag4-420-51/48856 -- energy: -0.570475
# Creation time: Sat Jun  5 12:52:05 2010


@<TRIPOS>MOLECULE
frag4-420-51/48856 -- energy: -0.570475
   22    24     1     1     1
SMALL
USER_CHARGES


@<TRIPOS>ATOM
      1 C1          3.6491   -0.8082    0.2247 C.ar       1 <1>        0.000
      2 C2          2.4217   -1.4260    0.5489 C.ar       1 <1>        0.000
      3 C3          1.2568   -0.7159    0.2752 C.ar       1 <1>        0.000
      4 C4          1.1975    0.5603   -0.2926 C.ar       1 <1>        0.000
      5 C5          2.4624    1.1337   -0.5997 C.ar       1 <1>        0.000
      6 C6          3.6653    0.4637   -0.3456 C.ar       1 <1>        0.000
      7 N1          0.0148    1.2046   -0.5346 N.ar       1 <1>        0.000
      8 C7         -1.1876    0.6091   -0.2250 C.ar       1 <1>        0.000
      9 C8         -2.5465    1.2236   -0.4512 C.ar       1 <1>        0.000
     10 C9         -3.6931    0.6261   -0.1474 C.ar       1 <1>        0.000
     11 C10        -3.6267   -0.6773    0.4324 C.ar       1 <1>        0.000
     12 C11        -2.4414   -1.3450    0.6940 C.ar       1 <1>        0.000
     13 C12        -1.1766   -0.7277    0.3722 C.ar       1 <1>        0.000
     14 N2          0.0601   -1.3365    0.5989 N.ar       1 <1>        0.000
     15 H           4.5871   -1.3275    0.4210 H.spc      1 <1>        0.000
     16 H           2.3880   -2.4196    0.9958 H.spc      1 <1>        0.000
     17 H           2.4964    2.1269   -1.0474 H.spc      1 <1>        0.000
     18 H           4.6152    0.9371   -0.5939 H.spc      1 <1>        0.000
     19 H          -2.5902    2.2198   -0.8913 H.spc      1 <1>        0.000
     20 H          -4.6503    1.1130   -0.3339 H.spc      1 <1>        0.000
     21 H          -4.5629   -1.1757    0.6837 H.spc      1 <1>        0.000
     22 H          -2.4637   -2.3378    1.1434 H.spc      1 <1>        0.000
@<TRIPOS>BOND
     1    2    3 ar 
     2    8   13 ar 
     3   13   14 ar 
     4    4    5 ar 
     5    8    9 ar 
     6    1    2 ar 
     7    3    4 ar 
     8    9   10 ar 
     9    5    6 ar 
    10    3   14 ar 
    11   11   12 ar 
    12    1    6 ar 
    13   10   11 ar 
    14    4    7 ar 
    15   12   13 ar 
    16    7    8 ar 
    17    1   15 1  
    18    2   16 1  
    19    5   17 1  
    20    6   18 1  
    21    9   19 1  
    22   10   20 1  
    23   11   21 1  
    24   12   22 1  
