#      Rotatable Fragment
#      Build by yxyuan
#
# Name:          frag5-576-134/138278
# Creation time: Sat Jun  5 12:53:44 2010


@<TRIPOS>MOLECULE
frag5-576-134/138278
   13    13     1     1     1
SMALL
USER_CHARGES


@<TRIPOS>ATOM
      1 O2          0.9196   -1.1629    0.0344 O.3        1 <1>        0.000
      2 C16         2.1231   -0.4840    0.0352 C.ar       1 <1>        0.000
      3 C17         3.3417   -1.1754    0.0680 C.ar       1 <1>        0.000
      4 C18         2.1436    0.9189    0.0136 C.ar       1 <1>        0.000
      5 C19         4.5507   -0.4843    0.1069 C.ar       1 <1>        0.000
      6 C20         3.3528    1.6143    0.0606 C.ar       1 <1>        0.000
      7 C21         4.5603    0.9118    0.0982 C.ar       1 <1>        0.000
      8 F1          5.7160    1.5696    0.1256 F          1 <1>        0.000
      9 H           0.1972   -0.5312    0.0098 H.spc      1 <1>        0.000
     10 H           3.3436   -2.2654    0.0630 H.spc      1 <1>        0.000
     11 H           1.2055    1.4713   -0.0404 H.spc      1 <1>        0.000
     12 H           5.4909   -1.0345    0.1442 H.spc      1 <1>        0.000
     13 H           3.3553    2.7043    0.0680 H.spc      1 <1>        0.000
@<TRIPOS>BOND
     1    1    2 1  
     2    2    3 ar 
     3    2    4 ar 
     4    3    5 ar 
     5    4    6 ar 
     6    5    7 ar 
     7    6    7 ar 
     8    7    8 1  
     9    1    9 1  
    10    3   10 1  
    11    4   11 1  
    12    5   12 1  
    13    6   13 1  
# Name:          frag5-576-134/138278 -- energy: -0.072898
# Creation time: Sat Jun  5 12:53:44 2010


@<TRIPOS>MOLECULE
frag5-576-134/138278 -- energy: -0.072898
   13    13     1     1     1
SMALL
USER_CHARGES


@<TRIPOS>ATOM
      1 O2          0.9196   -1.1629    0.0344 O.3        1 <1>        0.000
      2 C16         2.1231   -0.4840    0.0352 C.ar       1 <1>        0.000
      3 C17         3.3417   -1.1754    0.0680 C.ar       1 <1>        0.000
      4 C18         2.1436    0.9189    0.0136 C.ar       1 <1>        0.000
      5 C19         4.5507   -0.4843    0.1069 C.ar       1 <1>        0.000
      6 C20         3.3528    1.6143    0.0606 C.ar       1 <1>        0.000
      7 C21         4.5603    0.9118    0.0982 C.ar       1 <1>        0.000
      8 F1          5.7160    1.5696    0.1256 F          1 <1>        0.000
      9 H           0.1972   -0.5312    0.0098 H.spc      1 <1>        0.000
     10 H           3.3436   -2.2654    0.0630 H.spc      1 <1>        0.000
     11 H           1.2055    1.4713   -0.0404 H.spc      1 <1>        0.000
     12 H           5.4909   -1.0345    0.1442 H.spc      1 <1>        0.000
     13 H           3.3553    2.7043    0.0680 H.spc      1 <1>        0.000
@<TRIPOS>BOND
     1    1    2 1  
     2    2    3 ar 
     3    2    4 ar 
     4    3    5 ar 
     5    4    6 ar 
     6    5    7 ar 
     7    6    7 ar 
     8    7    8 1  
     9    1    9 1  
    10    3   10 1  
    11    4   11 1  
    12    5   12 1  
    13    6   13 1  
