#      Rotatable Fragment
#      Build by yxyuan
#
# Name:          frag3-208-4/31924
# Creation time: Sat Jun  5 12:52:20 2010


@<TRIPOS>MOLECULE
frag3-208-4/31924
    7     6     1     1     1
SMALL
USER_CHARGES


@<TRIPOS>ATOM
      1 C8          0.2680   -0.2070    0.1417 C.2        1 <1>        0.000
      2 N2          1.2240    0.5526   -0.2637 N.2        1 <1>        0.000
      3 N3         -1.0705    0.0314   -0.0507 N.pl3      1 <1>        0.000
      4 H           0.5428   -1.1131    0.6816 H.spc      1 <1>        0.000
      5 H           1.0126    1.4107   -0.7730 H.spc      1 <1>        0.000
      6 H          -1.3729    0.8674   -0.5507 H.spc      1 <1>        0.000
      7 H          -1.7624   -0.6275    0.3064 H.spc      1 <1>        0.000
@<TRIPOS>BOND
     1    1    3 1  
     2    1    2 2  
     3    1    4 1  
     4    2    5 1  
     5    3    6 1  
     6    3    7 1  
# Name:          frag3-208-4/31924 -- energy: -0.162792
# Creation time: Sat Jun  5 12:52:20 2010


@<TRIPOS>MOLECULE
frag3-208-4/31924 -- energy: -0.162792
    7     6     1     1     1
SMALL
USER_CHARGES


@<TRIPOS>ATOM
      1 C8          0.2680   -0.2070    0.1417 C.2        1 <1>        0.000
      2 N2          1.2240    0.5526   -0.2637 N.2        1 <1>        0.000
      3 N3         -1.0705    0.0314   -0.0507 N.pl3      1 <1>        0.000
      4 H           0.5428   -1.1131    0.6816 H.spc      1 <1>        0.000
      5 H           1.0126    1.4107   -0.7730 H.spc      1 <1>        0.000
      6 H          -1.3729    0.8674   -0.5507 H.spc      1 <1>        0.000
      7 H          -1.7624   -0.6275    0.3064 H.spc      1 <1>        0.000
@<TRIPOS>BOND
     1    1    3 1  
     2    1    2 2  
     3    1    4 1  
     4    2    5 1  
     5    3    6 1  
     6    3    7 1  
