#      Rotatable Fragment
#      Build by yxyuan
#
# Name:          frag4-444-119/150395
# Creation time: Sat Jun  5 12:53:36 2010


@<TRIPOS>MOLECULE
frag4-444-119/150395
    9     9     1     1     1
SMALL
USER_CHARGES


@<TRIPOS>ATOM
      1 C13        -0.0898   -0.6871   -0.0671 C.3        1 <1>        0.000
      2 N3          1.1023    0.0714    0.0725 N.pl3      1 <1>        0.000
      3 N4         -1.0457    0.3622   -0.0302 N.pl3      1 <1>        0.000
      4 N5          0.8237    1.3936    0.1637 N.2        1 <1>        0.000
      5 N6         -0.4373    1.5622    0.1250 N.2        1 <1>        0.000
      6 H          -0.2301   -1.4554    0.6933 H.spc      1 <1>        0.000
      7 H          -0.1308   -1.3066   -0.9630 H.spc      1 <1>        0.000
      8 H           2.0414   -0.3257    0.1003 H.spc      1 <1>        0.000
      9 H          -2.0540    0.2301   -0.1098 H.spc      1 <1>        0.000
@<TRIPOS>BOND
     1    1    2 1  
     2    1    3 1  
     3    2    4 1  
     4    3    5 1  
     5    4    5 2  
     6    1    6 1  
     7    1    7 1  
     8    2    8 1  
     9    3    9 1  
# Name:          frag4-444-119/150395 -- energy: -0.257957
# Creation time: Sat Jun  5 12:53:36 2010


@<TRIPOS>MOLECULE
frag4-444-119/150395 -- energy: -0.257957
    9     9     1     1     1
SMALL
USER_CHARGES


@<TRIPOS>ATOM
      1 C13        -0.0898   -0.6871   -0.0671 C.3        1 <1>        0.000
      2 N3          1.1023    0.0714    0.0725 N.pl3      1 <1>        0.000
      3 N4         -1.0457    0.3622   -0.0302 N.pl3      1 <1>        0.000
      4 N5          0.8237    1.3936    0.1637 N.2        1 <1>        0.000
      5 N6         -0.4373    1.5622    0.1250 N.2        1 <1>        0.000
      6 H          -0.2301   -1.4554    0.6933 H.spc      1 <1>        0.000
      7 H          -0.1308   -1.3066   -0.9630 H.spc      1 <1>        0.000
      8 H           2.0414   -0.3257    0.1003 H.spc      1 <1>        0.000
      9 H          -2.0540    0.2301   -0.1098 H.spc      1 <1>        0.000
@<TRIPOS>BOND
     1    1    2 1  
     2    1    3 1  
     3    2    4 1  
     4    3    5 1  
     5    4    5 2  
     6    1    6 1  
     7    1    7 1  
     8    2    8 1  
     9    3    9 1  
