#      Rotatable Fragment
#      Build by yxyuan
#
# Name:          frag5-504-575/138278
# Creation time: Sat Jun  5 12:53:40 2010


@<TRIPOS>MOLECULE
frag5-504-575/138278
   12    12     1     1     1
SMALL
USER_CHARGES


@<TRIPOS>ATOM
      1 C4          0.9001    1.0312   -0.0195 C.ar       1 <1>        0.000
      2 C6          1.3562   -0.2832    0.0532 C.ar       1 <1>        0.000
      3 C7         -0.4633    1.3044   -0.0728 C.ar       1 <1>        0.000
      4 C9          0.4325   -1.3310    0.0732 C.ar       1 <1>        0.000
      5 F1          2.6793   -0.5439    0.1041 F          1 <1>        0.000
      6 C10        -1.3771    0.2486   -0.0523 C.ar       1 <1>        0.000
      7 F2         -0.8997    2.5778   -0.1433 F          1 <1>        0.000
      8 C11        -0.9317   -1.0664    0.0203 C.ar       1 <1>        0.000
      9 H           1.6170    1.8521   -0.0348 H.spc      1 <1>        0.000
     10 H           0.7829   -2.3615    0.1306 H.spc      1 <1>        0.000
     11 H          -2.4462    0.4568   -0.0935 H.spc      1 <1>        0.000
     12 H          -1.6491   -1.8869    0.0357 H.spc      1 <1>        0.000
@<TRIPOS>BOND
     1    1    2 ar 
     2    1    3 ar 
     3    2    4 ar 
     4    2    5 1  
     5    3    6 ar 
     6    3    7 1  
     7    4    8 ar 
     8    6    8 ar 
     9    1    9 1  
    10    4   10 1  
    11    6   11 1  
    12    8   12 1  
# Name:          frag5-504-575/138278 -- energy: 0.001321
# Creation time: Sat Jun  5 12:53:40 2010


@<TRIPOS>MOLECULE
frag5-504-575/138278 -- energy: 0.001321
   12    12     1     1     1
SMALL
USER_CHARGES


@<TRIPOS>ATOM
      1 C4          0.9001    1.0312   -0.0195 C.ar       1 <1>        0.000
      2 C6          1.3562   -0.2832    0.0532 C.ar       1 <1>        0.000
      3 C7         -0.4633    1.3044   -0.0728 C.ar       1 <1>        0.000
      4 C9          0.4325   -1.3310    0.0732 C.ar       1 <1>        0.000
      5 F1          2.6793   -0.5439    0.1041 F          1 <1>        0.000
      6 C10        -1.3771    0.2486   -0.0523 C.ar       1 <1>        0.000
      7 F2         -0.8997    2.5778   -0.1433 F          1 <1>        0.000
      8 C11        -0.9317   -1.0664    0.0203 C.ar       1 <1>        0.000
      9 H           1.6170    1.8521   -0.0348 H.spc      1 <1>        0.000
     10 H           0.7829   -2.3615    0.1306 H.spc      1 <1>        0.000
     11 H          -2.4462    0.4568   -0.0935 H.spc      1 <1>        0.000
     12 H          -1.6491   -1.8869    0.0357 H.spc      1 <1>        0.000
@<TRIPOS>BOND
     1    1    2 ar 
     2    1    3 ar 
     3    2    4 ar 
     4    2    5 1  
     5    3    6 ar 
     6    3    7 1  
     7    4    8 ar 
     8    6    8 ar 
     9    1    9 1  
    10    4   10 1  
    11    6   11 1  
    12    8   12 1  
