#      Rotatable Fragment
#      Build by yxyuan
#
# Name:          frag4-452-39/48856
# Creation time: Sat Jun  5 12:52:48 2010


@<TRIPOS>MOLECULE
frag4-452-39/48856
   28    30     1     1     1
SMALL
USER_CHARGES


@<TRIPOS>ATOM
      1 C1          4.2588   -0.2411    0.4305 C.3        1 <1>        0.000
      2 C2          3.1986    0.8681    0.6289 C.3        1 <1>        0.000
      3 C3          1.8079    0.3773    0.2233 C.ar       1 <1>        0.000
      4 C4          1.6648   -0.6161   -0.7547 C.ar       1 <1>        0.000
      5 C5          0.3908   -1.0718   -1.1119 C.ar       1 <1>        0.000
      6 C6         -0.7493   -0.5332   -0.4987 C.ar       1 <1>        0.000
      7 C7         -0.6135    0.4603    0.4668 C.ar       1 <1>        0.000
      8 C15         2.8906   -1.1963   -1.4266 C.3        1 <1>        0.000
      9 C8          0.6614    0.9161    0.8257 C.ar       1 <1>        0.000
     10 C9         -1.7524    1.0042    1.0787 C.ar       1 <1>        0.000
     11 C10        -3.0256    0.5464    0.7202 C.ar       1 <1>        0.000
     12 C11        -3.1616   -0.4523   -0.2465 C.ar       1 <1>        0.000
     13 C12        -2.0246   -0.9937   -0.8575 C.ar       1 <1>        0.000
     14 C16         4.2651   -0.7220   -1.0379 C.3        1 <1>        0.000
     15 H           5.2422    0.1588    0.6778 H.spc      1 <1>        0.000
     16 H           4.0179   -1.0832    1.0793 H.spc      1 <1>        0.000
     17 H           3.4641    1.7209    0.0041 H.spc      1 <1>        0.000
     18 H           3.1773    1.1465    1.6825 H.spc      1 <1>        0.000
     19 H           0.2844   -1.8482   -1.8695 H.spc      1 <1>        0.000
     20 H           2.8791   -2.2497   -1.1467 H.spc      1 <1>        0.000
     21 H           2.7895   -0.9043   -2.4719 H.spc      1 <1>        0.000
     22 H           0.7635    1.6965    1.5798 H.spc      1 <1>        0.000
     23 H          -1.6460    1.7834    1.8334 H.spc      1 <1>        0.000
     24 H          -3.9107    0.9693    1.1954 H.spc      1 <1>        0.000
     25 H          -4.1528   -0.8100   -0.5251 H.spc      1 <1>        0.000
     26 H          -2.1303   -1.7731   -1.6121 H.spc      1 <1>        0.000
     27 H           4.5572    0.1044   -1.6859 H.spc      1 <1>        0.000
     28 H           4.9729   -1.5441   -1.1443 H.spc      1 <1>        0.000
@<TRIPOS>BOND
     1    8   14 1  
     2    4    5 ar 
     3    3    9 ar 
     4   12   13 ar 
     5    4    8 1  
     6    6    7 ar 
     7    7    9 ar 
     8    1   14 1  
     9   10   11 ar 
    10    6   13 ar 
    11    1    2 1  
    12    5    6 ar 
    13   11   12 ar 
    14    2    3 1  
    15    7   10 ar 
    16    3    4 ar 
    17    1   15 1  
    18    1   16 1  
    19    2   17 1  
    20    2   18 1  
    21    5   19 1  
    22    8   20 1  
    23    8   21 1  
    24    9   22 1  
    25   10   23 1  
    26   11   24 1  
    27   12   25 1  
    28   13   26 1  
    29   14   27 1  
    30   14   28 1  
# Name:          frag4-452-39/48856 -- energy: -2.091814
# Creation time: Sat Jun  5 12:52:48 2010


@<TRIPOS>MOLECULE
frag4-452-39/48856 -- energy: -2.091814
   28    30     1     1     1
SMALL
USER_CHARGES


@<TRIPOS>ATOM
      1 C1          4.2588   -0.2411    0.4305 C.3        1 <1>        0.000
      2 C2          3.1986    0.8681    0.6289 C.3        1 <1>        0.000
      3 C3          1.8079    0.3773    0.2233 C.ar       1 <1>        0.000
      4 C4          1.6648   -0.6161   -0.7547 C.ar       1 <1>        0.000
      5 C5          0.3908   -1.0718   -1.1119 C.ar       1 <1>        0.000
      6 C6         -0.7493   -0.5332   -0.4987 C.ar       1 <1>        0.000
      7 C7         -0.6135    0.4603    0.4668 C.ar       1 <1>        0.000
      8 C15         2.8906   -1.1963   -1.4266 C.3        1 <1>        0.000
      9 C8          0.6614    0.9161    0.8257 C.ar       1 <1>        0.000
     10 C9         -1.7524    1.0042    1.0787 C.ar       1 <1>        0.000
     11 C10        -3.0256    0.5464    0.7202 C.ar       1 <1>        0.000
     12 C11        -3.1616   -0.4523   -0.2465 C.ar       1 <1>        0.000
     13 C12        -2.0246   -0.9937   -0.8575 C.ar       1 <1>        0.000
     14 C16         4.2651   -0.7220   -1.0379 C.3        1 <1>        0.000
     15 H           5.2422    0.1588    0.6778 H.spc      1 <1>        0.000
     16 H           4.0179   -1.0832    1.0793 H.spc      1 <1>        0.000
     17 H           3.4641    1.7209    0.0041 H.spc      1 <1>        0.000
     18 H           3.1773    1.1465    1.6825 H.spc      1 <1>        0.000
     19 H           0.2844   -1.8482   -1.8695 H.spc      1 <1>        0.000
     20 H           2.8791   -2.2497   -1.1467 H.spc      1 <1>        0.000
     21 H           2.7895   -0.9043   -2.4719 H.spc      1 <1>        0.000
     22 H           0.7635    1.6965    1.5798 H.spc      1 <1>        0.000
     23 H          -1.6460    1.7834    1.8334 H.spc      1 <1>        0.000
     24 H          -3.9107    0.9693    1.1954 H.spc      1 <1>        0.000
     25 H          -4.1528   -0.8100   -0.5251 H.spc      1 <1>        0.000
     26 H          -2.1303   -1.7731   -1.6121 H.spc      1 <1>        0.000
     27 H           4.5572    0.1044   -1.6859 H.spc      1 <1>        0.000
     28 H           4.9729   -1.5441   -1.1443 H.spc      1 <1>        0.000
@<TRIPOS>BOND
     1    8   14 1  
     2    4    5 ar 
     3    3    9 ar 
     4   12   13 ar 
     5    4    8 1  
     6    6    7 ar 
     7    7    9 ar 
     8    1   14 1  
     9   10   11 ar 
    10    6   13 ar 
    11    1    2 1  
    12    5    6 ar 
    13   11   12 ar 
    14    2    3 1  
    15    7   10 ar 
    16    3    4 ar 
    17    1   15 1  
    18    1   16 1  
    19    2   17 1  
    20    2   18 1  
    21    5   19 1  
    22    8   20 1  
    23    8   21 1  
    24    9   22 1  
    25   10   23 1  
    26   11   24 1  
    27   12   25 1  
    28   13   26 1  
    29   14   27 1  
    30   14   28 1  
