#      Rotatable Fragment
#      Build by yxyuan
#
# Name:          frag5-662-67/138278
# Creation time: Sat Jun  5 12:51:51 2010


@<TRIPOS>MOLECULE
frag5-662-67/138278
    8     8     1     1     1
SMALL
USER_CHARGES


@<TRIPOS>ATOM
      1 C1          0.9797    0.3051    0.0721 C.2        1 <1>        0.000
      2 C3          0.2807   -0.9863   -0.0802 C.2        1 <1>        0.000
      3 O1          0.1085    1.1986   -0.1928 O.3        1 <1>        0.000
      4 O2         -0.9412   -0.7484    0.1987 O.3        1 <1>        0.000
      5 C6         -1.0870    0.5876    0.0070 C.2        1 <1>        0.000
      6 O3         -2.1260    1.1490    0.0133 O.2        1 <1>        0.000
      7 H           2.0214    0.4622    0.3521 H.spc      1 <1>        0.000
      8 H           0.7170   -1.9422   -0.3700 H.spc      1 <1>        0.000
@<TRIPOS>BOND
     1    1    2 1  
     2    2    4 2  
     3    3    5 1  
     4    4    5 1  
     5    5    6 2  
     6    1    3 2  
     7    1    7 1  
     8    2    8 1  
# Name:          frag5-662-67/138278 -- energy: -0.243976
# Creation time: Sat Jun  5 12:51:51 2010


@<TRIPOS>MOLECULE
frag5-662-67/138278 -- energy: -0.243976
    8     8     1     1     1
SMALL
USER_CHARGES


@<TRIPOS>ATOM
      1 C1          0.9797    0.3051    0.0721 C.2        1 <1>        0.000
      2 C3          0.2807   -0.9863   -0.0802 C.2        1 <1>        0.000
      3 O1          0.1085    1.1986   -0.1928 O.3        1 <1>        0.000
      4 O2         -0.9412   -0.7484    0.1987 O.3        1 <1>        0.000
      5 C6         -1.0870    0.5876    0.0070 C.2        1 <1>        0.000
      6 O3         -2.1260    1.1490    0.0133 O.2        1 <1>        0.000
      7 H           2.0214    0.4622    0.3521 H.spc      1 <1>        0.000
      8 H           0.7170   -1.9422   -0.3700 H.spc      1 <1>        0.000
@<TRIPOS>BOND
     1    1    2 1  
     2    2    4 2  
     3    3    5 1  
     4    4    5 1  
     5    5    6 2  
     6    1    3 2  
     7    1    7 1  
     8    2    8 1  
