#      Rotatable Fragment
#      Build by yxyuan
#
# Name:          frag4-441-122/150395
# Creation time: Sat Jun  5 12:53:35 2010


@<TRIPOS>MOLECULE
frag4-441-122/150395
   41    44     1     1     1
SMALL
USER_CHARGES


@<TRIPOS>ATOM
      1 C1         -0.3900   -0.1894   -0.3061 C.3        1 <1>        0.000
      2 C2         -1.6128   -0.7337    0.4381 C.3        1 <1>        0.000
      3 C3         -0.4809    1.3132   -0.6782 C.3        1 <1>        0.000
      4 C4          0.9519   -0.2907    0.3942 C.3        1 <1>        0.000
      5 C5         -2.9058   -0.0406   -0.0828 C.3        1 <1>        0.000
      6 C6         -1.7225   -2.2575    0.4756 C.3        1 <1>        0.000
      7 C7          0.9556    1.8143   -0.6604 C.3        1 <1>        0.000
      8 C8         -1.4365    2.0286    0.2619 C.3        1 <1>        0.000
      9 C17        -5.4899   -0.1587    0.1586 C.2        1 <1>        0.000
     10 C10         1.8291    0.6237   -0.3936 C.3        1 <1>        0.000
     11 C11        -4.1666   -0.7957    0.3817 C.3        1 <1>        0.000
     12 C12        -2.8370    1.4564    0.2361 C.3        1 <1>        0.000
     13 C13        -2.7781   -2.8003   -0.4451 C.3        1 <1>        0.000
     14 C16        -4.0777   -2.2532   -0.0014 C.2        1 <1>        0.000
     15 C20        -5.1815   -3.0119    0.0274 C.2        1 <1>        0.000
     16 C21        -6.6147   -0.8762    0.1814 C.2        1 <1>        0.000
     17 C22        -6.3620   -2.2770    0.3824 C.3        1 <1>        0.000
     18 H          -0.4235   -0.8556   -1.1682 H.spc      1 <1>        0.000
     19 H          -1.4758   -0.4746    1.4879 H.spc      1 <1>        0.000
     20 H          -0.9044    1.5045   -1.6642 H.spc      1 <1>        0.000
     21 H           0.8953   -0.0102    1.4460 H.spc      1 <1>        0.000
     22 H           1.3319   -1.3120    0.4211 H.spc      1 <1>        0.000
     23 H          -2.9797   -0.0946   -1.1690 H.spc      1 <1>        0.000
     24 H          -0.7639   -2.6647    0.1540 H.spc      1 <1>        0.000
     25 H          -1.9934   -2.5433    1.4920 H.spc      1 <1>        0.000
     26 H           1.0908    2.5736    0.1099 H.spc      1 <1>        0.000
     27 H           1.2150    2.2789   -1.6117 H.spc      1 <1>        0.000
     28 H          -1.4984    3.0687   -0.0583 H.spc      1 <1>        0.000
     29 H          -1.0512    1.9139    1.2751 H.spc      1 <1>        0.000
     30 H          -5.5430    0.9141   -0.0271 H.spc      1 <1>        0.000
     31 H           2.1931    0.1616   -1.3113 H.spc      1 <1>        0.000
     32 H           2.7404    0.8889    0.1423 H.spc      1 <1>        0.000
     33 H          -4.1452   -0.7236    1.4691 H.spc      1 <1>        0.000
     34 H          -3.2545    1.5895    1.2342 H.spc      1 <1>        0.000
     35 H          -3.3795    1.9761   -0.5537 H.spc      1 <1>        0.000
     36 H          -2.7910   -3.8897   -0.4105 H.spc      1 <1>        0.000
     37 H          -2.5729   -2.5082   -1.4750 H.spc      1 <1>        0.000
     38 H          -5.1828   -4.0788   -0.1960 H.spc      1 <1>        0.000
     39 H          -7.6104   -0.4493    0.0614 H.spc      1 <1>        0.000
     40 H          -7.0998   -2.7244   -0.2836 H.spc      1 <1>        0.000
     41 H          -6.3291   -2.3336    1.4704 H.spc      1 <1>        0.000
@<TRIPOS>BOND
     1    1    2 1  
     2    5   11 1  
     3    4   10 1  
     4    6   13 1  
     5    3    7 1  
     6    1    4 1  
     7    1    3 1  
     8    2    6 1  
     9    2    5 1  
    10    3    8 1  
    11    5   12 1  
    12   16   17 1  
    13   15   17 1  
    14    9   16 2  
    15   14   15 2  
    16   13   14 1  
    17   11    9 1  
    18   11   14 1  
    19    8   12 1  
    20    7   10 1  
    21    1   18 1  
    22    2   19 1  
    23    3   20 1  
    24    4   21 1  
    25    4   22 1  
    26    5   23 1  
    27    6   24 1  
    28    6   25 1  
    29    7   26 1  
    30    7   27 1  
    31    8   28 1  
    32    8   29 1  
    33    9   30 1  
    34   10   31 1  
    35   10   32 1  
    36   11   33 1  
    37   12   34 1  
    38   12   35 1  
    39   13   36 1  
    40   13   37 1  
    41   15   38 1  
    42   16   39 1  
    43   17   40 1  
    44   17   41 1  
# Name:          frag4-441-122/150395 -- energy: -6.513026
# Creation time: Sat Jun  5 12:53:35 2010


@<TRIPOS>MOLECULE
frag4-441-122/150395 -- energy: -6.513026
   41    44     1     1     1
SMALL
USER_CHARGES


@<TRIPOS>ATOM
      1 C1         -0.3900   -0.1894   -0.3061 C.3        1 <1>        0.000
      2 C2         -1.6128   -0.7337    0.4381 C.3        1 <1>        0.000
      3 C3         -0.4809    1.3132   -0.6782 C.3        1 <1>        0.000
      4 C4          0.9519   -0.2907    0.3942 C.3        1 <1>        0.000
      5 C5         -2.9058   -0.0406   -0.0828 C.3        1 <1>        0.000
      6 C6         -1.7225   -2.2575    0.4756 C.3        1 <1>        0.000
      7 C7          0.9556    1.8143   -0.6604 C.3        1 <1>        0.000
      8 C8         -1.4365    2.0286    0.2619 C.3        1 <1>        0.000
      9 C17        -5.4899   -0.1587    0.1586 C.2        1 <1>        0.000
     10 C10         1.8291    0.6237   -0.3936 C.3        1 <1>        0.000
     11 C11        -4.1666   -0.7957    0.3817 C.3        1 <1>        0.000
     12 C12        -2.8370    1.4564    0.2361 C.3        1 <1>        0.000
     13 C13        -2.7781   -2.8003   -0.4451 C.3        1 <1>        0.000
     14 C16        -4.0777   -2.2532   -0.0014 C.2        1 <1>        0.000
     15 C20        -5.1815   -3.0119    0.0274 C.2        1 <1>        0.000
     16 C21        -6.6147   -0.8762    0.1814 C.2        1 <1>        0.000
     17 C22        -6.3620   -2.2770    0.3824 C.3        1 <1>        0.000
     18 H          -0.4235   -0.8556   -1.1682 H.spc      1 <1>        0.000
     19 H          -1.4758   -0.4746    1.4879 H.spc      1 <1>        0.000
     20 H          -0.9044    1.5045   -1.6642 H.spc      1 <1>        0.000
     21 H           0.8953   -0.0102    1.4460 H.spc      1 <1>        0.000
     22 H           1.3319   -1.3120    0.4211 H.spc      1 <1>        0.000
     23 H          -2.9797   -0.0946   -1.1690 H.spc      1 <1>        0.000
     24 H          -0.7639   -2.6647    0.1540 H.spc      1 <1>        0.000
     25 H          -1.9934   -2.5433    1.4920 H.spc      1 <1>        0.000
     26 H           1.0908    2.5736    0.1099 H.spc      1 <1>        0.000
     27 H           1.2150    2.2789   -1.6117 H.spc      1 <1>        0.000
     28 H          -1.4984    3.0687   -0.0583 H.spc      1 <1>        0.000
     29 H          -1.0512    1.9139    1.2751 H.spc      1 <1>        0.000
     30 H          -5.5430    0.9141   -0.0271 H.spc      1 <1>        0.000
     31 H           2.1931    0.1616   -1.3113 H.spc      1 <1>        0.000
     32 H           2.7404    0.8889    0.1423 H.spc      1 <1>        0.000
     33 H          -4.1452   -0.7236    1.4691 H.spc      1 <1>        0.000
     34 H          -3.2545    1.5895    1.2342 H.spc      1 <1>        0.000
     35 H          -3.3795    1.9761   -0.5537 H.spc      1 <1>        0.000
     36 H          -2.7910   -3.8897   -0.4105 H.spc      1 <1>        0.000
     37 H          -2.5729   -2.5082   -1.4750 H.spc      1 <1>        0.000
     38 H          -5.1828   -4.0788   -0.1960 H.spc      1 <1>        0.000
     39 H          -7.6104   -0.4493    0.0614 H.spc      1 <1>        0.000
     40 H          -7.0998   -2.7244   -0.2836 H.spc      1 <1>        0.000
     41 H          -6.3291   -2.3336    1.4704 H.spc      1 <1>        0.000
@<TRIPOS>BOND
     1    1    2 1  
     2    5   11 1  
     3    4   10 1  
     4    6   13 1  
     5    3    7 1  
     6    1    4 1  
     7    1    3 1  
     8    2    6 1  
     9    2    5 1  
    10    3    8 1  
    11    5   12 1  
    12   16   17 1  
    13   15   17 1  
    14    9   16 2  
    15   14   15 2  
    16   13   14 1  
    17   11    9 1  
    18   11   14 1  
    19    8   12 1  
    20    7   10 1  
    21    1   18 1  
    22    2   19 1  
    23    3   20 1  
    24    4   21 1  
    25    4   22 1  
    26    5   23 1  
    27    6   24 1  
    28    6   25 1  
    29    7   26 1  
    30    7   27 1  
    31    8   28 1  
    32    8   29 1  
    33    9   30 1  
    34   10   31 1  
    35   10   32 1  
    36   11   33 1  
    37   12   34 1  
    38   12   35 1  
    39   13   36 1  
    40   13   37 1  
    41   15   38 1  
    42   16   39 1  
    43   17   40 1  
    44   17   41 1  
