#      Rotatable Fragment
#      Build by yxyuan
#
# Name:          frag3-235-3/31924
# Creation time: Sat Jun  5 12:52:35 2010


@<TRIPOS>MOLECULE
frag3-235-3/31924
   14    13     1     1     1
SMALL
USER_CHARGES


@<TRIPOS>ATOM
      1 S1         -4.1305    1.5877    3.0389 S.3        1 <1>        0.000
      2 C6         -2.5440    0.9193    2.9717 C.2        1 <1>        0.000
      3 S2         -2.0925   -0.5223    3.7084 S.2        1 <1>        0.000
      4 N2         -1.6615    1.7319    2.2498 N.am       1 <1>        0.000
      5 C7         -0.3746    1.5355    1.8933 C.2        1 <1>        0.000
      6 C8          0.3868    2.5141    1.3994 C.2        1 <1>        0.000
      7 C10         0.3135    0.2302    2.0321 C.2        1 <1>        0.000
      8 O4          1.1667    0.0652    2.8919 O.2        1 <1>        0.000
      9 O5         -0.0418   -0.7671    1.2136 O.3        1 <1>        0.000
     10 H          -4.1581    2.7295    2.3574 H.spc      1 <1>        0.000
     11 H          -2.0570    2.6203    1.9420 H.spc      1 <1>        0.000
     12 H           1.4256    2.3159    1.1353 H.spc      1 <1>        0.000
     13 H          -0.0302    3.5115    1.2601 H.spc      1 <1>        0.000
     14 H          -0.7193   -0.4568    0.6083 H.spc      1 <1>        0.000
@<TRIPOS>BOND
     1    1    2 1  
     2    2    3 2  
     3    2    4 am 
     4    4    5 1  
     5    5    6 2  
     6    5    7 1  
     7    7    8 2  
     8    7    9 1  
     9    1   10 1  
    10    4   11 1  
    11    6   12 1  
    12    6   13 1  
    13    9   14 1  
# Name:          frag3-235-3/31924
# Creation time: Sat Jun  5 12:52:35 2010


@<TRIPOS>MOLECULE
frag3-235-3/31924
   14    13     1     1     1
SMALL
USER_CHARGES


@<TRIPOS>ATOM
      1 S1         -3.9733    0.2046    3.5580 S.3        1 <1>        0.000
      2 C6         -2.7595    1.3243    3.0799 C.2        1 <1>        0.000
      3 S2         -2.8046    2.9696    3.3170 S.2        1 <1>        0.000
      4 N2         -1.7250    0.6138    2.5029 N.am       1 <1>        0.000
      5 C7         -0.4735    0.9227    2.0753 C.2        1 <1>        0.000
      6 C8         -0.0687    2.1646    1.8439 C.2        1 <1>        0.000
      7 C10         0.6302   -0.0435    1.7964 C.2        1 <1>        0.000
      8 O4          0.8420   -0.9707    2.5463 O.2        1 <1>        0.000
      9 O5          1.3545    0.1092    0.6795 O.3        1 <1>        0.000
     10 H          -3.6034   -1.0241    3.2082 H.spc      1 <1>        0.000
     11 H          -1.9540   -0.3707    2.3664 H.spc      1 <1>        0.000
     12 H           0.9486    2.3510    1.4997 H.spc      1 <1>        0.000
     13 H          -0.7534    2.9986    1.9979 H.spc      1 <1>        0.000
     14 H           1.0536    0.8898    0.2086 H.spc      1 <1>        0.000
@<TRIPOS>BOND
     1    1    2 1  
     2    2    3 2  
     3    2    4 am 
     4    4    5 1  
     5    5    6 2  
     6    5    7 1  
     7    7    8 2  
     8    7    9 1  
     9    1   10 1  
    10    4   11 1  
    11    6   12 1  
    12    6   13 1  
    13    9   14 1  
# Name:          frag3-235-3/31924
# Creation time: Sat Jun  5 12:52:35 2010


@<TRIPOS>MOLECULE
frag3-235-3/31924
   14    13     1     1     1
SMALL
USER_CHARGES


@<TRIPOS>ATOM
      1 S1         -2.8818   -0.2772    2.3405 S.3        1 <1>        0.000
      2 C6         -2.4415    1.0388    3.3716 C.2        1 <1>        0.000
      3 S2         -3.2441    1.5279    4.7333 S.2        1 <1>        0.000
      4 N2         -1.3219    1.7493    2.9703 N.am       1 <1>        0.000
      5 C7         -0.3797    1.5050    2.0159 C.2        1 <1>        0.000
      6 C8          0.2189    2.4760    1.3216 C.2        1 <1>        0.000
      7 C10         0.1508    0.1444    1.6668 C.2        1 <1>        0.000
      8 O4         -0.0580   -0.8622    2.3399 O.2        1 <1>        0.000
      9 O5          0.9795   -0.0076    0.6391 O.3        1 <1>        0.000
     10 H          -2.0042   -0.3717    1.3457 H.spc      1 <1>        0.000
     11 H          -1.1752    2.6175    3.4852 H.spc      1 <1>        0.000
     12 H           0.9974    2.2294    0.5996 H.spc      1 <1>        0.000
     13 H          -0.0709    3.5152    1.4769 H.spc      1 <1>        0.000
     14 H           1.0758    0.8303    0.1805 H.spc      1 <1>        0.000
@<TRIPOS>BOND
     1    1    2 1  
     2    2    3 2  
     3    2    4 am 
     4    4    5 1  
     5    5    6 2  
     6    5    7 1  
     7    7    8 2  
     8    7    9 1  
     9    1   10 1  
    10    4   11 1  
    11    6   12 1  
    12    6   13 1  
    13    9   14 1  
# Name:          frag3-235-3/31924
# Creation time: Sat Jun  5 12:52:35 2010


@<TRIPOS>MOLECULE
frag3-235-3/31924
   14    13     1     1     1
SMALL
USER_CHARGES


@<TRIPOS>ATOM
      1 S1         -4.1806    1.4152    2.6657 S.3        1 <1>        0.000
      2 C6         -2.5588    0.9823    3.0623 C.2        1 <1>        0.000
      3 S2         -2.0434   -0.0551    4.2910 S.2        1 <1>        0.000
      4 N2         -1.6830    1.6257    2.1953 N.am       1 <1>        0.000
      5 C7         -0.3558    1.4718    2.0150 C.2        1 <1>        0.000
      6 C8          0.4849    2.5042    2.0857 C.2        1 <1>        0.000
      7 C10         0.2628    0.1553    1.7439 C.2        1 <1>        0.000
      8 O4         -0.1250   -0.5119    0.7904 O.2        1 <1>        0.000
      9 O5          1.2211   -0.2929    2.5498 O.3        1 <1>        0.000
     10 H          -4.1740    2.2558    1.6351 H.spc      1 <1>        0.000
     11 H          -2.1156    2.3298    1.5974 H.spc      1 <1>        0.000
     12 H           1.5545    2.3466    1.9467 H.spc      1 <1>        0.000
     13 H           0.1027    3.5058    2.2825 H.spc      1 <1>        0.000
     14 H           1.3924    0.3580    3.2343 H.spc      1 <1>        0.000
@<TRIPOS>BOND
     1    1    2 1  
     2    2    3 2  
     3    2    4 am 
     4    4    5 1  
     5    5    6 2  
     6    5    7 1  
     7    7    8 2  
     8    7    9 1  
     9    1   10 1  
    10    4   11 1  
    11    6   12 1  
    12    6   13 1  
    13    9   14 1  
# Name:          frag3-235-3/31924
# Creation time: Sat Jun  5 12:52:35 2010


@<TRIPOS>MOLECULE
frag3-235-3/31924
   14    13     1     1     1
SMALL
USER_CHARGES


@<TRIPOS>ATOM
      1 S1         -4.0395    1.9065    2.3853 S.3        1 <1>        0.000
      2 C6         -2.7442    1.0247    3.1337 C.2        1 <1>        0.000
      3 S2         -2.6436    0.5423    4.7591 S.2        1 <1>        0.000
      4 N2         -1.7494    0.7858    2.1939 N.am       1 <1>        0.000
      5 C7         -0.4161    0.9714    2.2700 C.2        1 <1>        0.000
      6 C8          0.1033    1.8015    3.1819 C.2        1 <1>        0.000
      7 C10         0.5576    0.3058    1.3844 C.2        1 <1>        0.000
      8 O4          0.4860    0.4642    0.1723 O.2        1 <1>        0.000
      9 O5          1.4681   -0.5077    1.9183 O.3        1 <1>        0.000
     10 H          -3.7586    2.0977    1.0994 H.spc      1 <1>        0.000
     11 H          -2.0802    0.4103    1.3051 H.spc      1 <1>        0.000
     12 H           1.1821    1.9483    3.2335 H.spc      1 <1>        0.000
     13 H          -0.5524    2.3309    3.8731 H.spc      1 <1>        0.000
     14 H           1.3756   -0.5065    2.8738 H.spc      1 <1>        0.000
@<TRIPOS>BOND
     1    1    2 1  
     2    2    3 2  
     3    2    4 am 
     4    4    5 1  
     5    5    6 2  
     6    5    7 1  
     7    7    8 2  
     8    7    9 1  
     9    1   10 1  
    10    4   11 1  
    11    6   12 1  
    12    6   13 1  
    13    9   14 1  
# Name:          frag3-235-3/31924
# Creation time: Sat Jun  5 12:52:35 2010


@<TRIPOS>MOLECULE
frag3-235-3/31924
   14    13     1     1     1
SMALL
USER_CHARGES


@<TRIPOS>ATOM
      1 S1         -3.9740    0.8985    2.2670 S.3        1 <1>        0.000
      2 C6         -2.4873    0.9574    3.1278 C.2        1 <1>        0.000
      3 S2         -2.0687    0.1527    4.5435 S.2        1 <1>        0.000
      4 N2         -1.6045    1.7819    2.4438 N.am       1 <1>        0.000
      5 C7         -0.3455    1.5558    2.0172 C.2        1 <1>        0.000
      6 C8          0.5033    2.5475    1.7439 C.2        1 <1>        0.000
      7 C10         0.2136    0.1980    1.8276 C.2        1 <1>        0.000
      8 O4          1.1053   -0.2184    2.5507 O.2        1 <1>        0.000
      9 O5         -0.3199   -0.5790    0.8776 O.3        1 <1>        0.000
     10 H          -3.8957    1.6831    1.1959 H.spc      1 <1>        0.000
     11 H          -1.9675    2.7105    2.2288 H.spc      1 <1>        0.000
     12 H           1.5163    2.3216    1.4110 H.spc      1 <1>        0.000
     13 H           0.1840    3.5839    1.8534 H.spc      1 <1>        0.000
     14 H          -1.0015   -0.0898    0.4111 H.spc      1 <1>        0.000
@<TRIPOS>BOND
     1    1    2 1  
     2    2    3 2  
     3    2    4 am 
     4    4    5 1  
     5    5    6 2  
     6    5    7 1  
     7    7    8 2  
     8    7    9 1  
     9    1   10 1  
    10    4   11 1  
    11    6   12 1  
    12    6   13 1  
    13    9   14 1  
# Name:          frag3-235-3/31924
# Creation time: Sat Jun  5 12:52:35 2010


@<TRIPOS>MOLECULE
frag3-235-3/31924
   14    13     1     1     1
SMALL
USER_CHARGES


@<TRIPOS>ATOM
      1 S1         -3.4149    2.1023    4.2216 S.3        1 <1>        0.000
      2 C6         -2.7909    1.0496    2.9795 C.2        1 <1>        0.000
      3 S2         -3.7228    0.0986    1.9171 S.2        1 <1>        0.000
      4 N2         -1.4025    1.0718    2.9941 N.am       1 <1>        0.000
      5 C7         -0.5232    0.9244    1.9859 C.2        1 <1>        0.000
      6 C8         -0.8613    1.2615    0.7321 C.2        1 <1>        0.000
      7 C10         0.8594    0.4185    2.1643 C.2        1 <1>        0.000
      8 O4          1.4694    0.7078    3.1834 O.2        1 <1>        0.000
      9 O5          1.4091   -0.3400    1.2211 O.3        1 <1>        0.000
     10 H          -2.4020    2.6859    4.8560 H.spc      1 <1>        0.000
     11 H          -0.9839    1.2234    3.9118 H.spc      1 <1>        0.000
     12 H          -0.1366    1.1551   -0.0751 H.spc      1 <1>        0.000
     13 H          -1.8607    1.6417    0.5207 H.spc      1 <1>        0.000
     14 H           0.7838   -0.4582    0.5023 H.spc      1 <1>        0.000
@<TRIPOS>BOND
     1    1    2 1  
     2    2    3 2  
     3    2    4 am 
     4    4    5 1  
     5    5    6 2  
     6    5    7 1  
     7    7    8 2  
     8    7    9 1  
     9    1   10 1  
    10    4   11 1  
    11    6   12 1  
    12    6   13 1  
    13    9   14 1  
# Name:          frag3-235-3/31924
# Creation time: Sat Jun  5 12:52:35 2010


@<TRIPOS>MOLECULE
frag3-235-3/31924
   14    13     1     1     1
SMALL
USER_CHARGES


@<TRIPOS>ATOM
      1 S1         -3.0264    0.0048    1.9696 S.3        1 <1>        0.000
      2 C6         -2.3951    0.9495    3.2982 C.2        1 <1>        0.000
      3 S2         -3.0340    0.8723    4.8485 S.2        1 <1>        0.000
      4 N2         -1.3669    1.8047    2.8963 N.am       1 <1>        0.000
      5 C7         -0.3323    1.5803    2.0589 C.2        1 <1>        0.000
      6 C8          0.3380    2.5803    1.4868 C.2        1 <1>        0.000
      7 C10         0.1601    0.2190    1.7322 C.2        1 <1>        0.000
      8 O4          0.8619   -0.3824    2.5366 O.2        1 <1>        0.000
      9 O5         -0.1831   -0.3340    0.5718 O.3        1 <1>        0.000
     10 H          -2.3284    0.2691    0.8687 H.spc      1 <1>        0.000
     11 H          -1.4032    2.7421    3.2967 H.spc      1 <1>        0.000
     12 H           1.1825    2.3660    0.8318 H.spc      1 <1>        0.000
     13 H           0.0417    3.6124    1.6739 H.spc      1 <1>        0.000
     14 H          -0.7301    0.2794    0.0757 H.spc      1 <1>        0.000
@<TRIPOS>BOND
     1    1    2 1  
     2    2    3 2  
     3    2    4 am 
     4    4    5 1  
     5    5    6 2  
     6    5    7 1  
     7    7    8 2  
     8    7    9 1  
     9    1   10 1  
    10    4   11 1  
    11    6   12 1  
    12    6   13 1  
    13    9   14 1  
# Name:          frag3-235-3/31924
# Creation time: Sat Jun  5 12:52:35 2010


@<TRIPOS>MOLECULE
frag3-235-3/31924
   14    13     1     1     1
SMALL
USER_CHARGES


@<TRIPOS>ATOM
      1 S1         -4.0015    1.8614    2.2967 S.3        1 <1>        0.000
      2 C6         -2.7473    0.9868    3.1202 C.2        1 <1>        0.000
      3 S2         -2.8043    0.5469    4.7512 S.2        1 <1>        0.000
      4 N2         -1.7152    0.6337    2.2528 N.am       1 <1>        0.000
      5 C7         -0.4266    1.0136    2.2224 C.2        1 <1>        0.000
      6 C8         -0.0299    2.1220    2.8680 C.2        1 <1>        0.000
      7 C10         0.6416    0.2790    1.5141 C.2        1 <1>        0.000
      8 O4          1.8043    0.6462    1.5819 O.2        1 <1>        0.000
      9 O5          0.3011   -0.7949    0.7918 O.3        1 <1>        0.000
     10 H          -3.6501    2.0475    1.0275 H.spc      1 <1>        0.000
     11 H          -1.9824   -0.0223    1.5189 H.spc      1 <1>        0.000
     12 H           1.0180    2.4211    2.8440 H.spc      1 <1>        0.000
     13 H          -0.7557    2.7227    3.4161 H.spc      1 <1>        0.000
     14 H          -0.6469   -0.9332    0.8536 H.spc      1 <1>        0.000
@<TRIPOS>BOND
     1    1    2 1  
     2    2    3 2  
     3    2    4 am 
     4    4    5 1  
     5    5    6 2  
     6    5    7 1  
     7    7    8 2  
     8    7    9 1  
     9    1   10 1  
    10    4   11 1  
    11    6   12 1  
    12    6   13 1  
    13    9   14 1  
# Name:          frag3-235-3/31924
# Creation time: Sat Jun  5 12:52:35 2010


@<TRIPOS>MOLECULE
frag3-235-3/31924
   14    13     1     1     1
SMALL
USER_CHARGES


@<TRIPOS>ATOM
      1 S1         -4.0396    1.1105    2.6310 S.3        1 <1>        0.000
      2 C6         -2.4273    1.0193    3.2234 C.2        1 <1>        0.000
      3 S2         -2.0224   -0.0194    4.4555 S.2        1 <1>        0.000
      4 N2         -1.4907    1.8595    2.5684 N.am       1 <1>        0.000
      5 C7         -0.3330    1.5508    1.9286 C.2        1 <1>        0.000
      6 C8          0.4390    2.4819    1.3680 C.2        1 <1>        0.000
      7 C10         0.1340    0.1531    1.7757 C.2        1 <1>        0.000
      8 O4         -0.6750   -0.7675    1.7745 O.2        1 <1>        0.000
      9 O5          1.4370   -0.0939    1.6741 O.3        1 <1>        0.000
     10 H          -4.1007    2.0099    1.6531 H.spc      1 <1>        0.000
     11 H          -1.7234    2.8525    2.5797 H.spc      1 <1>        0.000
     12 H           1.3473    2.1913    0.8401 H.spc      1 <1>        0.000
     13 H           0.1619    3.5338    1.4376 H.spc      1 <1>        0.000
     14 H           1.9210    0.7350    1.6915 H.spc      1 <1>        0.000
@<TRIPOS>BOND
     1    1    2 1  
     2    2    3 2  
     3    2    4 am 
     4    4    5 1  
     5    5    6 2  
     6    5    7 1  
     7    7    8 2  
     8    7    9 1  
     9    1   10 1  
    10    4   11 1  
    11    6   12 1  
    12    6   13 1  
    13    9   14 1  
# Name:          frag3-235-3/31924
# Creation time: Sat Jun  5 12:52:35 2010


@<TRIPOS>MOLECULE
frag3-235-3/31924
   14    13     1     1     1
SMALL
USER_CHARGES


@<TRIPOS>ATOM
      1 S1         -2.8667    0.2122    1.6336 S.3        1 <1>        0.000
      2 C6         -2.5482    0.8434    3.2081 C.2        1 <1>        0.000
      3 S2         -3.5026    0.9101    4.5578 S.2        1 <1>        0.000
      4 N2         -1.2933    1.4361    3.2797 N.am       1 <1>        0.000
      5 C7         -0.2424    1.4720    2.4131 C.2        1 <1>        0.000
      6 C8          0.4125    2.6049    2.1174 C.2        1 <1>        0.000
      7 C10         0.2558    0.3116    1.6001 C.2        1 <1>        0.000
      8 O4          1.1082    0.3812    0.7295 O.2        1 <1>        0.000
      9 O5         -0.3011   -0.8769    1.8597 O.3        1 <1>        0.000
     10 H          -1.7938    0.3790    0.8655 H.spc      1 <1>        0.000
     11 H          -1.1266    1.9423    4.1494 H.spc      1 <1>        0.000
     12 H           1.2000    2.5984    1.3638 H.spc      1 <1>        0.000
     13 H           0.1571    3.5319    2.6308 H.spc      1 <1>        0.000
     14 H          -0.9486   -0.7791    2.5617 H.spc      1 <1>        0.000
@<TRIPOS>BOND
     1    1    2 1  
     2    2    3 2  
     3    2    4 am 
     4    4    5 1  
     5    5    6 2  
     6    5    7 1  
     7    7    8 2  
     8    7    9 1  
     9    1   10 1  
    10    4   11 1  
    11    6   12 1  
    12    6   13 1  
    13    9   14 1  
# Name:          frag3-235-3/31924
# Creation time: Sat Jun  5 12:52:35 2010


@<TRIPOS>MOLECULE
frag3-235-3/31924
   14    13     1     1     1
SMALL
USER_CHARGES


@<TRIPOS>ATOM
      1 S1         -2.1639    0.5604    4.3807 S.3        1 <1>        0.000
      2 C6         -2.6372    0.8426    2.7400 C.2        1 <1>        0.000
      3 S2         -4.0513    0.2419    2.1026 S.2        1 <1>        0.000
      4 N2         -1.7398    1.6449    2.0152 N.am       1 <1>        0.000
      5 C7         -0.4154    1.5125    1.7873 C.2        1 <1>        0.000
      6 C8          0.2753    2.3936    1.0569 C.2        1 <1>        0.000
      7 C10         0.3873    0.3807    2.3041 C.2        1 <1>        0.000
      8 O4          1.3912    0.5815    2.9704 O.2        1 <1>        0.000
      9 O5         -0.0240   -0.8638    2.0420 O.3        1 <1>        0.000
     10 H          -0.9973    1.1555    4.6125 H.spc      1 <1>        0.000
     11 H          -2.1614    2.4694    1.5875 H.spc      1 <1>        0.000
     12 H           1.3413    2.2433    0.8863 H.spc      1 <1>        0.000
     13 H          -0.2275    3.2623    0.6320 H.spc      1 <1>        0.000
     14 H          -0.8225   -0.8304    1.5102 H.spc      1 <1>        0.000
@<TRIPOS>BOND
     1    1    2 1  
     2    2    3 2  
     3    2    4 am 
     4    4    5 1  
     5    5    6 2  
     6    5    7 1  
     7    7    8 2  
     8    7    9 1  
     9    1   10 1  
    10    4   11 1  
    11    6   12 1  
    12    6   13 1  
    13    9   14 1  
# Name:          frag3-235-3/31924
# Creation time: Sat Jun  5 12:52:35 2010


@<TRIPOS>MOLECULE
frag3-235-3/31924
   14    13     1     1     1
SMALL
USER_CHARGES


@<TRIPOS>ATOM
      1 S1         -4.0094    1.9064    3.0815 S.3        1 <1>        0.000
      2 C6         -2.5903    0.9439    3.1928 C.2        1 <1>        0.000
      3 S2         -2.3443   -0.5700    3.8015 S.2        1 <1>        0.000
      4 N2         -1.5997    1.6759    2.5758 N.am       1 <1>        0.000
      5 C7         -0.4661    1.4238    1.8632 C.2        1 <1>        0.000
      6 C8         -0.0508    2.2374    0.8871 C.2        1 <1>        0.000
      7 C10         0.4183    0.2360    1.9988 C.2        1 <1>        0.000
      8 O4          0.5824   -0.3262    3.0616 O.2        1 <1>        0.000
      9 O5          1.0820   -0.2328    0.9369 O.3        1 <1>        0.000
     10 H          -3.7111    3.0686    2.5078 H.spc      1 <1>        0.000
     11 H          -1.7577    2.6781    2.6809 H.spc      1 <1>        0.000
     12 H           0.8383    1.9855    0.3090 H.spc      1 <1>        0.000
     13 H          -0.6013    3.1526    0.6693 H.spc      1 <1>        0.000
     14 H           0.8652    0.2967    0.1661 H.spc      1 <1>        0.000
@<TRIPOS>BOND
     1    1    2 1  
     2    2    3 2  
     3    2    4 am 
     4    4    5 1  
     5    5    6 2  
     6    5    7 1  
     7    7    8 2  
     8    7    9 1  
     9    1   10 1  
    10    4   11 1  
    11    6   12 1  
    12    6   13 1  
    13    9   14 1  
# Name:          frag3-235-3/31924
# Creation time: Sat Jun  5 12:52:35 2010


@<TRIPOS>MOLECULE
frag3-235-3/31924
   14    13     1     1     1
SMALL
USER_CHARGES


@<TRIPOS>ATOM
      1 S1         -3.7788    1.7676    3.6514 S.3        1 <1>        0.000
      2 C6         -2.6128    0.8333    2.8003 C.2        1 <1>        0.000
      3 S2         -2.5151   -0.8151    2.9709 S.2        1 <1>        0.000
      4 N2         -1.7495    1.5814    1.9711 N.am       1 <1>        0.000
      5 C7         -0.4150    1.4811    1.7519 C.2        1 <1>        0.000
      6 C8          0.2820    2.4303    1.1209 C.2        1 <1>        0.000
      7 C10         0.3847    0.3239    2.2095 C.2        1 <1>        0.000
      8 O4          0.4665   -0.6792    1.5121 O.2        1 <1>        0.000
      9 O5          0.9602    0.3713    3.4111 O.3        1 <1>        0.000
     10 H          -3.6357    3.0506    3.3316 H.spc      1 <1>        0.000
     11 H          -2.2086    2.3258    1.4463 H.spc      1 <1>        0.000
     12 H           1.3565    2.3141    0.9790 H.spc      1 <1>        0.000
     13 H          -0.2238    3.3209    0.7480 H.spc      1 <1>        0.000
     14 H           0.7933    1.2279    3.8110 H.spc      1 <1>        0.000
@<TRIPOS>BOND
     1    1    2 1  
     2    2    3 2  
     3    2    4 am 
     4    4    5 1  
     5    5    6 2  
     6    5    7 1  
     7    7    8 2  
     8    7    9 1  
     9    1   10 1  
    10    4   11 1  
    11    6   12 1  
    12    6   13 1  
    13    9   14 1  
# Name:          frag3-235-3/31924
# Creation time: Sat Jun  5 12:52:35 2010


@<TRIPOS>MOLECULE
frag3-235-3/31924
   14    13     1     1     1
SMALL
USER_CHARGES


@<TRIPOS>ATOM
      1 S1         -3.5488    1.3744    4.3654 S.3        1 <1>        0.000
      2 C6         -2.7703    1.0995    2.8208 C.2        1 <1>        0.000
      3 S2         -3.5382    0.5955    1.3849 S.2        1 <1>        0.000
      4 N2         -1.4073    1.3266    2.9475 N.am       1 <1>        0.000
      5 C7         -0.4203    1.1532    2.0508 C.2        1 <1>        0.000
      6 C8         -0.4321    1.8081    0.8806 C.2        1 <1>        0.000
      7 C10         0.7344    0.2551    2.2718 C.2        1 <1>        0.000
      8 O4          1.7091    0.6688    2.8860 O.2        1 <1>        0.000
      9 O5          0.6958   -0.9868    1.7913 O.3        1 <1>        0.000
     10 H          -2.6393    1.7592    5.2562 H.spc      1 <1>        0.000
     11 H          -1.1092    1.6778    3.8575 H.spc      1 <1>        0.000
     12 H           0.3768    1.6602    0.1651 H.spc      1 <1>        0.000
     13 H          -1.2506    2.4883    0.6450 H.spc      1 <1>        0.000
     14 H          -0.1411   -1.1294    1.3431 H.spc      1 <1>        0.000
@<TRIPOS>BOND
     1    1    2 1  
     2    2    3 2  
     3    2    4 am 
     4    4    5 1  
     5    5    6 2  
     6    5    7 1  
     7    7    8 2  
     8    7    9 1  
     9    1   10 1  
    10    4   11 1  
    11    6   12 1  
    12    6   13 1  
    13    9   14 1  
# Name:          frag3-235-3/31924
# Creation time: Sat Jun  5 12:52:35 2010


@<TRIPOS>MOLECULE
frag3-235-3/31924
   14    13     1     1     1
SMALL
USER_CHARGES


@<TRIPOS>ATOM
      1 S1         -3.9042    0.3848    3.8618 S.3        1 <1>        0.000
      2 C6         -2.8304    1.2921    2.8976 C.2        1 <1>        0.000
      3 S2         -3.1662    2.7056    2.0750 S.2        1 <1>        0.000
      4 N2         -1.5956    0.6280    2.8359 N.am       1 <1>        0.000
      5 C7         -0.3997    0.9376    2.2606 C.2        1 <1>        0.000
      6 C8         -0.0937    2.1862    1.9251 C.2        1 <1>        0.000
      7 C10         0.7186    0.0188    1.9555 C.2        1 <1>        0.000
      8 O4          1.8534    0.1941    2.3790 O.2        1 <1>        0.000
      9 O5          0.4400   -1.0528    1.2086 O.3        1 <1>        0.000
     10 H          -3.2696   -0.6770    4.3504 H.spc      1 <1>        0.000
     11 H          -1.5927   -0.2695    3.3205 H.spc      1 <1>        0.000
     12 H           0.8793    2.4102    1.4877 H.spc      1 <1>        0.000
     13 H          -0.8156    2.9866    2.0872 H.spc      1 <1>        0.000
     14 H          -0.4876   -1.0371    0.9618 H.spc      1 <1>        0.000
@<TRIPOS>BOND
     1    1    2 1  
     2    2    3 2  
     3    2    4 am 
     4    4    5 1  
     5    5    6 2  
     6    5    7 1  
     7    7    8 2  
     8    7    9 1  
     9    1   10 1  
    10    4   11 1  
    11    6   12 1  
    12    6   13 1  
    13    9   14 1  
# Name:          frag3-235-3/31924
# Creation time: Sat Jun  5 12:52:35 2010


@<TRIPOS>MOLECULE
frag3-235-3/31924
   14    13     1     1     1
SMALL
USER_CHARGES


@<TRIPOS>ATOM
      1 S1         -3.1472    0.4163    1.7453 S.3        1 <1>        0.000
      2 C6         -2.4350    0.8868    3.2451 C.2        1 <1>        0.000
      3 S2         -3.0316    0.3914    4.7055 S.2        1 <1>        0.000
      4 N2         -1.2896    1.7008    3.1151 N.am       1 <1>        0.000
      5 C7         -0.2097    1.5629    2.3025 C.2        1 <1>        0.000
      6 C8          0.6730    2.5457    2.1062 C.2        1 <1>        0.000
      7 C10         0.0832    0.3028    1.5570 C.2        1 <1>        0.000
      8 O4          0.0181    0.2753    0.3443 O.2        1 <1>        0.000
      9 O5          0.3609   -0.7875    2.2781 O.3        1 <1>        0.000
     10 H          -2.4634    0.9591    0.7420 H.spc      1 <1>        0.000
     11 H          -1.2694    2.5182    3.7249 H.spc      1 <1>        0.000
     12 H           1.5241    2.3895    1.4434 H.spc      1 <1>        0.000
     13 H           0.5423    3.5041    2.6088 H.spc      1 <1>        0.000
     14 H           0.3664   -0.5601    3.2108 H.spc      1 <1>        0.000
@<TRIPOS>BOND
     1    1    2 1  
     2    2    3 2  
     3    2    4 am 
     4    4    5 1  
     5    5    6 2  
     6    5    7 1  
     7    7    8 2  
     8    7    9 1  
     9    1   10 1  
    10    4   11 1  
    11    6   12 1  
    12    6   13 1  
    13    9   14 1  
# Name:          frag3-235-3/31924
# Creation time: Sat Jun  5 12:52:35 2010


@<TRIPOS>MOLECULE
frag3-235-3/31924
   14    13     1     1     1
SMALL
USER_CHARGES


@<TRIPOS>ATOM
      1 S1         -2.2198    2.2176    3.8741 S.3        1 <1>        0.000
      2 C6         -2.7542    0.7463    3.0793 C.2        1 <1>        0.000
      3 S2         -4.3134    0.1050    3.1196 S.2        1 <1>        0.000
      4 N2         -1.6760    0.1901    2.4066 N.am       1 <1>        0.000
      5 C7         -0.6483    0.8128    1.7544 C.2        1 <1>        0.000
      6 C8         -0.9051    1.7322    0.8277 C.2        1 <1>        0.000
      7 C10         0.7670    0.5524    2.0618 C.2        1 <1>        0.000
      8 O4          1.0789    0.0544    3.1227 O.2        1 <1>        0.000
      9 O5          1.6930    0.8837    1.1529 O.3        1 <1>        0.000
     10 H          -0.9282    2.4114    3.6227 H.spc      1 <1>        0.000
     11 H          -1.6456   -0.8294    2.3972 H.spc      1 <1>        0.000
     12 H          -0.0844    2.2533    0.3348 H.spc      1 <1>        0.000
     13 H          -1.9362    1.9644    0.5613 H.spc      1 <1>        0.000
     14 H           1.2627    1.2616    0.3824 H.spc      1 <1>        0.000
@<TRIPOS>BOND
     1    1    2 1  
     2    2    3 2  
     3    2    4 am 
     4    4    5 1  
     5    5    6 2  
     6    5    7 1  
     7    7    8 2  
     8    7    9 1  
     9    1   10 1  
    10    4   11 1  
    11    6   12 1  
    12    6   13 1  
    13    9   14 1  
# Name:          frag3-235-3/31924
# Creation time: Sat Jun  5 12:52:35 2010


@<TRIPOS>MOLECULE
frag3-235-3/31924
   14    13     1     1     1
SMALL
USER_CHARGES


@<TRIPOS>ATOM
      1 S1         -4.3000    0.8483    2.6529 S.3        1 <1>        0.000
      2 C6         -2.6698    1.1974    3.1379 C.2        1 <1>        0.000
      3 S2         -2.2049    1.6828    4.6953 S.2        1 <1>        0.000
      4 N2         -1.7729    0.9374    2.1030 N.am       1 <1>        0.000
      5 C7         -0.4374    1.1002    2.0451 C.2        1 <1>        0.000
      6 C8          0.1293    2.2474    2.4400 C.2        1 <1>        0.000
      7 C10         0.5053    0.0539    1.6010 C.2        1 <1>        0.000
      8 O4          1.1178   -0.6103    2.4281 O.2        1 <1>        0.000
      9 O5          0.6548   -0.1627    0.2958 O.3        1 <1>        0.000
     10 H          -4.3138    0.4977    1.3700 H.spc      1 <1>        0.000
     11 H          -2.1960    0.5640    1.2533 H.spc      1 <1>        0.000
     12 H           1.2137    2.3555    2.4179 H.spc      1 <1>        0.000
     13 H          -0.4938    3.0731    2.7835 H.spc      1 <1>        0.000
     14 H           0.0999    0.4484   -0.1945 H.spc      1 <1>        0.000
@<TRIPOS>BOND
     1    1    2 1  
     2    2    3 2  
     3    2    4 am 
     4    4    5 1  
     5    5    6 2  
     6    5    7 1  
     7    7    8 2  
     8    7    9 1  
     9    1   10 1  
    10    4   11 1  
    11    6   12 1  
    12    6   13 1  
    13    9   14 1  
# Name:          frag3-235-3/31924
# Creation time: Sat Jun  5 12:52:35 2010


@<TRIPOS>MOLECULE
frag3-235-3/31924
   14    13     1     1     1
SMALL
USER_CHARGES


@<TRIPOS>ATOM
      1 S1         -3.3714    1.9204    4.4050 S.3        1 <1>        0.000
      2 C6         -2.8361    1.1269    2.9952 C.2        1 <1>        0.000
      3 S2         -3.7944    0.1512    2.0471 S.2        1 <1>        0.000
      4 N2         -1.4598    1.3544    2.7371 N.am       1 <1>        0.000
      5 C7         -0.5578    0.7639    1.9006 C.2        1 <1>        0.000
      6 C8         -0.9365    0.1656    0.7676 C.2        1 <1>        0.000
      7 C10         0.8992    0.6326    2.1485 C.2        1 <1>        0.000
      8 O4          1.3277    0.5560    3.2836 O.2        1 <1>        0.000
      9 O5          1.7512    0.6234    1.1143 O.3        1 <1>        0.000
     10 H          -2.3669    2.6180    4.9277 H.spc      1 <1>        0.000
     11 H          -1.0635    2.1147    3.2897 H.spc      1 <1>        0.000
     12 H          -0.1987   -0.3426    0.1467 H.spc      1 <1>        0.000
     13 H          -1.9832    0.1857    0.4641 H.spc      1 <1>        0.000
     14 H           1.2574    0.6905    0.2938 H.spc      1 <1>        0.000
@<TRIPOS>BOND
     1    1    2 1  
     2    2    3 2  
     3    2    4 am 
     4    4    5 1  
     5    5    6 2  
     6    5    7 1  
     7    7    8 2  
     8    7    9 1  
     9    1   10 1  
    10    4   11 1  
    11    6   12 1  
    12    6   13 1  
    13    9   14 1  
# Name:          frag3-235-3/31924
# Creation time: Sat Jun  5 12:52:35 2010


@<TRIPOS>MOLECULE
frag3-235-3/31924
   14    13     1     1     1
SMALL
USER_CHARGES


@<TRIPOS>ATOM
      1 S1         -3.1456    1.2918    4.1708 S.3        1 <1>        0.000
      2 C6         -2.6462    0.7894    2.6042 C.2        1 <1>        0.000
      3 S2         -3.1888   -0.6241    1.9189 S.2        1 <1>        0.000
      4 N2         -1.7203    1.6448    1.9699 N.am       1 <1>        0.000
      5 C7         -0.3890    1.4933    1.7730 C.2        1 <1>        0.000
      6 C8          0.3064    2.2844    0.9486 C.2        1 <1>        0.000
      7 C10         0.4102    0.4433    2.4466 C.2        1 <1>        0.000
      8 O4          1.3611   -0.0867    1.8942 O.2        1 <1>        0.000
      9 O5          0.0345    0.0583    3.6727 O.3        1 <1>        0.000
     10 H          -2.5637    2.4498    4.4698 H.spc      1 <1>        0.000
     11 H          -2.1146    2.5110    1.6030 H.spc      1 <1>        0.000
     12 H           1.3770    2.1276    0.8169 H.spc      1 <1>        0.000
     13 H          -0.1975    3.0859    0.4085 H.spc      1 <1>        0.000
     14 H          -0.7240    0.5766    3.9513 H.spc      1 <1>        0.000
@<TRIPOS>BOND
     1    1    2 1  
     2    2    3 2  
     3    2    4 am 
     4    4    5 1  
     5    5    6 2  
     6    5    7 1  
     7    7    8 2  
     8    7    9 1  
     9    1   10 1  
    10    4   11 1  
    11    6   12 1  
    12    6   13 1  
    13    9   14 1  
# Name:          frag3-235-3/31924
# Creation time: Sat Jun  5 12:52:35 2010


@<TRIPOS>MOLECULE
frag3-235-3/31924
   14    13     1     1     1
SMALL
USER_CHARGES


@<TRIPOS>ATOM
      1 S1         -2.1312   -0.5702    3.5854 S.3        1 <1>        0.000
      2 C6         -2.5974    1.0201    3.0953 C.2        1 <1>        0.000
      3 S2         -4.0283    1.7315    3.5526 S.2        1 <1>        0.000
      4 N2         -1.6947    1.7400    2.2985 N.am       1 <1>        0.000
      5 C7         -0.4189    1.4986    1.8546 C.2        1 <1>        0.000
      6 C8          0.3594    2.4260    1.2964 C.2        1 <1>        0.000
      7 C10         0.3147    0.1959    1.9342 C.2        1 <1>        0.000
      8 O4          0.6335   -0.3254    3.0006 O.2        1 <1>        0.000
      9 O5          0.5852   -0.4222    0.7815 O.3        1 <1>        0.000
     10 H          -0.9426   -0.8622    3.0649 H.spc      1 <1>        0.000
     11 H          -2.0666    2.6351    1.9809 H.spc      1 <1>        0.000
     12 H           1.3699    2.1698    0.9780 H.spc      1 <1>        0.000
     13 H          -0.0148    3.4404    1.1584 H.spc      1 <1>        0.000
     14 H           0.2727    0.1156    0.0503 H.spc      1 <1>        0.000
@<TRIPOS>BOND
     1    1    2 1  
     2    2    3 2  
     3    2    4 am 
     4    4    5 1  
     5    5    6 2  
     6    5    7 1  
     7    7    8 2  
     8    7    9 1  
     9    1   10 1  
    10    4   11 1  
    11    6   12 1  
    12    6   13 1  
    13    9   14 1  
# Name:          frag3-235-3/31924
# Creation time: Sat Jun  5 12:52:35 2010


@<TRIPOS>MOLECULE
frag3-235-3/31924
   14    13     1     1     1
SMALL
USER_CHARGES


@<TRIPOS>ATOM
      1 S1         -3.2613    1.9498    2.0417 S.3        1 <1>        0.000
      2 C6         -2.7094    0.8344    3.2502 C.2        1 <1>        0.000
      3 S2         -3.6073    0.3301    4.5441 S.2        1 <1>        0.000
      4 N2         -1.3965    0.3935    3.0068 N.am       1 <1>        0.000
      5 C7         -0.3723    1.0156    2.3714 C.2        1 <1>        0.000
      6 C8         -0.1701    2.3327    2.5409 C.2        1 <1>        0.000
      7 C10         0.5788    0.3694    1.4484 C.2        1 <1>        0.000
      8 O4          0.9918    0.9423    0.4507 O.2        1 <1>        0.000
      9 O5          0.9685   -0.8734    1.7448 O.3        1 <1>        0.000
     10 H          -2.2982    2.1415    1.1447 H.spc      1 <1>        0.000
     11 H          -1.1812   -0.5377    3.3630 H.spc      1 <1>        0.000
     12 H           0.6442    2.8312    2.0151 H.spc      1 <1>        0.000
     13 H          -0.8204    2.9030    3.2043 H.spc      1 <1>        0.000
     14 H           0.5435   -1.1554    2.5581 H.spc      1 <1>        0.000
@<TRIPOS>BOND
     1    1    2 1  
     2    2    3 2  
     3    2    4 am 
     4    4    5 1  
     5    5    6 2  
     6    5    7 1  
     7    7    8 2  
     8    7    9 1  
     9    1   10 1  
    10    4   11 1  
    11    6   12 1  
    12    6   13 1  
    13    9   14 1  
# Name:          frag3-235-3/31924
# Creation time: Sat Jun  5 12:52:35 2010


@<TRIPOS>MOLECULE
frag3-235-3/31924
   14    13     1     1     1
SMALL
USER_CHARGES


@<TRIPOS>ATOM
      1 S1         -2.8652   -0.3192    2.3154 S.3        1 <1>        0.000
      2 C6         -2.4861    1.0310    3.3419 C.2        1 <1>        0.000
      3 S2         -3.5049    1.5906    4.5257 S.2        1 <1>        0.000
      4 N2         -1.2583    1.6555    3.1169 N.am       1 <1>        0.000
      5 C7         -0.2621    1.4727    2.2053 C.2        1 <1>        0.000
      6 C8          0.4506    2.4944    1.7093 C.2        1 <1>        0.000
      7 C10         0.1430    0.1818    1.5406 C.2        1 <1>        0.000
      8 O4         -0.5662   -0.5210    0.8562 O.2        1 <1>        0.000
      9 O5          1.3714   -0.2914    1.7878 O.3        1 <1>        0.000
     10 H          -1.8595   -0.5278    1.4704 H.spc      1 <1>        0.000
     11 H          -1.0655    2.4100    3.7757 H.spc      1 <1>        0.000
     12 H           1.1961    2.3137    0.9349 H.spc      1 <1>        0.000
     13 H           0.2845    3.5057    2.0805 H.spc      1 <1>        0.000
     14 H           1.8505    0.3355    2.3346 H.spc      1 <1>        0.000
@<TRIPOS>BOND
     1    1    2 1  
     2    2    3 2  
     3    2    4 am 
     4    4    5 1  
     5    5    6 2  
     6    5    7 1  
     7    7    8 2  
     8    7    9 1  
     9    1   10 1  
    10    4   11 1  
    11    6   12 1  
    12    6   13 1  
    13    9   14 1  
# Name:          frag3-235-3/31924
# Creation time: Sat Jun  5 12:52:35 2010


@<TRIPOS>MOLECULE
frag3-235-3/31924
   14    13     1     1     1
SMALL
USER_CHARGES


@<TRIPOS>ATOM
      1 S1         -2.2079    0.9971    4.2596 S.3        1 <1>        0.000
      2 C6         -2.6821    0.7355    2.6102 C.2        1 <1>        0.000
      3 S2         -4.0398   -0.1006    2.1519 S.2        1 <1>        0.000
      4 N2         -1.7911    1.3251    1.7035 N.am       1 <1>        0.000
      5 C7         -0.4479    1.4685    1.7858 C.2        1 <1>        0.000
      6 C8          0.1754    2.5926    1.4059 C.2        1 <1>        0.000
      7 C10         0.4518    0.4153    2.3238 C.2        1 <1>        0.000
      8 O4          1.6326    0.3685    2.0211 O.2        1 <1>        0.000
      9 O5         -0.0688   -0.5075    3.1372 O.3        1 <1>        0.000
     10 H          -1.0789    1.6995    4.2886 H.spc      1 <1>        0.000
     11 H          -2.2177    1.7016    0.8569 H.spc      1 <1>        0.000
     12 H           1.2577    2.6758    1.5049 H.spc      1 <1>        0.000
     13 H          -0.4000    3.4236    0.9979 H.spc      1 <1>        0.000
     14 H          -1.0017   -0.3247    3.2712 H.spc      1 <1>        0.000
@<TRIPOS>BOND
     1    1    2 1  
     2    2    3 2  
     3    2    4 am 
     4    4    5 1  
     5    5    6 2  
     6    5    7 1  
     7    7    8 2  
     8    7    9 1  
     9    1   10 1  
    10    4   11 1  
    11    6   12 1  
    12    6   13 1  
    13    9   14 1  
# Name:          frag3-235-3/31924
# Creation time: Sat Jun  5 12:52:35 2010


@<TRIPOS>MOLECULE
frag3-235-3/31924
   14    13     1     1     1
SMALL
USER_CHARGES


@<TRIPOS>ATOM
      1 S1         -3.5034    1.7847    2.0295 S.3        1 <1>        0.000
      2 C6         -2.7106    0.8767    3.2807 C.2        1 <1>        0.000
      3 S2         -3.3743    0.6544    4.7820 S.2        1 <1>        0.000
      4 N2         -1.4486    0.3825    2.8981 N.am       1 <1>        0.000
      5 C7         -0.4427    0.9965    2.2252 C.2        1 <1>        0.000
      6 C8         -0.3947    2.3335    2.1471 C.2        1 <1>        0.000
      7 C10         0.6765    0.3114    1.5575 C.2        1 <1>        0.000
      8 O4          1.8128    0.3866    1.9990 O.2        1 <1>        0.000
      9 O5          0.4071   -0.4319    0.4800 O.3        1 <1>        0.000
     10 H          -2.7405    1.7950    0.9401 H.spc      1 <1>        0.000
     11 H          -1.2624   -0.5835    3.1676 H.spc      1 <1>        0.000
     12 H           0.4270    2.8196    1.6211 H.spc      1 <1>        0.000
     13 H          -1.1773    2.9349    2.6096 H.spc      1 <1>        0.000
     14 H          -0.5296   -0.3731    0.2781 H.spc      1 <1>        0.000
@<TRIPOS>BOND
     1    1    2 1  
     2    2    3 2  
     3    2    4 am 
     4    4    5 1  
     5    5    6 2  
     6    5    7 1  
     7    7    8 2  
     8    7    9 1  
     9    1   10 1  
    10    4   11 1  
    11    6   12 1  
    12    6   13 1  
    13    9   14 1  
# Name:          frag3-235-3/31924
# Creation time: Sat Jun  5 12:52:35 2010


@<TRIPOS>MOLECULE
frag3-235-3/31924
   14    13     1     1     1
SMALL
USER_CHARGES


@<TRIPOS>ATOM
      1 S1         -3.2883    2.5589    3.2574 S.3        1 <1>        0.000
      2 C6         -2.7375    0.9068    3.1971 C.2        1 <1>        0.000
      3 S2         -3.7005   -0.4846    3.2353 S.2        1 <1>        0.000
      4 N2         -1.3545    0.8959    3.0848 N.am       1 <1>        0.000
      5 C7         -0.5724    0.9218    1.9823 C.2        1 <1>        0.000
      6 C8         -1.0579    1.3568    0.8158 C.2        1 <1>        0.000
      7 C10         0.8428    0.4977    1.9756 C.2        1 <1>        0.000
      8 O4          1.4616    0.4522    3.0311 O.2        1 <1>        0.000
      9 O5          1.4289    0.1889    0.8197 O.3        1 <1>        0.000
     10 H          -2.2403    3.3762    3.2049 H.spc      1 <1>        0.000
     11 H          -0.8501    0.8633    3.9708 H.spc      1 <1>        0.000
     12 H          -0.4172    1.3824   -0.0656 H.spc      1 <1>        0.000
     13 H          -2.0946    1.6860    0.7457 H.spc      1 <1>        0.000
     14 H           0.7940    0.2811    0.1056 H.spc      1 <1>        0.000
@<TRIPOS>BOND
     1    1    2 1  
     2    2    3 2  
     3    2    4 am 
     4    4    5 1  
     5    5    6 2  
     6    5    7 1  
     7    7    8 2  
     8    7    9 1  
     9    1   10 1  
    10    4   11 1  
    11    6   12 1  
    12    6   13 1  
    13    9   14 1  
# Name:          frag3-235-3/31924
# Creation time: Sat Jun  5 12:52:35 2010


@<TRIPOS>MOLECULE
frag3-235-3/31924
   14    13     1     1     1
SMALL
USER_CHARGES


@<TRIPOS>ATOM
      1 S1         -2.4102    1.6994    4.3935 S.3        1 <1>        0.000
      2 C6         -2.5775    0.7751    2.9293 C.2        1 <1>        0.000
      3 S2         -3.5409   -0.5933    2.8355 S.2        1 <1>        0.000
      4 N2         -1.8895    1.3343    1.8428 N.am       1 <1>        0.000
      5 C7         -0.5758    1.3129    1.5280 C.2        1 <1>        0.000
      6 C8         -0.0759    2.0768    0.5566 C.2        1 <1>        0.000
      7 C10         0.3986    0.4512    2.2409 C.2        1 <1>        0.000
      8 O4          0.0014   -0.3119    3.1165 O.2        1 <1>        0.000
      9 O5          1.6920    0.5500    1.9559 O.3        1 <1>        0.000
     10 H          -1.5901    2.7240    4.1778 H.spc      1 <1>        0.000
     11 H          -2.4779    1.8407    1.1811 H.spc      1 <1>        0.000
     12 H           0.9897    2.0421    0.3298 H.spc      1 <1>        0.000
     13 H          -0.7327    2.7361   -0.0109 H.spc      1 <1>        0.000
     14 H           1.8152    1.1898    1.2508 H.spc      1 <1>        0.000
@<TRIPOS>BOND
     1    1    2 1  
     2    2    3 2  
     3    2    4 am 
     4    4    5 1  
     5    5    6 2  
     6    5    7 1  
     7    7    8 2  
     8    7    9 1  
     9    1   10 1  
    10    4   11 1  
    11    6   12 1  
    12    6   13 1  
    13    9   14 1  
# Name:          frag3-235-3/31924
# Creation time: Sat Jun  5 12:52:35 2010


@<TRIPOS>MOLECULE
frag3-235-3/31924
   14    13     1     1     1
SMALL
USER_CHARGES


@<TRIPOS>ATOM
      1 S1         -4.1022    1.7602    3.1933 S.3        1 <1>        0.000
      2 C6         -2.5966    0.9422    3.1510 C.2        1 <1>        0.000
      3 S2         -2.1935   -0.3758    4.0737 S.2        1 <1>        0.000
      4 N2         -1.7494    1.6037    2.2221 N.am       1 <1>        0.000
      5 C7         -0.4561    1.4479    1.7914 C.2        1 <1>        0.000
      6 C8          0.2288    2.3839    1.1093 C.2        1 <1>        0.000
      7 C10         0.3594    0.2101    1.9541 C.2        1 <1>        0.000
      8 O4         -0.0898   -0.8312    2.3646 O.2        1 <1>        0.000
      9 O5          1.6215    0.1535    1.5395 O.3        1 <1>        0.000
     10 H          -4.0816    2.7685    2.3263 H.spc      1 <1>        0.000
     11 H          -2.2168    2.3856    1.7632 H.spc      1 <1>        0.000
     12 H           1.2404    2.1739    0.7618 H.spc      1 <1>        0.000
     13 H          -0.2279    3.3521    0.9042 H.spc      1 <1>        0.000
     14 H           1.8952    1.0207    1.2317 H.spc      1 <1>        0.000
@<TRIPOS>BOND
     1    1    2 1  
     2    2    3 2  
     3    2    4 am 
     4    4    5 1  
     5    5    6 2  
     6    5    7 1  
     7    7    8 2  
     8    7    9 1  
     9    1   10 1  
    10    4   11 1  
    11    6   12 1  
    12    6   13 1  
    13    9   14 1  
# Name:          frag3-235-3/31924
# Creation time: Sat Jun  5 12:52:35 2010


@<TRIPOS>MOLECULE
frag3-235-3/31924
   14    13     1     1     1
SMALL
USER_CHARGES


@<TRIPOS>ATOM
      1 S1         -4.1297    1.8087    3.0940 S.3        1 <1>        0.000
      2 C6         -2.7012    0.8417    2.8705 C.2        1 <1>        0.000
      3 S2         -2.6479   -0.8270    3.0223 S.2        1 <1>        0.000
      4 N2         -1.6185    1.6931    2.5416 N.am       1 <1>        0.000
      5 C7         -0.3504    1.5172    2.0165 C.2        1 <1>        0.000
      6 C8          0.3164    2.4922    1.3726 C.2        1 <1>        0.000
      7 C10         0.5140    0.3005    2.0915 C.2        1 <1>        0.000
      8 O4          1.5511    0.1090    1.4568 O.2        1 <1>        0.000
      9 O5          0.0884   -0.6409    2.9333 O.3        1 <1>        0.000
     10 H          -3.8303    3.0902    2.9016 H.spc      1 <1>        0.000
     11 H          -1.8227    2.6726    2.7396 H.spc      1 <1>        0.000
     12 H           1.3265    2.3108    1.0053 H.spc      1 <1>        0.000
     13 H          -0.1535    3.4635    1.2182 H.spc      1 <1>        0.000
     14 H          -0.7255   -0.3504    3.3515 H.spc      1 <1>        0.000
@<TRIPOS>BOND
     1    1    2 1  
     2    2    3 2  
     3    2    4 am 
     4    4    5 1  
     5    5    6 2  
     6    5    7 1  
     7    7    8 2  
     8    7    9 1  
     9    1   10 1  
    10    4   11 1  
    11    6   12 1  
    12    6   13 1  
    13    9   14 1  
# Name:          frag3-235-3/31924 -- energy: -1.452487
# Creation time: Sat Jun  5 12:52:35 2010


@<TRIPOS>MOLECULE
frag3-235-3/31924 -- energy: -1.452487
   14    13     1     1     1
SMALL
USER_CHARGES


@<TRIPOS>ATOM
      1 S1         -4.1305    1.5877    3.0389 S.3        1 <1>        0.000
      2 C6         -2.5440    0.9193    2.9717 C.2        1 <1>        0.000
      3 S2         -2.0925   -0.5223    3.7084 S.2        1 <1>        0.000
      4 N2         -1.6615    1.7319    2.2498 N.am       1 <1>        0.000
      5 C7         -0.3746    1.5355    1.8933 C.2        1 <1>        0.000
      6 C8          0.3868    2.5141    1.3994 C.2        1 <1>        0.000
      7 C10         0.3135    0.2302    2.0321 C.2        1 <1>        0.000
      8 O4          1.1667    0.0652    2.8919 O.2        1 <1>        0.000
      9 O5         -0.0418   -0.7671    1.2136 O.3        1 <1>        0.000
     10 H          -4.1581    2.7295    2.3574 H.spc      1 <1>        0.000
     11 H          -2.0570    2.6203    1.9420 H.spc      1 <1>        0.000
     12 H           1.4256    2.3159    1.1353 H.spc      1 <1>        0.000
     13 H          -0.0302    3.5115    1.2601 H.spc      1 <1>        0.000
     14 H          -0.7193   -0.4568    0.6083 H.spc      1 <1>        0.000
@<TRIPOS>BOND
     1    1    2 1  
     2    2    3 2  
     3    2    4 am 
     4    4    5 1  
     5    5    6 2  
     6    5    7 1  
     7    7    8 2  
     8    7    9 1  
     9    1   10 1  
    10    4   11 1  
    11    6   12 1  
    12    6   13 1  
    13    9   14 1  
# Name:          frag3-235-3/31924 -- energy: 0.616015
# Creation time: Sat Jun  5 12:52:35 2010


@<TRIPOS>MOLECULE
frag3-235-3/31924 -- energy: 0.616015
   14    13     1     1     1
SMALL
USER_CHARGES


@<TRIPOS>ATOM
      1 S1         -3.9733    0.2046    3.5580 S.3        1 <1>        0.000
      2 C6         -2.7595    1.3243    3.0799 C.2        1 <1>        0.000
      3 S2         -2.8046    2.9696    3.3170 S.2        1 <1>        0.000
      4 N2         -1.7250    0.6138    2.5029 N.am       1 <1>        0.000
      5 C7         -0.4735    0.9227    2.0753 C.2        1 <1>        0.000
      6 C8         -0.0687    2.1646    1.8439 C.2        1 <1>        0.000
      7 C10         0.6302   -0.0435    1.7964 C.2        1 <1>        0.000
      8 O4          0.8420   -0.9707    2.5463 O.2        1 <1>        0.000
      9 O5          1.3545    0.1092    0.6795 O.3        1 <1>        0.000
     10 H          -3.6034   -1.0241    3.2082 H.spc      1 <1>        0.000
     11 H          -1.9540   -0.3707    2.3664 H.spc      1 <1>        0.000
     12 H           0.9486    2.3510    1.4997 H.spc      1 <1>        0.000
     13 H          -0.7534    2.9986    1.9979 H.spc      1 <1>        0.000
     14 H           1.0536    0.8898    0.2086 H.spc      1 <1>        0.000
@<TRIPOS>BOND
     1    1    2 1  
     2    2    3 2  
     3    2    4 am 
     4    4    5 1  
     5    5    6 2  
     6    5    7 1  
     7    7    8 2  
     8    7    9 1  
     9    1   10 1  
    10    4   11 1  
    11    6   12 1  
    12    6   13 1  
    13    9   14 1  
# Name:          frag3-235-3/31924 -- energy: -1.558037
# Creation time: Sat Jun  5 12:52:35 2010


@<TRIPOS>MOLECULE
frag3-235-3/31924 -- energy: -1.558037
   14    13     1     1     1
SMALL
USER_CHARGES


@<TRIPOS>ATOM
      1 S1         -4.1806    1.4152    2.6657 S.3        1 <1>        0.000
      2 C6         -2.5588    0.9823    3.0623 C.2        1 <1>        0.000
      3 S2         -2.0434   -0.0551    4.2910 S.2        1 <1>        0.000
      4 N2         -1.6830    1.6257    2.1953 N.am       1 <1>        0.000
      5 C7         -0.3558    1.4718    2.0150 C.2        1 <1>        0.000
      6 C8          0.4849    2.5042    2.0857 C.2        1 <1>        0.000
      7 C10         0.2628    0.1553    1.7439 C.2        1 <1>        0.000
      8 O4         -0.1250   -0.5119    0.7904 O.2        1 <1>        0.000
      9 O5          1.2211   -0.2929    2.5498 O.3        1 <1>        0.000
     10 H          -4.1740    2.2558    1.6351 H.spc      1 <1>        0.000
     11 H          -2.1156    2.3298    1.5974 H.spc      1 <1>        0.000
     12 H           1.5545    2.3466    1.9467 H.spc      1 <1>        0.000
     13 H           0.1027    3.5058    2.2825 H.spc      1 <1>        0.000
     14 H           1.3924    0.3580    3.2343 H.spc      1 <1>        0.000
@<TRIPOS>BOND
     1    1    2 1  
     2    2    3 2  
     3    2    4 am 
     4    4    5 1  
     5    5    6 2  
     6    5    7 1  
     7    7    8 2  
     8    7    9 1  
     9    1   10 1  
    10    4   11 1  
    11    6   12 1  
    12    6   13 1  
    13    9   14 1  
# Name:          frag3-235-3/31924 -- energy: -1.649678
# Creation time: Sat Jun  5 12:52:35 2010


@<TRIPOS>MOLECULE
frag3-235-3/31924 -- energy: -1.649678
   14    13     1     1     1
SMALL
USER_CHARGES


@<TRIPOS>ATOM
      1 S1         -4.0395    1.9065    2.3853 S.3        1 <1>        0.000
      2 C6         -2.7442    1.0247    3.1337 C.2        1 <1>        0.000
      3 S2         -2.6436    0.5423    4.7591 S.2        1 <1>        0.000
      4 N2         -1.7494    0.7858    2.1939 N.am       1 <1>        0.000
      5 C7         -0.4161    0.9714    2.2700 C.2        1 <1>        0.000
      6 C8          0.1033    1.8015    3.1819 C.2        1 <1>        0.000
      7 C10         0.5576    0.3058    1.3844 C.2        1 <1>        0.000
      8 O4          0.4860    0.4642    0.1723 O.2        1 <1>        0.000
      9 O5          1.4681   -0.5077    1.9183 O.3        1 <1>        0.000
     10 H          -3.7586    2.0977    1.0994 H.spc      1 <1>        0.000
     11 H          -2.0802    0.4103    1.3051 H.spc      1 <1>        0.000
     12 H           1.1821    1.9483    3.2335 H.spc      1 <1>        0.000
     13 H          -0.5524    2.3309    3.8731 H.spc      1 <1>        0.000
     14 H           1.3756   -0.5065    2.8738 H.spc      1 <1>        0.000
@<TRIPOS>BOND
     1    1    2 1  
     2    2    3 2  
     3    2    4 am 
     4    4    5 1  
     5    5    6 2  
     6    5    7 1  
     7    7    8 2  
     8    7    9 1  
     9    1   10 1  
    10    4   11 1  
    11    6   12 1  
    12    6   13 1  
    13    9   14 1  
# Name:          frag3-235-3/31924 -- energy: -1.979764
# Creation time: Sat Jun  5 12:52:35 2010


@<TRIPOS>MOLECULE
frag3-235-3/31924 -- energy: -1.979764
   14    13     1     1     1
SMALL
USER_CHARGES


@<TRIPOS>ATOM
      1 S1         -3.9740    0.8985    2.2670 S.3        1 <1>        0.000
      2 C6         -2.4873    0.9574    3.1278 C.2        1 <1>        0.000
      3 S2         -2.0687    0.1527    4.5435 S.2        1 <1>        0.000
      4 N2         -1.6045    1.7819    2.4438 N.am       1 <1>        0.000
      5 C7         -0.3455    1.5558    2.0172 C.2        1 <1>        0.000
      6 C8          0.5033    2.5475    1.7439 C.2        1 <1>        0.000
      7 C10         0.2136    0.1980    1.8276 C.2        1 <1>        0.000
      8 O4          1.1053   -0.2184    2.5507 O.2        1 <1>        0.000
      9 O5         -0.3199   -0.5790    0.8776 O.3        1 <1>        0.000
     10 H          -3.8957    1.6831    1.1959 H.spc      1 <1>        0.000
     11 H          -1.9675    2.7105    2.2288 H.spc      1 <1>        0.000
     12 H           1.5163    2.3216    1.4110 H.spc      1 <1>        0.000
     13 H           0.1840    3.5839    1.8534 H.spc      1 <1>        0.000
     14 H          -1.0015   -0.0898    0.4111 H.spc      1 <1>        0.000
@<TRIPOS>BOND
     1    1    2 1  
     2    2    3 2  
     3    2    4 am 
     4    4    5 1  
     5    5    6 2  
     6    5    7 1  
     7    7    8 2  
     8    7    9 1  
     9    1   10 1  
    10    4   11 1  
    11    6   12 1  
    12    6   13 1  
    13    9   14 1  
# Name:          frag3-235-3/31924 -- energy: -0.844760
# Creation time: Sat Jun  5 12:52:35 2010


@<TRIPOS>MOLECULE
frag3-235-3/31924 -- energy: -0.844760
   14    13     1     1     1
SMALL
USER_CHARGES


@<TRIPOS>ATOM
      1 S1         -3.4149    2.1023    4.2216 S.3        1 <1>        0.000
      2 C6         -2.7909    1.0496    2.9795 C.2        1 <1>        0.000
      3 S2         -3.7228    0.0986    1.9171 S.2        1 <1>        0.000
      4 N2         -1.4025    1.0718    2.9941 N.am       1 <1>        0.000
      5 C7         -0.5232    0.9244    1.9859 C.2        1 <1>        0.000
      6 C8         -0.8613    1.2615    0.7321 C.2        1 <1>        0.000
      7 C10         0.8594    0.4185    2.1643 C.2        1 <1>        0.000
      8 O4          1.4694    0.7078    3.1834 O.2        1 <1>        0.000
      9 O5          1.4091   -0.3400    1.2211 O.3        1 <1>        0.000
     10 H          -2.4020    2.6859    4.8560 H.spc      1 <1>        0.000
     11 H          -0.9839    1.2234    3.9118 H.spc      1 <1>        0.000
     12 H          -0.1366    1.1551   -0.0751 H.spc      1 <1>        0.000
     13 H          -1.8607    1.6417    0.5207 H.spc      1 <1>        0.000
     14 H           0.7838   -0.4582    0.5023 H.spc      1 <1>        0.000
@<TRIPOS>BOND
     1    1    2 1  
     2    2    3 2  
     3    2    4 am 
     4    4    5 1  
     5    5    6 2  
     6    5    7 1  
     7    7    8 2  
     8    7    9 1  
     9    1   10 1  
    10    4   11 1  
    11    6   12 1  
    12    6   13 1  
    13    9   14 1  
# Name:          frag3-235-3/31924 -- energy: -0.694231
# Creation time: Sat Jun  5 12:52:35 2010


@<TRIPOS>MOLECULE
frag3-235-3/31924 -- energy: -0.694231
   14    13     1     1     1
SMALL
USER_CHARGES


@<TRIPOS>ATOM
      1 S1         -3.0264    0.0048    1.9696 S.3        1 <1>        0.000
      2 C6         -2.3951    0.9495    3.2982 C.2        1 <1>        0.000
      3 S2         -3.0340    0.8723    4.8485 S.2        1 <1>        0.000
      4 N2         -1.3669    1.8047    2.8963 N.am       1 <1>        0.000
      5 C7         -0.3323    1.5803    2.0589 C.2        1 <1>        0.000
      6 C8          0.3380    2.5803    1.4868 C.2        1 <1>        0.000
      7 C10         0.1601    0.2190    1.7322 C.2        1 <1>        0.000
      8 O4          0.8619   -0.3824    2.5366 O.2        1 <1>        0.000
      9 O5         -0.1831   -0.3340    0.5718 O.3        1 <1>        0.000
     10 H          -2.3284    0.2691    0.8687 H.spc      1 <1>        0.000
     11 H          -1.4032    2.7421    3.2967 H.spc      1 <1>        0.000
     12 H           1.1825    2.3660    0.8318 H.spc      1 <1>        0.000
     13 H           0.0417    3.6124    1.6739 H.spc      1 <1>        0.000
     14 H          -0.7301    0.2794    0.0757 H.spc      1 <1>        0.000
@<TRIPOS>BOND
     1    1    2 1  
     2    2    3 2  
     3    2    4 am 
     4    4    5 1  
     5    5    6 2  
     6    5    7 1  
     7    7    8 2  
     8    7    9 1  
     9    1   10 1  
    10    4   11 1  
    11    6   12 1  
    12    6   13 1  
    13    9   14 1  
# Name:          frag3-235-3/31924 -- energy: 0.182222
# Creation time: Sat Jun  5 12:52:35 2010


@<TRIPOS>MOLECULE
frag3-235-3/31924 -- energy: 0.182222
   14    13     1     1     1
SMALL
USER_CHARGES


@<TRIPOS>ATOM
      1 S1         -4.0015    1.8614    2.2967 S.3        1 <1>        0.000
      2 C6         -2.7473    0.9868    3.1202 C.2        1 <1>        0.000
      3 S2         -2.8043    0.5469    4.7512 S.2        1 <1>        0.000
      4 N2         -1.7152    0.6337    2.2528 N.am       1 <1>        0.000
      5 C7         -0.4266    1.0136    2.2224 C.2        1 <1>        0.000
      6 C8         -0.0299    2.1220    2.8680 C.2        1 <1>        0.000
      7 C10         0.6416    0.2790    1.5141 C.2        1 <1>        0.000
      8 O4          1.8043    0.6462    1.5819 O.2        1 <1>        0.000
      9 O5          0.3011   -0.7949    0.7918 O.3        1 <1>        0.000
     10 H          -3.6501    2.0475    1.0275 H.spc      1 <1>        0.000
     11 H          -1.9824   -0.0223    1.5189 H.spc      1 <1>        0.000
     12 H           1.0180    2.4211    2.8440 H.spc      1 <1>        0.000
     13 H          -0.7557    2.7227    3.4161 H.spc      1 <1>        0.000
     14 H          -0.6469   -0.9332    0.8536 H.spc      1 <1>        0.000
@<TRIPOS>BOND
     1    1    2 1  
     2    2    3 2  
     3    2    4 am 
     4    4    5 1  
     5    5    6 2  
     6    5    7 1  
     7    7    8 2  
     8    7    9 1  
     9    1   10 1  
    10    4   11 1  
    11    6   12 1  
    12    6   13 1  
    13    9   14 1  
# Name:          frag3-235-3/31924 -- energy: 0.020795
# Creation time: Sat Jun  5 12:52:35 2010


@<TRIPOS>MOLECULE
frag3-235-3/31924 -- energy: 0.020795
   14    13     1     1     1
SMALL
USER_CHARGES


@<TRIPOS>ATOM
      1 S1         -4.0396    1.1105    2.6310 S.3        1 <1>        0.000
      2 C6         -2.4273    1.0193    3.2234 C.2        1 <1>        0.000
      3 S2         -2.0224   -0.0194    4.4555 S.2        1 <1>        0.000
      4 N2         -1.4907    1.8595    2.5684 N.am       1 <1>        0.000
      5 C7         -0.3330    1.5508    1.9286 C.2        1 <1>        0.000
      6 C8          0.4390    2.4819    1.3680 C.2        1 <1>        0.000
      7 C10         0.1340    0.1531    1.7757 C.2        1 <1>        0.000
      8 O4         -0.6750   -0.7675    1.7745 O.2        1 <1>        0.000
      9 O5          1.4370   -0.0939    1.6741 O.3        1 <1>        0.000
     10 H          -4.1007    2.0099    1.6531 H.spc      1 <1>        0.000
     11 H          -1.7234    2.8525    2.5797 H.spc      1 <1>        0.000
     12 H           1.3473    2.1913    0.8401 H.spc      1 <1>        0.000
     13 H           0.1619    3.5338    1.4376 H.spc      1 <1>        0.000
     14 H           1.9210    0.7350    1.6915 H.spc      1 <1>        0.000
@<TRIPOS>BOND
     1    1    2 1  
     2    2    3 2  
     3    2    4 am 
     4    4    5 1  
     5    5    6 2  
     6    5    7 1  
     7    7    8 2  
     8    7    9 1  
     9    1   10 1  
    10    4   11 1  
    11    6   12 1  
    12    6   13 1  
    13    9   14 1  
# Name:          frag3-235-3/31924 -- energy: -2.166771
# Creation time: Sat Jun  5 12:52:35 2010


@<TRIPOS>MOLECULE
frag3-235-3/31924 -- energy: -2.166771
   14    13     1     1     1
SMALL
USER_CHARGES


@<TRIPOS>ATOM
      1 S1         -2.1639    0.5604    4.3807 S.3        1 <1>        0.000
      2 C6         -2.6372    0.8426    2.7400 C.2        1 <1>        0.000
      3 S2         -4.0513    0.2419    2.1026 S.2        1 <1>        0.000
      4 N2         -1.7398    1.6449    2.0152 N.am       1 <1>        0.000
      5 C7         -0.4154    1.5125    1.7873 C.2        1 <1>        0.000
      6 C8          0.2753    2.3936    1.0569 C.2        1 <1>        0.000
      7 C10         0.3873    0.3807    2.3041 C.2        1 <1>        0.000
      8 O4          1.3912    0.5815    2.9704 O.2        1 <1>        0.000
      9 O5         -0.0240   -0.8638    2.0420 O.3        1 <1>        0.000
     10 H          -0.9973    1.1555    4.6125 H.spc      1 <1>        0.000
     11 H          -2.1614    2.4694    1.5875 H.spc      1 <1>        0.000
     12 H           1.3413    2.2433    0.8863 H.spc      1 <1>        0.000
     13 H          -0.2275    3.2623    0.6320 H.spc      1 <1>        0.000
     14 H          -0.8225   -0.8304    1.5102 H.spc      1 <1>        0.000
@<TRIPOS>BOND
     1    1    2 1  
     2    2    3 2  
     3    2    4 am 
     4    4    5 1  
     5    5    6 2  
     6    5    7 1  
     7    7    8 2  
     8    7    9 1  
     9    1   10 1  
    10    4   11 1  
    11    6   12 1  
    12    6   13 1  
    13    9   14 1  
# Name:          frag3-235-3/31924 -- energy: 2.078694
# Creation time: Sat Jun  5 12:52:35 2010


@<TRIPOS>MOLECULE
frag3-235-3/31924 -- energy: 2.078694
   14    13     1     1     1
SMALL
USER_CHARGES


@<TRIPOS>ATOM
      1 S1         -4.0094    1.9064    3.0815 S.3        1 <1>        0.000
      2 C6         -2.5903    0.9439    3.1928 C.2        1 <1>        0.000
      3 S2         -2.3443   -0.5700    3.8015 S.2        1 <1>        0.000
      4 N2         -1.5997    1.6759    2.5758 N.am       1 <1>        0.000
      5 C7         -0.4661    1.4238    1.8632 C.2        1 <1>        0.000
      6 C8         -0.0508    2.2374    0.8871 C.2        1 <1>        0.000
      7 C10         0.4183    0.2360    1.9988 C.2        1 <1>        0.000
      8 O4          0.5824   -0.3262    3.0616 O.2        1 <1>        0.000
      9 O5          1.0820   -0.2328    0.9369 O.3        1 <1>        0.000
     10 H          -3.7111    3.0686    2.5078 H.spc      1 <1>        0.000
     11 H          -1.7577    2.6781    2.6809 H.spc      1 <1>        0.000
     12 H           0.8383    1.9855    0.3090 H.spc      1 <1>        0.000
     13 H          -0.6013    3.1526    0.6693 H.spc      1 <1>        0.000
     14 H           0.8652    0.2967    0.1661 H.spc      1 <1>        0.000
@<TRIPOS>BOND
     1    1    2 1  
     2    2    3 2  
     3    2    4 am 
     4    4    5 1  
     5    5    6 2  
     6    5    7 1  
     7    7    8 2  
     8    7    9 1  
     9    1   10 1  
    10    4   11 1  
    11    6   12 1  
    12    6   13 1  
    13    9   14 1  
# Name:          frag3-235-3/31924 -- energy: -1.864336
# Creation time: Sat Jun  5 12:52:35 2010


@<TRIPOS>MOLECULE
frag3-235-3/31924 -- energy: -1.864336
   14    13     1     1     1
SMALL
USER_CHARGES


@<TRIPOS>ATOM
      1 S1         -3.7788    1.7676    3.6514 S.3        1 <1>        0.000
      2 C6         -2.6128    0.8333    2.8003 C.2        1 <1>        0.000
      3 S2         -2.5151   -0.8151    2.9709 S.2        1 <1>        0.000
      4 N2         -1.7495    1.5814    1.9711 N.am       1 <1>        0.000
      5 C7         -0.4150    1.4811    1.7519 C.2        1 <1>        0.000
      6 C8          0.2820    2.4303    1.1209 C.2        1 <1>        0.000
      7 C10         0.3847    0.3239    2.2095 C.2        1 <1>        0.000
      8 O4          0.4665   -0.6792    1.5121 O.2        1 <1>        0.000
      9 O5          0.9602    0.3713    3.4111 O.3        1 <1>        0.000
     10 H          -3.6357    3.0506    3.3316 H.spc      1 <1>        0.000
     11 H          -2.2086    2.3258    1.4463 H.spc      1 <1>        0.000
     12 H           1.3565    2.3141    0.9790 H.spc      1 <1>        0.000
     13 H          -0.2238    3.3209    0.7480 H.spc      1 <1>        0.000
     14 H           0.7933    1.2279    3.8110 H.spc      1 <1>        0.000
@<TRIPOS>BOND
     1    1    2 1  
     2    2    3 2  
     3    2    4 am 
     4    4    5 1  
     5    5    6 2  
     6    5    7 1  
     7    7    8 2  
     8    7    9 1  
     9    1   10 1  
    10    4   11 1  
    11    6   12 1  
    12    6   13 1  
    13    9   14 1  
# Name:          frag3-235-3/31924 -- energy: -1.553854
# Creation time: Sat Jun  5 12:52:35 2010


@<TRIPOS>MOLECULE
frag3-235-3/31924 -- energy: -1.553854
   14    13     1     1     1
SMALL
USER_CHARGES


@<TRIPOS>ATOM
      1 S1         -3.5488    1.3744    4.3654 S.3        1 <1>        0.000
      2 C6         -2.7703    1.0995    2.8208 C.2        1 <1>        0.000
      3 S2         -3.5382    0.5955    1.3849 S.2        1 <1>        0.000
      4 N2         -1.4073    1.3266    2.9475 N.am       1 <1>        0.000
      5 C7         -0.4203    1.1532    2.0508 C.2        1 <1>        0.000
      6 C8         -0.4321    1.8081    0.8806 C.2        1 <1>        0.000
      7 C10         0.7344    0.2551    2.2718 C.2        1 <1>        0.000
      8 O4          1.7091    0.6688    2.8860 O.2        1 <1>        0.000
      9 O5          0.6958   -0.9868    1.7913 O.3        1 <1>        0.000
     10 H          -2.6393    1.7592    5.2562 H.spc      1 <1>        0.000
     11 H          -1.1092    1.6778    3.8575 H.spc      1 <1>        0.000
     12 H           0.3768    1.6602    0.1651 H.spc      1 <1>        0.000
     13 H          -1.2506    2.4883    0.6450 H.spc      1 <1>        0.000
     14 H          -0.1411   -1.1294    1.3431 H.spc      1 <1>        0.000
@<TRIPOS>BOND
     1    1    2 1  
     2    2    3 2  
     3    2    4 am 
     4    4    5 1  
     5    5    6 2  
     6    5    7 1  
     7    7    8 2  
     8    7    9 1  
     9    1   10 1  
    10    4   11 1  
    11    6   12 1  
    12    6   13 1  
    13    9   14 1  
# Name:          frag3-235-3/31924 -- energy: 0.223527
# Creation time: Sat Jun  5 12:52:35 2010


@<TRIPOS>MOLECULE
frag3-235-3/31924 -- energy: 0.223527
   14    13     1     1     1
SMALL
USER_CHARGES


@<TRIPOS>ATOM
      1 S1         -3.9042    0.3848    3.8618 S.3        1 <1>        0.000
      2 C6         -2.8304    1.2921    2.8976 C.2        1 <1>        0.000
      3 S2         -3.1662    2.7056    2.0750 S.2        1 <1>        0.000
      4 N2         -1.5956    0.6280    2.8359 N.am       1 <1>        0.000
      5 C7         -0.3997    0.9376    2.2606 C.2        1 <1>        0.000
      6 C8         -0.0937    2.1862    1.9251 C.2        1 <1>        0.000
      7 C10         0.7186    0.0188    1.9555 C.2        1 <1>        0.000
      8 O4          1.8534    0.1941    2.3790 O.2        1 <1>        0.000
      9 O5          0.4400   -1.0528    1.2086 O.3        1 <1>        0.000
     10 H          -3.2696   -0.6770    4.3504 H.spc      1 <1>        0.000
     11 H          -1.5927   -0.2695    3.3205 H.spc      1 <1>        0.000
     12 H           0.8793    2.4102    1.4877 H.spc      1 <1>        0.000
     13 H          -0.8156    2.9866    2.0872 H.spc      1 <1>        0.000
     14 H          -0.4876   -1.0371    0.9618 H.spc      1 <1>        0.000
@<TRIPOS>BOND
     1    1    2 1  
     2    2    3 2  
     3    2    4 am 
     4    4    5 1  
     5    5    6 2  
     6    5    7 1  
     7    7    8 2  
     8    7    9 1  
     9    1   10 1  
    10    4   11 1  
    11    6   12 1  
    12    6   13 1  
    13    9   14 1  
# Name:          frag3-235-3/31924 -- energy: -2.105820
# Creation time: Sat Jun  5 12:52:35 2010


@<TRIPOS>MOLECULE
frag3-235-3/31924 -- energy: -2.105820
   14    13     1     1     1
SMALL
USER_CHARGES


@<TRIPOS>ATOM
      1 S1         -3.1472    0.4163    1.7453 S.3        1 <1>        0.000
      2 C6         -2.4350    0.8868    3.2451 C.2        1 <1>        0.000
      3 S2         -3.0316    0.3914    4.7055 S.2        1 <1>        0.000
      4 N2         -1.2896    1.7008    3.1151 N.am       1 <1>        0.000
      5 C7         -0.2097    1.5629    2.3025 C.2        1 <1>        0.000
      6 C8          0.6730    2.5457    2.1062 C.2        1 <1>        0.000
      7 C10         0.0832    0.3028    1.5570 C.2        1 <1>        0.000
      8 O4          0.0181    0.2753    0.3443 O.2        1 <1>        0.000
      9 O5          0.3609   -0.7875    2.2781 O.3        1 <1>        0.000
     10 H          -2.4634    0.9591    0.7420 H.spc      1 <1>        0.000
     11 H          -1.2694    2.5182    3.7249 H.spc      1 <1>        0.000
     12 H           1.5241    2.3895    1.4434 H.spc      1 <1>        0.000
     13 H           0.5423    3.5041    2.6088 H.spc      1 <1>        0.000
     14 H           0.3664   -0.5601    3.2108 H.spc      1 <1>        0.000
@<TRIPOS>BOND
     1    1    2 1  
     2    2    3 2  
     3    2    4 am 
     4    4    5 1  
     5    5    6 2  
     6    5    7 1  
     7    7    8 2  
     8    7    9 1  
     9    1   10 1  
    10    4   11 1  
    11    6   12 1  
    12    6   13 1  
    13    9   14 1  
# Name:          frag3-235-3/31924 -- energy: 1.784223
# Creation time: Sat Jun  5 12:52:35 2010


@<TRIPOS>MOLECULE
frag3-235-3/31924 -- energy: 1.784223
   14    13     1     1     1
SMALL
USER_CHARGES


@<TRIPOS>ATOM
      1 S1         -2.2198    2.2176    3.8741 S.3        1 <1>        0.000
      2 C6         -2.7542    0.7463    3.0793 C.2        1 <1>        0.000
      3 S2         -4.3134    0.1050    3.1196 S.2        1 <1>        0.000
      4 N2         -1.6760    0.1901    2.4066 N.am       1 <1>        0.000
      5 C7         -0.6483    0.8128    1.7544 C.2        1 <1>        0.000
      6 C8         -0.9051    1.7322    0.8277 C.2        1 <1>        0.000
      7 C10         0.7670    0.5524    2.0618 C.2        1 <1>        0.000
      8 O4          1.0789    0.0544    3.1227 O.2        1 <1>        0.000
      9 O5          1.6930    0.8837    1.1529 O.3        1 <1>        0.000
     10 H          -0.9282    2.4114    3.6227 H.spc      1 <1>        0.000
     11 H          -1.6456   -0.8294    2.3972 H.spc      1 <1>        0.000
     12 H          -0.0844    2.2533    0.3348 H.spc      1 <1>        0.000
     13 H          -1.9362    1.9644    0.5613 H.spc      1 <1>        0.000
     14 H           1.2627    1.2616    0.3824 H.spc      1 <1>        0.000
@<TRIPOS>BOND
     1    1    2 1  
     2    2    3 2  
     3    2    4 am 
     4    4    5 1  
     5    5    6 2  
     6    5    7 1  
     7    7    8 2  
     8    7    9 1  
     9    1   10 1  
    10    4   11 1  
    11    6   12 1  
    12    6   13 1  
    13    9   14 1  
# Name:          frag3-235-3/31924 -- energy: -1.508551
# Creation time: Sat Jun  5 12:52:35 2010


@<TRIPOS>MOLECULE
frag3-235-3/31924 -- energy: -1.508551
   14    13     1     1     1
SMALL
USER_CHARGES


@<TRIPOS>ATOM
      1 S1         -4.3000    0.8483    2.6529 S.3        1 <1>        0.000
      2 C6         -2.6698    1.1974    3.1379 C.2        1 <1>        0.000
      3 S2         -2.2049    1.6828    4.6953 S.2        1 <1>        0.000
      4 N2         -1.7729    0.9374    2.1030 N.am       1 <1>        0.000
      5 C7         -0.4374    1.1002    2.0451 C.2        1 <1>        0.000
      6 C8          0.1293    2.2474    2.4400 C.2        1 <1>        0.000
      7 C10         0.5053    0.0539    1.6010 C.2        1 <1>        0.000
      8 O4          1.1178   -0.6103    2.4281 O.2        1 <1>        0.000
      9 O5          0.6548   -0.1627    0.2958 O.3        1 <1>        0.000
     10 H          -4.3138    0.4977    1.3700 H.spc      1 <1>        0.000
     11 H          -2.1960    0.5640    1.2533 H.spc      1 <1>        0.000
     12 H           1.2137    2.3555    2.4179 H.spc      1 <1>        0.000
     13 H          -0.4938    3.0731    2.7835 H.spc      1 <1>        0.000
     14 H           0.0999    0.4484   -0.1945 H.spc      1 <1>        0.000
@<TRIPOS>BOND
     1    1    2 1  
     2    2    3 2  
     3    2    4 am 
     4    4    5 1  
     5    5    6 2  
     6    5    7 1  
     7    7    8 2  
     8    7    9 1  
     9    1   10 1  
    10    4   11 1  
    11    6   12 1  
    12    6   13 1  
    13    9   14 1  
# Name:          frag3-235-3/31924 -- energy: 1.300344
# Creation time: Sat Jun  5 12:52:35 2010


@<TRIPOS>MOLECULE
frag3-235-3/31924 -- energy: 1.300344
   14    13     1     1     1
SMALL
USER_CHARGES


@<TRIPOS>ATOM
      1 S1         -3.3714    1.9204    4.4050 S.3        1 <1>        0.000
      2 C6         -2.8361    1.1269    2.9952 C.2        1 <1>        0.000
      3 S2         -3.7944    0.1512    2.0471 S.2        1 <1>        0.000
      4 N2         -1.4598    1.3544    2.7371 N.am       1 <1>        0.000
      5 C7         -0.5578    0.7639    1.9006 C.2        1 <1>        0.000
      6 C8         -0.9365    0.1656    0.7676 C.2        1 <1>        0.000
      7 C10         0.8992    0.6326    2.1485 C.2        1 <1>        0.000
      8 O4          1.3277    0.5560    3.2836 O.2        1 <1>        0.000
      9 O5          1.7512    0.6234    1.1143 O.3        1 <1>        0.000
     10 H          -2.3669    2.6180    4.9277 H.spc      1 <1>        0.000
     11 H          -1.0635    2.1147    3.2897 H.spc      1 <1>        0.000
     12 H          -0.1987   -0.3426    0.1467 H.spc      1 <1>        0.000
     13 H          -1.9832    0.1857    0.4641 H.spc      1 <1>        0.000
     14 H           1.2574    0.6905    0.2938 H.spc      1 <1>        0.000
@<TRIPOS>BOND
     1    1    2 1  
     2    2    3 2  
     3    2    4 am 
     4    4    5 1  
     5    5    6 2  
     6    5    7 1  
     7    7    8 2  
     8    7    9 1  
     9    1   10 1  
    10    4   11 1  
    11    6   12 1  
    12    6   13 1  
    13    9   14 1  
# Name:          frag3-235-3/31924 -- energy: -1.180299
# Creation time: Sat Jun  5 12:52:35 2010


@<TRIPOS>MOLECULE
frag3-235-3/31924 -- energy: -1.180299
   14    13     1     1     1
SMALL
USER_CHARGES


@<TRIPOS>ATOM
      1 S1         -3.1456    1.2918    4.1708 S.3        1 <1>        0.000
      2 C6         -2.6462    0.7894    2.6042 C.2        1 <1>        0.000
      3 S2         -3.1888   -0.6241    1.9189 S.2        1 <1>        0.000
      4 N2         -1.7203    1.6448    1.9699 N.am       1 <1>        0.000
      5 C7         -0.3890    1.4933    1.7730 C.2        1 <1>        0.000
      6 C8          0.3064    2.2844    0.9486 C.2        1 <1>        0.000
      7 C10         0.4102    0.4433    2.4466 C.2        1 <1>        0.000
      8 O4          1.3611   -0.0867    1.8942 O.2        1 <1>        0.000
      9 O5          0.0345    0.0583    3.6727 O.3        1 <1>        0.000
     10 H          -2.5637    2.4498    4.4698 H.spc      1 <1>        0.000
     11 H          -2.1146    2.5110    1.6030 H.spc      1 <1>        0.000
     12 H           1.3770    2.1276    0.8169 H.spc      1 <1>        0.000
     13 H          -0.1975    3.0859    0.4085 H.spc      1 <1>        0.000
     14 H          -0.7240    0.5766    3.9513 H.spc      1 <1>        0.000
@<TRIPOS>BOND
     1    1    2 1  
     2    2    3 2  
     3    2    4 am 
     4    4    5 1  
     5    5    6 2  
     6    5    7 1  
     7    7    8 2  
     8    7    9 1  
     9    1   10 1  
    10    4   11 1  
    11    6   12 1  
    12    6   13 1  
    13    9   14 1  
# Name:          frag3-235-3/31924 -- energy: -1.145691
# Creation time: Sat Jun  5 12:52:35 2010


@<TRIPOS>MOLECULE
frag3-235-3/31924 -- energy: -1.145691
   14    13     1     1     1
SMALL
USER_CHARGES


@<TRIPOS>ATOM
      1 S1         -3.2613    1.9498    2.0417 S.3        1 <1>        0.000
      2 C6         -2.7094    0.8344    3.2502 C.2        1 <1>        0.000
      3 S2         -3.6073    0.3301    4.5441 S.2        1 <1>        0.000
      4 N2         -1.3965    0.3935    3.0068 N.am       1 <1>        0.000
      5 C7         -0.3723    1.0156    2.3714 C.2        1 <1>        0.000
      6 C8         -0.1701    2.3327    2.5409 C.2        1 <1>        0.000
      7 C10         0.5788    0.3694    1.4484 C.2        1 <1>        0.000
      8 O4          0.9918    0.9423    0.4507 O.2        1 <1>        0.000
      9 O5          0.9685   -0.8734    1.7448 O.3        1 <1>        0.000
     10 H          -2.2982    2.1415    1.1447 H.spc      1 <1>        0.000
     11 H          -1.1812   -0.5377    3.3630 H.spc      1 <1>        0.000
     12 H           0.6442    2.8312    2.0151 H.spc      1 <1>        0.000
     13 H          -0.8204    2.9030    3.2043 H.spc      1 <1>        0.000
     14 H           0.5435   -1.1554    2.5581 H.spc      1 <1>        0.000
@<TRIPOS>BOND
     1    1    2 1  
     2    2    3 2  
     3    2    4 am 
     4    4    5 1  
     5    5    6 2  
     6    5    7 1  
     7    7    8 2  
     8    7    9 1  
     9    1   10 1  
    10    4   11 1  
    11    6   12 1  
    12    6   13 1  
    13    9   14 1  
# Name:          frag3-235-3/31924 -- energy: -1.528656
# Creation time: Sat Jun  5 12:52:35 2010


@<TRIPOS>MOLECULE
frag3-235-3/31924 -- energy: -1.528656
   14    13     1     1     1
SMALL
USER_CHARGES


@<TRIPOS>ATOM
      1 S1         -3.5034    1.7847    2.0295 S.3        1 <1>        0.000
      2 C6         -2.7106    0.8767    3.2807 C.2        1 <1>        0.000
      3 S2         -3.3743    0.6544    4.7820 S.2        1 <1>        0.000
      4 N2         -1.4486    0.3825    2.8981 N.am       1 <1>        0.000
      5 C7         -0.4427    0.9965    2.2252 C.2        1 <1>        0.000
      6 C8         -0.3947    2.3335    2.1471 C.2        1 <1>        0.000
      7 C10         0.6765    0.3114    1.5575 C.2        1 <1>        0.000
      8 O4          1.8128    0.3866    1.9990 O.2        1 <1>        0.000
      9 O5          0.4071   -0.4319    0.4800 O.3        1 <1>        0.000
     10 H          -2.7405    1.7950    0.9401 H.spc      1 <1>        0.000
     11 H          -1.2624   -0.5835    3.1676 H.spc      1 <1>        0.000
     12 H           0.4270    2.8196    1.6211 H.spc      1 <1>        0.000
     13 H          -1.1773    2.9349    2.6096 H.spc      1 <1>        0.000
     14 H          -0.5296   -0.3731    0.2781 H.spc      1 <1>        0.000
@<TRIPOS>BOND
     1    1    2 1  
     2    2    3 2  
     3    2    4 am 
     4    4    5 1  
     5    5    6 2  
     6    5    7 1  
     7    7    8 2  
     8    7    9 1  
     9    1   10 1  
    10    4   11 1  
    11    6   12 1  
    12    6   13 1  
    13    9   14 1  
# Name:          frag3-235-3/31924 -- energy: 2.389673
# Creation time: Sat Jun  5 12:52:35 2010


@<TRIPOS>MOLECULE
frag3-235-3/31924 -- energy: 2.389673
   14    13     1     1     1
SMALL
USER_CHARGES


@<TRIPOS>ATOM
      1 S1         -3.2883    2.5589    3.2574 S.3        1 <1>        0.000
      2 C6         -2.7375    0.9068    3.1971 C.2        1 <1>        0.000
      3 S2         -3.7005   -0.4846    3.2353 S.2        1 <1>        0.000
      4 N2         -1.3545    0.8959    3.0848 N.am       1 <1>        0.000
      5 C7         -0.5724    0.9218    1.9823 C.2        1 <1>        0.000
      6 C8         -1.0579    1.3568    0.8158 C.2        1 <1>        0.000
      7 C10         0.8428    0.4977    1.9756 C.2        1 <1>        0.000
      8 O4          1.4616    0.4522    3.0311 O.2        1 <1>        0.000
      9 O5          1.4289    0.1889    0.8197 O.3        1 <1>        0.000
     10 H          -2.2403    3.3762    3.2049 H.spc      1 <1>        0.000
     11 H          -0.8501    0.8633    3.9708 H.spc      1 <1>        0.000
     12 H          -0.4172    1.3824   -0.0656 H.spc      1 <1>        0.000
     13 H          -2.0946    1.6860    0.7457 H.spc      1 <1>        0.000
     14 H           0.7940    0.2811    0.1056 H.spc      1 <1>        0.000
@<TRIPOS>BOND
     1    1    2 1  
     2    2    3 2  
     3    2    4 am 
     4    4    5 1  
     5    5    6 2  
     6    5    7 1  
     7    7    8 2  
     8    7    9 1  
     9    1   10 1  
    10    4   11 1  
    11    6   12 1  
    12    6   13 1  
    13    9   14 1  
