#      Rotatable Fragment
#      Build by yxyuan
#
# Name:          frag3-149-17/31924
# Creation time: Sat Jun  5 12:52:04 2010


@<TRIPOS>MOLECULE
frag3-149-17/31924
   10     9     1     1     1
SMALL
USER_CHARGES


@<TRIPOS>ATOM
      1 C10        -0.1225    0.5768   -0.3130 C.2        1 <1>        0.000
      2 C11        -1.0712   -0.1385    0.2916 C.2        1 <1>        0.000
      3 O1         -2.4032    0.0550    0.2254 O.3        1 <1>        0.000
      4 C13         1.3143    0.3437   -0.2258 C.2        1 <1>        0.000
      5 O2          1.8203   -0.1085    0.7910 O.2        1 <1>        0.000
      6 O3          2.0088    0.6754   -1.3115 O.3        1 <1>        0.000
      7 H          -0.4513    1.4133   -0.9296 H.spc      1 <1>        0.000
      8 H          -0.7322   -0.9716    0.9073 H.spc      1 <1>        0.000
      9 H          -2.8485   -0.6074    0.7588 H.spc      1 <1>        0.000
     10 H           1.4097    1.0070   -1.9843 H.spc      1 <1>        0.000
@<TRIPOS>BOND
     1    1    2 2  
     2    1    4 1  
     3    2    3 1  
     4    4    5 2  
     5    4    6 1  
     6    1    7 1  
     7    2    8 1  
     8    3    9 1  
     9    6   10 1  
# Name:          frag3-149-17/31924
# Creation time: Sat Jun  5 12:52:04 2010


@<TRIPOS>MOLECULE
frag3-149-17/31924
   10     9     1     1     1
SMALL
USER_CHARGES


@<TRIPOS>ATOM
      1 C10        -0.0293    0.2207    0.4087 C.2        1 <1>        0.000
      2 C11        -1.1420    0.1355   -0.3238 C.2        1 <1>        0.000
      3 O1         -2.4216    0.1042    0.0748 O.3        1 <1>        0.000
      4 C13         1.3536    0.2854   -0.0663 C.2        1 <1>        0.000
      5 O2          2.2628    0.0961    0.7195 O.2        1 <1>        0.000
      6 O3          1.5231    0.5620   -1.3553 O.3        1 <1>        0.000
      7 H          -0.1671    0.2450    1.4897 H.spc      1 <1>        0.000
      8 H          -0.9879    0.0839   -1.4016 H.spc      1 <1>        0.000
      9 H          -2.9934    0.0394   -0.6936 H.spc      1 <1>        0.000
     10 H           0.6658    0.6704   -1.7736 H.spc      1 <1>        0.000
@<TRIPOS>BOND
     1    1    2 2  
     2    1    4 1  
     3    2    3 1  
     4    4    5 2  
     5    4    6 1  
     6    1    7 1  
     7    2    8 1  
     8    3    9 1  
     9    6   10 1  
# Name:          frag3-149-17/31924 -- energy: -0.238403
# Creation time: Sat Jun  5 12:52:04 2010


@<TRIPOS>MOLECULE
frag3-149-17/31924 -- energy: -0.238403
   10     9     1     1     1
SMALL
USER_CHARGES


@<TRIPOS>ATOM
      1 C10        -0.1225    0.5768   -0.3130 C.2        1 <1>        0.000
      2 C11        -1.0712   -0.1385    0.2916 C.2        1 <1>        0.000
      3 O1         -2.4032    0.0550    0.2254 O.3        1 <1>        0.000
      4 C13         1.3143    0.3437   -0.2258 C.2        1 <1>        0.000
      5 O2          1.8203   -0.1085    0.7910 O.2        1 <1>        0.000
      6 O3          2.0088    0.6754   -1.3115 O.3        1 <1>        0.000
      7 H          -0.4513    1.4133   -0.9296 H.spc      1 <1>        0.000
      8 H          -0.7322   -0.9716    0.9073 H.spc      1 <1>        0.000
      9 H          -2.8485   -0.6074    0.7588 H.spc      1 <1>        0.000
     10 H           1.4097    1.0070   -1.9843 H.spc      1 <1>        0.000
@<TRIPOS>BOND
     1    1    2 2  
     2    1    4 1  
     3    2    3 1  
     4    4    5 2  
     5    4    6 1  
     6    1    7 1  
     7    2    8 1  
     8    3    9 1  
     9    6   10 1  
# Name:          frag3-149-17/31924 -- energy: 0.959018
# Creation time: Sat Jun  5 12:52:04 2010


@<TRIPOS>MOLECULE
frag3-149-17/31924 -- energy: 0.959018
   10     9     1     1     1
SMALL
USER_CHARGES


@<TRIPOS>ATOM
      1 C10        -0.0293    0.2207    0.4087 C.2        1 <1>        0.000
      2 C11        -1.1420    0.1355   -0.3238 C.2        1 <1>        0.000
      3 O1         -2.4216    0.1042    0.0748 O.3        1 <1>        0.000
      4 C13         1.3536    0.2854   -0.0663 C.2        1 <1>        0.000
      5 O2          2.2628    0.0961    0.7195 O.2        1 <1>        0.000
      6 O3          1.5231    0.5620   -1.3553 O.3        1 <1>        0.000
      7 H          -0.1671    0.2450    1.4897 H.spc      1 <1>        0.000
      8 H          -0.9879    0.0839   -1.4016 H.spc      1 <1>        0.000
      9 H          -2.9934    0.0394   -0.6936 H.spc      1 <1>        0.000
     10 H           0.6658    0.6704   -1.7736 H.spc      1 <1>        0.000
@<TRIPOS>BOND
     1    1    2 2  
     2    1    4 1  
     3    2    3 1  
     4    4    5 2  
     5    4    6 1  
     6    1    7 1  
     7    2    8 1  
     8    3    9 1  
     9    6   10 1  
