#      Rotatable Fragment
#      Build by yxyuan
#
# Name:          frag4-483-33/48856
# Creation time: Sat Jun  5 12:52:49 2010


@<TRIPOS>MOLECULE
frag4-483-33/48856
   14    15     1     1     1
SMALL
USER_CHARGES


@<TRIPOS>ATOM
      1 S1         -0.6315   -2.2848    0.7510 S.3        1 <1>        0.000
      2 C1         -1.9212   -1.0474    0.4337 C.3        1 <1>        0.000
      3 N1         -1.1214   -0.1353   -0.3329 N.pl3      1 <1>        0.000
      4 C2          0.1473    0.0411   -0.1342 C.2        1 <1>        0.000
      5 C3          0.6016   -0.9883    0.5830 C.2        1 <1>        0.000
      6 C10        -1.8980    0.3547   -1.2326 C.3        1 <1>        0.000
      7 C11        -2.8723   -0.7104   -0.7668 C.3        1 <1>        0.000
      8 H          -2.4691   -1.1873    1.3656 H.spc      1 <1>        0.000
      9 H           0.7398    0.8836   -0.4909 H.spc      1 <1>        0.000
     10 H           1.6010   -1.0370    1.0153 H.spc      1 <1>        0.000
     11 H          -1.6013    0.4773   -2.2743 H.spc      1 <1>        0.000
     12 H          -2.1530    1.4130   -1.2885 H.spc      1 <1>        0.000
     13 H          -3.9157   -0.4544   -0.5828 H.spc      1 <1>        0.000
     14 H          -3.1901   -1.4976   -1.4505 H.spc      1 <1>        0.000
@<TRIPOS>BOND
     1    1    2 1  
     2    1    5 1  
     3    2    3 1  
     4    2    7 1  
     5    3    4 1  
     6    3    6 1  
     7    4    5 2  
     8    6    7 1  
     9    2    8 1  
    10    4    9 1  
    11    5   10 1  
    12    6   11 1  
    13    6   12 1  
    14    7   13 1  
    15    7   14 1  
# Name:          frag4-483-33/48856 -- energy: -1.008232
# Creation time: Sat Jun  5 12:52:49 2010


@<TRIPOS>MOLECULE
frag4-483-33/48856 -- energy: -1.008232
   14    15     1     1     1
SMALL
USER_CHARGES


@<TRIPOS>ATOM
      1 S1         -0.6315   -2.2848    0.7510 S.3        1 <1>        0.000
      2 C1         -1.9212   -1.0474    0.4337 C.3        1 <1>        0.000
      3 N1         -1.1214   -0.1353   -0.3329 N.pl3      1 <1>        0.000
      4 C2          0.1473    0.0411   -0.1342 C.2        1 <1>        0.000
      5 C3          0.6016   -0.9883    0.5830 C.2        1 <1>        0.000
      6 C10        -1.8980    0.3547   -1.2326 C.3        1 <1>        0.000
      7 C11        -2.8723   -0.7104   -0.7668 C.3        1 <1>        0.000
      8 H          -2.4691   -1.1873    1.3656 H.spc      1 <1>        0.000
      9 H           0.7398    0.8836   -0.4909 H.spc      1 <1>        0.000
     10 H           1.6010   -1.0370    1.0153 H.spc      1 <1>        0.000
     11 H          -1.6013    0.4773   -2.2743 H.spc      1 <1>        0.000
     12 H          -2.1530    1.4130   -1.2885 H.spc      1 <1>        0.000
     13 H          -3.9157   -0.4544   -0.5828 H.spc      1 <1>        0.000
     14 H          -3.1901   -1.4976   -1.4505 H.spc      1 <1>        0.000
@<TRIPOS>BOND
     1    1    2 1  
     2    1    5 1  
     3    2    3 1  
     4    2    7 1  
     5    3    4 1  
     6    3    6 1  
     7    4    5 2  
     8    6    7 1  
     9    2    8 1  
    10    4    9 1  
    11    5   10 1  
    12    6   11 1  
    13    6   12 1  
    14    7   13 1  
    15    7   14 1  
