#      Rotatable Fragment
#      Build by yxyuan
#
# Name:          frag5-681-23/41815
# Creation time: Sat Jun  5 12:53:03 2010


@<TRIPOS>MOLECULE
frag5-681-23/41815
   15    15     1     1     1
SMALL
USER_CHARGES


@<TRIPOS>ATOM
      1 S1         -5.3829    0.0333    0.2118 S.o2       1 <1>        0.000
      2 O1         -4.2090    0.0859    1.0316 O.2        1 <1>        0.000
      3 O2         -5.3928    0.1338   -1.2190 O.2        1 <1>        0.000
      4 C15        -6.7328    0.7640    0.9412 C.ar       1 <1>        0.000
      5 C16        -7.2438    0.4363    2.2183 C.ar       1 <1>        0.000
      6 C17        -8.2859    1.1350    2.8102 C.ar       1 <1>        0.000
      7 C18        -8.8690    2.2007    2.1279 C.ar       1 <1>        0.000
      8 C19        -8.4018    2.5636    0.8668 C.ar       1 <1>        0.000
      9 C20        -7.3606    1.8517    0.2987 C.ar       1 <1>        0.000
     10 H          -5.4277   -1.2959    0.2023 H.spc      1 <1>        0.000
     11 H          -6.8008   -0.3995    2.7598 H.spc      1 <1>        0.000
     12 H          -8.6452    0.8529    3.7999 H.spc      1 <1>        0.000
     13 H          -9.6926    2.7517    2.5820 H.spc      1 <1>        0.000
     14 H          -8.8522    3.4003    0.3328 H.spc      1 <1>        0.000
     15 H          -7.0092    2.1446   -0.6907 H.spc      1 <1>        0.000
@<TRIPOS>BOND
     1    1    2 2  
     2    1    3 2  
     3    1    4 1  
     4    4    5 ar 
     5    4    9 ar 
     6    5    6 ar 
     7    6    7 ar 
     8    7    8 ar 
     9    8    9 ar 
    10    1   10 1  
    11    5   11 1  
    12    6   12 1  
    13    7   13 1  
    14    8   14 1  
    15    9   15 1  
# Name:          frag5-681-23/41815
# Creation time: Sat Jun  5 12:53:03 2010


@<TRIPOS>MOLECULE
frag5-681-23/41815
   15    15     1     1     1
SMALL
USER_CHARGES


@<TRIPOS>ATOM
      1 S1         -5.3160    0.0689    0.2967 S.o2       1 <1>        0.000
      2 O1         -4.0897    0.7688    0.5369 O.2        1 <1>        0.000
      3 O2         -5.6511   -0.6054   -0.9217 O.2        1 <1>        0.000
      4 C15        -6.6618    0.8020    1.0360 C.ar       1 <1>        0.000
      5 C16        -7.0257    2.0928    0.5996 C.ar       1 <1>        0.000
      6 C17        -8.1205    2.7746    1.0996 C.ar       1 <1>        0.000
      7 C18        -8.9116    2.1745    2.0774 C.ar       1 <1>        0.000
      8 C19        -8.6028    0.8963    2.5398 C.ar       1 <1>        0.000
      9 C20        -7.4994    0.2319    2.0229 C.ar       1 <1>        0.000
     10 H          -4.9005   -1.0364    0.9087 H.spc      1 <1>        0.000
     11 H          -6.4172    2.5746   -0.1657 H.spc      1 <1>        0.000
     12 H          -8.3622    3.7720    0.7322 H.spc      1 <1>        0.000
     13 H          -9.7735    2.7056    2.4814 H.spc      1 <1>        0.000
     14 H          -9.2227    0.4226    3.3010 H.spc      1 <1>        0.000
     15 H          -7.2694   -0.7677    2.3917 H.spc      1 <1>        0.000
@<TRIPOS>BOND
     1    1    2 2  
     2    1    3 2  
     3    1    4 1  
     4    4    5 ar 
     5    4    9 ar 
     6    5    6 ar 
     7    6    7 ar 
     8    7    8 ar 
     9    8    9 ar 
    10    1   10 1  
    11    5   11 1  
    12    6   12 1  
    13    7   13 1  
    14    8   14 1  
    15    9   15 1  
# Name:          frag5-681-23/41815 -- energy: -0.557838
# Creation time: Sat Jun  5 12:53:03 2010


@<TRIPOS>MOLECULE
frag5-681-23/41815 -- energy: -0.557838
   15    15     1     1     1
SMALL
USER_CHARGES


@<TRIPOS>ATOM
      1 S1         -5.3829    0.0333    0.2118 S.o2       1 <1>        0.000
      2 O1         -4.2090    0.0859    1.0316 O.2        1 <1>        0.000
      3 O2         -5.3928    0.1338   -1.2190 O.2        1 <1>        0.000
      4 C15        -6.7328    0.7640    0.9412 C.ar       1 <1>        0.000
      5 C16        -7.2438    0.4363    2.2183 C.ar       1 <1>        0.000
      6 C17        -8.2859    1.1350    2.8102 C.ar       1 <1>        0.000
      7 C18        -8.8690    2.2007    2.1279 C.ar       1 <1>        0.000
      8 C19        -8.4018    2.5636    0.8668 C.ar       1 <1>        0.000
      9 C20        -7.3606    1.8517    0.2987 C.ar       1 <1>        0.000
     10 H          -5.4277   -1.2959    0.2023 H.spc      1 <1>        0.000
     11 H          -6.8008   -0.3995    2.7598 H.spc      1 <1>        0.000
     12 H          -8.6452    0.8529    3.7999 H.spc      1 <1>        0.000
     13 H          -9.6926    2.7517    2.5820 H.spc      1 <1>        0.000
     14 H          -8.8522    3.4003    0.3328 H.spc      1 <1>        0.000
     15 H          -7.0092    2.1446   -0.6907 H.spc      1 <1>        0.000
@<TRIPOS>BOND
     1    1    2 2  
     2    1    3 2  
     3    1    4 1  
     4    4    5 ar 
     5    4    9 ar 
     6    5    6 ar 
     7    6    7 ar 
     8    7    8 ar 
     9    8    9 ar 
    10    1   10 1  
    11    5   11 1  
    12    6   12 1  
    13    7   13 1  
    14    8   14 1  
    15    9   15 1  
# Name:          frag5-681-23/41815 -- energy: -0.568026
# Creation time: Sat Jun  5 12:53:03 2010


@<TRIPOS>MOLECULE
frag5-681-23/41815 -- energy: -0.568026
   15    15     1     1     1
SMALL
USER_CHARGES


@<TRIPOS>ATOM
      1 S1         -5.3160    0.0689    0.2967 S.o2       1 <1>        0.000
      2 O1         -4.0897    0.7688    0.5369 O.2        1 <1>        0.000
      3 O2         -5.6511   -0.6054   -0.9217 O.2        1 <1>        0.000
      4 C15        -6.6618    0.8020    1.0360 C.ar       1 <1>        0.000
      5 C16        -7.0257    2.0928    0.5996 C.ar       1 <1>        0.000
      6 C17        -8.1205    2.7746    1.0996 C.ar       1 <1>        0.000
      7 C18        -8.9116    2.1745    2.0774 C.ar       1 <1>        0.000
      8 C19        -8.6028    0.8963    2.5398 C.ar       1 <1>        0.000
      9 C20        -7.4994    0.2319    2.0229 C.ar       1 <1>        0.000
     10 H          -4.9005   -1.0364    0.9087 H.spc      1 <1>        0.000
     11 H          -6.4172    2.5746   -0.1657 H.spc      1 <1>        0.000
     12 H          -8.3622    3.7720    0.7322 H.spc      1 <1>        0.000
     13 H          -9.7735    2.7056    2.4814 H.spc      1 <1>        0.000
     14 H          -9.2227    0.4226    3.3010 H.spc      1 <1>        0.000
     15 H          -7.2694   -0.7677    2.3917 H.spc      1 <1>        0.000
@<TRIPOS>BOND
     1    1    2 2  
     2    1    3 2  
     3    1    4 1  
     4    4    5 ar 
     5    4    9 ar 
     6    5    6 ar 
     7    6    7 ar 
     8    7    8 ar 
     9    8    9 ar 
    10    1   10 1  
    11    5   11 1  
    12    6   12 1  
    13    7   13 1  
    14    8   14 1  
    15    9   15 1  
