#      Rotatable Fragment
#      Build by yxyuan
#
# Name:          frag4-326-239/48856
# Creation time: Sat Jun  5 12:52:48 2010


@<TRIPOS>MOLECULE
frag4-326-239/48856
   16    16     1     1     1
SMALL
USER_CHARGES


@<TRIPOS>ATOM
      1 N2         -1.3810    2.7361    0.2824 N.4        1 <1>        0.000
      2 C10        -0.5109    3.4168   -0.6923 C.3        1 <1>        0.000
      3 C11        -1.1604    3.9529   -1.9464 C.3        1 <1>        0.000
      4 O1         -2.2566    4.7029   -1.5554 O.3        1 <1>        0.000
      5 C12        -3.1153    4.3511   -0.5223 C.3        1 <1>        0.000
      6 C13        -2.8051    2.9851    0.0458 C.3        1 <1>        0.000
      7 H          -1.1515    3.0951    1.2091 H.spc      1 <1>        0.000
      8 H          -1.2213    1.7325    0.1952 H.spc      1 <1>        0.000
      9 H           0.2013    2.6631   -1.0283 H.spc      1 <1>        0.000
     10 H          -0.1107    4.2873   -0.1725 H.spc      1 <1>        0.000
     11 H          -1.4692    3.1347   -2.5970 H.spc      1 <1>        0.000
     12 H          -0.4573    4.5675   -2.5085 H.spc      1 <1>        0.000
     13 H          -4.1298    4.3281   -0.9203 H.spc      1 <1>        0.000
     14 H          -2.9985    5.0830    0.2770 H.spc      1 <1>        0.000
     15 H          -3.3057    2.9197    1.0118 H.spc      1 <1>        0.000
     16 H          -3.1404    2.2508   -0.6866 H.spc      1 <1>        0.000
@<TRIPOS>BOND
     1    1    2 1  
     2    1    6 1  
     3    2    3 1  
     4    3    4 1  
     5    4    5 1  
     6    5    6 1  
     7    1    7 1  
     8    1    8 1  
     9    2    9 1  
    10    2   10 1  
    11    3   11 1  
    12    3   12 1  
    13    5   13 1  
    14    5   14 1  
    15    6   15 1  
    16    6   16 1  
# Name:          frag4-326-239/48856 -- energy: -0.810358
# Creation time: Sat Jun  5 12:52:48 2010


@<TRIPOS>MOLECULE
frag4-326-239/48856 -- energy: -0.810358
   16    16     1     1     1
SMALL
USER_CHARGES


@<TRIPOS>ATOM
      1 N2         -1.3810    2.7361    0.2824 N.4        1 <1>        0.000
      2 C10        -0.5109    3.4168   -0.6923 C.3        1 <1>        0.000
      3 C11        -1.1604    3.9529   -1.9464 C.3        1 <1>        0.000
      4 O1         -2.2566    4.7029   -1.5554 O.3        1 <1>        0.000
      5 C12        -3.1153    4.3511   -0.5223 C.3        1 <1>        0.000
      6 C13        -2.8051    2.9851    0.0458 C.3        1 <1>        0.000
      7 H          -1.1515    3.0951    1.2091 H.spc      1 <1>        0.000
      8 H          -1.2213    1.7325    0.1952 H.spc      1 <1>        0.000
      9 H           0.2013    2.6631   -1.0283 H.spc      1 <1>        0.000
     10 H          -0.1107    4.2873   -0.1725 H.spc      1 <1>        0.000
     11 H          -1.4692    3.1347   -2.5970 H.spc      1 <1>        0.000
     12 H          -0.4573    4.5675   -2.5085 H.spc      1 <1>        0.000
     13 H          -4.1298    4.3281   -0.9203 H.spc      1 <1>        0.000
     14 H          -2.9985    5.0830    0.2770 H.spc      1 <1>        0.000
     15 H          -3.3057    2.9197    1.0118 H.spc      1 <1>        0.000
     16 H          -3.1404    2.2508   -0.6866 H.spc      1 <1>        0.000
@<TRIPOS>BOND
     1    1    2 1  
     2    1    6 1  
     3    2    3 1  
     4    3    4 1  
     5    4    5 1  
     6    5    6 1  
     7    1    7 1  
     8    1    8 1  
     9    2    9 1  
    10    2   10 1  
    11    3   11 1  
    12    3   12 1  
    13    5   13 1  
    14    5   14 1  
    15    6   15 1  
    16    6   16 1  
