#      Rotatable Fragment
#      Build by yxyuan
#
# Name:          frag3-205-5/31924
# Creation time: Sat Jun  5 12:52:20 2010


@<TRIPOS>MOLECULE
frag3-205-5/31924
   13    12     1     1     1
SMALL
USER_CHARGES


@<TRIPOS>ATOM
      1 N3         -1.8409   -0.9130    0.1584 N.am       1 <1>        0.000
      2 C11        -1.8327   -1.9092   -0.7379 C.2        1 <1>        0.000
      3 O4         -2.2406   -1.6490   -1.8740 O.2        1 <1>        0.000
      4 N4         -1.3699   -3.1583   -0.4509 N.am       1 <1>        0.000
      5 C12        -2.0225   -4.3056   -1.0308 C.2        1 <1>        0.000
      6 N5         -1.7066   -5.4776   -0.5459 N.2        1 <1>        0.000
      7 N6         -2.9003   -4.1853   -2.0992 N.pl3      1 <1>        0.000
      8 H          -2.1748    0.0125   -0.1107 H.spc      1 <1>        0.000
      9 H          -1.5132   -1.0802    1.1098 H.spc      1 <1>        0.000
     10 H          -0.5689   -3.2805    0.1687 H.spc      1 <1>        0.000
     11 H          -2.1069   -6.3228   -0.9531 H.spc      1 <1>        0.000
     12 H          -3.3102   -5.0197   -2.5189 H.spc      1 <1>        0.000
     13 H          -3.1355   -3.2625   -2.4646 H.spc      1 <1>        0.000
@<TRIPOS>BOND
     1    1    2 am 
     2    2    3 2  
     3    2    4 am 
     4    4    5 1  
     5    5    6 2  
     6    5    7 1  
     7    1    8 1  
     8    1    9 1  
     9    4   10 1  
    10    6   11 1  
    11    7   12 1  
    12    7   13 1  
# Name:          frag3-205-5/31924
# Creation time: Sat Jun  5 12:52:20 2010


@<TRIPOS>MOLECULE
frag3-205-5/31924
   13    12     1     1     1
SMALL
USER_CHARGES


@<TRIPOS>ATOM
      1 N3         -1.1458   -0.9163   -0.3259 N.am       1 <1>        0.000
      2 C11        -1.9696   -1.9141   -0.6639 C.2        1 <1>        0.000
      3 O4         -2.8920   -1.6514   -1.4503 O.2        1 <1>        0.000
      4 N4         -1.8559   -3.1720   -0.1595 N.am       1 <1>        0.000
      5 C12        -1.9900   -4.3054   -1.0441 C.2        1 <1>        0.000
      6 N5         -1.8150   -5.4952   -0.5277 N.2        1 <1>        0.000
      7 N6         -2.2452   -4.1436   -2.4088 N.pl3      1 <1>        0.000
      8 H          -1.2895    0.0167   -0.7122 H.spc      1 <1>        0.000
      9 H          -0.3738   -1.0883    0.3181 H.spc      1 <1>        0.000
     10 H          -1.6775   -3.3135    0.8348 H.spc      1 <1>        0.000
     11 H          -1.8640   -6.3219   -1.1232 H.spc      1 <1>        0.000
     12 H          -2.2974   -4.9599   -3.0182 H.spc      1 <1>        0.000
     13 H          -2.3792   -3.2092   -2.7953 H.spc      1 <1>        0.000
@<TRIPOS>BOND
     1    1    2 am 
     2    2    3 2  
     3    2    4 am 
     4    4    5 1  
     5    5    6 2  
     6    5    7 1  
     7    1    8 1  
     8    1    9 1  
     9    4   10 1  
    10    6   11 1  
    11    7   12 1  
    12    7   13 1  
# Name:          frag3-205-5/31924
# Creation time: Sat Jun  5 12:52:20 2010


@<TRIPOS>MOLECULE
frag3-205-5/31924
   13    12     1     1     1
SMALL
USER_CHARGES


@<TRIPOS>ATOM
      1 N3         -2.8293   -1.7074   -0.2382 N.am       1 <1>        0.000
      2 C11        -1.7100   -1.8969   -0.9506 C.2        1 <1>        0.000
      3 O4         -1.1486   -0.9088   -1.4428 O.2        1 <1>        0.000
      4 N4         -1.1901   -3.1318   -1.1364 N.am       1 <1>        0.000
      5 C12        -2.0565   -4.2928   -0.9571 C.2        1 <1>        0.000
      6 N5         -1.5375   -5.4161   -0.5026 N.2        1 <1>        0.000
      7 N6         -3.4416   -4.2440   -1.3525 N.pl3      1 <1>        0.000
      8 H          -3.2000   -0.7656   -0.1117 H.spc      1 <1>        0.000
      9 H          -3.3104   -2.5050    0.1775 H.spc      1 <1>        0.000
     10 H          -0.2110   -3.2495   -1.3969 H.spc      1 <1>        0.000
     11 H          -2.1164   -6.2528   -0.4302 H.spc      1 <1>        0.000
     12 H          -4.0222   -5.0796   -1.2809 H.spc      1 <1>        0.000
     13 H          -3.8413   -3.3739   -1.7039 H.spc      1 <1>        0.000
@<TRIPOS>BOND
     1    1    2 am 
     2    2    3 2  
     3    2    4 am 
     4    4    5 1  
     5    5    6 2  
     6    5    7 1  
     7    1    8 1  
     8    1    9 1  
     9    4   10 1  
    10    6   11 1  
    11    7   12 1  
    12    7   13 1  
# Name:          frag3-205-5/31924
# Creation time: Sat Jun  5 12:52:20 2010


@<TRIPOS>MOLECULE
frag3-205-5/31924
   13    12     1     1     1
SMALL
USER_CHARGES


@<TRIPOS>ATOM
      1 N3         -0.9931   -2.0406    0.0521 N.am       1 <1>        0.000
      2 C11        -1.9841   -1.8710   -0.8264 C.2        1 <1>        0.000
      3 O4         -2.2634   -0.7109   -1.1788 O.2        1 <1>        0.000
      4 N4         -2.6801   -2.9123   -1.3407 N.am       1 <1>        0.000
      5 C12        -2.1661   -4.2617   -1.1223 C.2        1 <1>        0.000
      6 N5         -1.6344   -4.5814    0.0340 N.2        1 <1>        0.000
      7 N6         -2.1922   -5.2200   -2.1982 N.pl3      1 <1>        0.000
      8 H          -0.4889   -1.2314    0.4147 H.spc      1 <1>        0.000
      9 H          -0.7402   -2.9793    0.3607 H.spc      1 <1>        0.000
     10 H          -3.5404   -2.7584   -1.8666 H.spc      1 <1>        0.000
     11 H          -1.2378   -5.5107    0.1735 H.spc      1 <1>        0.000
     12 H          -1.7966   -6.1503   -2.0623 H.spc      1 <1>        0.000
     13 H          -2.6063   -4.9680   -3.0957 H.spc      1 <1>        0.000
@<TRIPOS>BOND
     1    1    2 am 
     2    2    3 2  
     3    2    4 am 
     4    4    5 1  
     5    5    6 2  
     6    5    7 1  
     7    1    8 1  
     8    1    9 1  
     9    4   10 1  
    10    6   11 1  
    11    7   12 1  
    12    7   13 1  
# Name:          frag3-205-5/31924 -- energy: 2.547480
# Creation time: Sat Jun  5 12:52:20 2010


@<TRIPOS>MOLECULE
frag3-205-5/31924 -- energy: 2.547480
   13    12     1     1     1
SMALL
USER_CHARGES


@<TRIPOS>ATOM
      1 N3         -1.8409   -0.9130    0.1584 N.am       1 <1>        0.000
      2 C11        -1.8327   -1.9092   -0.7379 C.2        1 <1>        0.000
      3 O4         -2.2406   -1.6490   -1.8740 O.2        1 <1>        0.000
      4 N4         -1.3699   -3.1583   -0.4509 N.am       1 <1>        0.000
      5 C12        -2.0225   -4.3056   -1.0308 C.2        1 <1>        0.000
      6 N5         -1.7066   -5.4776   -0.5459 N.2        1 <1>        0.000
      7 N6         -2.9003   -4.1853   -2.0992 N.pl3      1 <1>        0.000
      8 H          -2.1748    0.0125   -0.1107 H.spc      1 <1>        0.000
      9 H          -1.5132   -1.0802    1.1098 H.spc      1 <1>        0.000
     10 H          -0.5689   -3.2805    0.1687 H.spc      1 <1>        0.000
     11 H          -2.1069   -6.3228   -0.9531 H.spc      1 <1>        0.000
     12 H          -3.3102   -5.0197   -2.5189 H.spc      1 <1>        0.000
     13 H          -3.1355   -3.2625   -2.4646 H.spc      1 <1>        0.000
@<TRIPOS>BOND
     1    1    2 am 
     2    2    3 2  
     3    2    4 am 
     4    4    5 1  
     5    5    6 2  
     6    5    7 1  
     7    1    8 1  
     8    1    9 1  
     9    4   10 1  
    10    6   11 1  
    11    7   12 1  
    12    7   13 1  
# Name:          frag3-205-5/31924 -- energy: 0.120338
# Creation time: Sat Jun  5 12:52:20 2010


@<TRIPOS>MOLECULE
frag3-205-5/31924 -- energy: 0.120338
   13    12     1     1     1
SMALL
USER_CHARGES


@<TRIPOS>ATOM
      1 N3         -1.1458   -0.9163   -0.3259 N.am       1 <1>        0.000
      2 C11        -1.9696   -1.9141   -0.6639 C.2        1 <1>        0.000
      3 O4         -2.8920   -1.6514   -1.4503 O.2        1 <1>        0.000
      4 N4         -1.8559   -3.1720   -0.1595 N.am       1 <1>        0.000
      5 C12        -1.9900   -4.3054   -1.0441 C.2        1 <1>        0.000
      6 N5         -1.8150   -5.4952   -0.5277 N.2        1 <1>        0.000
      7 N6         -2.2452   -4.1436   -2.4088 N.pl3      1 <1>        0.000
      8 H          -1.2895    0.0167   -0.7122 H.spc      1 <1>        0.000
      9 H          -0.3738   -1.0883    0.3181 H.spc      1 <1>        0.000
     10 H          -1.6775   -3.3135    0.8348 H.spc      1 <1>        0.000
     11 H          -1.8640   -6.3219   -1.1232 H.spc      1 <1>        0.000
     12 H          -2.2974   -4.9599   -3.0182 H.spc      1 <1>        0.000
     13 H          -2.3792   -3.2092   -2.7953 H.spc      1 <1>        0.000
@<TRIPOS>BOND
     1    1    2 am 
     2    2    3 2  
     3    2    4 am 
     4    4    5 1  
     5    5    6 2  
     6    5    7 1  
     7    1    8 1  
     8    1    9 1  
     9    4   10 1  
    10    6   11 1  
    11    7   12 1  
    12    7   13 1  
# Name:          frag3-205-5/31924 -- energy: -0.535495
# Creation time: Sat Jun  5 12:52:20 2010


@<TRIPOS>MOLECULE
frag3-205-5/31924 -- energy: -0.535495
   13    12     1     1     1
SMALL
USER_CHARGES


@<TRIPOS>ATOM
      1 N3         -2.8293   -1.7074   -0.2382 N.am       1 <1>        0.000
      2 C11        -1.7100   -1.8969   -0.9506 C.2        1 <1>        0.000
      3 O4         -1.1486   -0.9088   -1.4428 O.2        1 <1>        0.000
      4 N4         -1.1901   -3.1318   -1.1364 N.am       1 <1>        0.000
      5 C12        -2.0565   -4.2928   -0.9571 C.2        1 <1>        0.000
      6 N5         -1.5375   -5.4161   -0.5026 N.2        1 <1>        0.000
      7 N6         -3.4416   -4.2440   -1.3525 N.pl3      1 <1>        0.000
      8 H          -3.2000   -0.7656   -0.1117 H.spc      1 <1>        0.000
      9 H          -3.3104   -2.5050    0.1775 H.spc      1 <1>        0.000
     10 H          -0.2110   -3.2495   -1.3969 H.spc      1 <1>        0.000
     11 H          -2.1164   -6.2528   -0.4302 H.spc      1 <1>        0.000
     12 H          -4.0222   -5.0796   -1.2809 H.spc      1 <1>        0.000
     13 H          -3.8413   -3.3739   -1.7039 H.spc      1 <1>        0.000
@<TRIPOS>BOND
     1    1    2 am 
     2    2    3 2  
     3    2    4 am 
     4    4    5 1  
     5    5    6 2  
     6    5    7 1  
     7    1    8 1  
     8    1    9 1  
     9    4   10 1  
    10    6   11 1  
    11    7   12 1  
    12    7   13 1  
