#      Rotatable Fragment
#      Build by yxyuan
#
# Name:          frag3-224-6/96164
# Creation time: Sat Jun  5 12:53:14 2010


@<TRIPOS>MOLECULE
frag3-224-6/96164
    6     5     1     1     1
SMALL
USER_CHARGES


@<TRIPOS>ATOM
      1 N1          1.3621   -0.0164    0.2192 N.2        1 <1>        0.000
      2 N3          0.2783   -0.3429   -0.2685 N.2        1 <1>        0.000
      3 N5         -0.7588    0.2675    0.2180 N.pl3      1 <1>        0.000
      4 H           1.3986    0.6901    0.9540 H.spc      1 <1>        0.000
      5 H          -0.6419    0.9642    0.9538 H.spc      1 <1>        0.000
      6 H          -1.6907    0.0505   -0.1355 H.spc      1 <1>        0.000
@<TRIPOS>BOND
     1    1    2 2  
     2    2    3 1  
     3    1    4 1  
     4    3    5 1  
     5    3    6 1  
# Name:          frag3-224-6/96164 -- energy: 0.134713
# Creation time: Sat Jun  5 12:53:14 2010


@<TRIPOS>MOLECULE
frag3-224-6/96164 -- energy: 0.134713
    6     5     1     1     1
SMALL
USER_CHARGES


@<TRIPOS>ATOM
      1 N1          1.3621   -0.0164    0.2192 N.2        1 <1>        0.000
      2 N3          0.2783   -0.3429   -0.2685 N.2        1 <1>        0.000
      3 N5         -0.7588    0.2675    0.2180 N.pl3      1 <1>        0.000
      4 H           1.3986    0.6901    0.9540 H.spc      1 <1>        0.000
      5 H          -0.6419    0.9642    0.9538 H.spc      1 <1>        0.000
      6 H          -1.6907    0.0505   -0.1355 H.spc      1 <1>        0.000
@<TRIPOS>BOND
     1    1    2 2  
     2    2    3 1  
     3    1    4 1  
     4    3    5 1  
     5    3    6 1  
