#      Rotatable Fragment
#      Build by yxyuan
#
# Name:          frag5-676-23/41815
# Creation time: Sat Jun  5 12:53:03 2010


@<TRIPOS>MOLECULE
frag5-676-23/41815
   19    20     1     1     1
SMALL
USER_CHARGES


@<TRIPOS>ATOM
      1 Cl1         6.1481    3.5101    0.7281 Cl         1 <1>        0.000
      2 C1          5.7500    1.8711    0.2442 C.ar       1 <1>        0.000
      3 C2          6.6379    0.8294    0.5053 C.ar       1 <1>        0.000
      4 C3          6.3096   -0.4798    0.1409 C.ar       1 <1>        0.000
      5 N1          7.2138   -1.4520    0.3734 N.ar       1 <1>        0.000
      6 C4          6.9795   -2.7291    0.0193 C.ar       1 <1>        0.000
      7 C5          5.7416   -3.0890   -0.5203 C.ar       1 <1>        0.000
      8 C6          4.7571   -2.1153   -0.7079 C.ar       1 <1>        0.000
      9 C7          5.0677   -0.7713   -0.4571 C.ar       1 <1>        0.000
     10 C8          4.2227    0.2977   -0.7772 C.ar       1 <1>        0.000
     11 C9          4.5443    1.6063   -0.4057 C.ar       1 <1>        0.000
     12 N2          3.5210   -2.5056   -1.1214 N.pl3      1 <1>        0.000
     13 H           7.5899    1.0356    0.9944 H.spc      1 <1>        0.000
     14 H           7.7554   -3.4829    0.1534 H.spc      1 <1>        0.000
     15 H           5.5448   -4.1256   -0.7939 H.spc      1 <1>        0.000
     16 H           3.2997    0.1068   -1.3246 H.spc      1 <1>        0.000
     17 H           3.8528    2.4201   -0.6239 H.spc      1 <1>        0.000
     18 H           2.7862   -1.8115   -1.2580 H.spc      1 <1>        0.000
     19 H           3.3292   -3.4923   -1.2948 H.spc      1 <1>        0.000
@<TRIPOS>BOND
     1    8    9 ar 
     2    7    8 ar 
     3    9   10 ar 
     4   10   11 ar 
     5    5    6 ar 
     6    4    9 ar 
     7    8   12 1  
     8    6    7 ar 
     9    1    2 1  
    10    2    3 ar 
    11    2   11 ar 
    12    3    4 ar 
    13    4    5 ar 
    14    3   13 1  
    15    6   14 1  
    16    7   15 1  
    17   10   16 1  
    18   11   17 1  
    19   12   18 1  
    20   12   19 1  
# Name:          frag5-676-23/41815 -- energy: -0.539206
# Creation time: Sat Jun  5 12:53:03 2010


@<TRIPOS>MOLECULE
frag5-676-23/41815 -- energy: -0.539206
   19    20     1     1     1
SMALL
USER_CHARGES


@<TRIPOS>ATOM
      1 Cl1         6.1481    3.5101    0.7281 Cl         1 <1>        0.000
      2 C1          5.7500    1.8711    0.2442 C.ar       1 <1>        0.000
      3 C2          6.6379    0.8294    0.5053 C.ar       1 <1>        0.000
      4 C3          6.3096   -0.4798    0.1409 C.ar       1 <1>        0.000
      5 N1          7.2138   -1.4520    0.3734 N.ar       1 <1>        0.000
      6 C4          6.9795   -2.7291    0.0193 C.ar       1 <1>        0.000
      7 C5          5.7416   -3.0890   -0.5203 C.ar       1 <1>        0.000
      8 C6          4.7571   -2.1153   -0.7079 C.ar       1 <1>        0.000
      9 C7          5.0677   -0.7713   -0.4571 C.ar       1 <1>        0.000
     10 C8          4.2227    0.2977   -0.7772 C.ar       1 <1>        0.000
     11 C9          4.5443    1.6063   -0.4057 C.ar       1 <1>        0.000
     12 N2          3.5210   -2.5056   -1.1214 N.pl3      1 <1>        0.000
     13 H           7.5899    1.0356    0.9944 H.spc      1 <1>        0.000
     14 H           7.7554   -3.4829    0.1534 H.spc      1 <1>        0.000
     15 H           5.5448   -4.1256   -0.7939 H.spc      1 <1>        0.000
     16 H           3.2997    0.1068   -1.3246 H.spc      1 <1>        0.000
     17 H           3.8528    2.4201   -0.6239 H.spc      1 <1>        0.000
     18 H           2.7862   -1.8115   -1.2580 H.spc      1 <1>        0.000
     19 H           3.3292   -3.4923   -1.2948 H.spc      1 <1>        0.000
@<TRIPOS>BOND
     1    8    9 ar 
     2    7    8 ar 
     3    9   10 ar 
     4   10   11 ar 
     5    5    6 ar 
     6    4    9 ar 
     7    8   12 1  
     8    6    7 ar 
     9    1    2 1  
    10    2    3 ar 
    11    2   11 ar 
    12    3    4 ar 
    13    4    5 ar 
    14    3   13 1  
    15    6   14 1  
    16    7   15 1  
    17   10   16 1  
    18   11   17 1  
    19   12   18 1  
    20   12   19 1  
