#      Rotatable Fragment
#      Build by yxyuan
#
# Name:          frag5-535-84/41815
# Creation time: Sat Jun  5 12:52:52 2010


@<TRIPOS>MOLECULE
frag5-535-84/41815
   12    12     1     1     1
SMALL
USER_CHARGES


@<TRIPOS>ATOM
      1 N1          1.7186    0.1249   -0.2490 N.ar       1 <1>        0.000
      2 C1          1.1119   -0.9870   -0.0570 C.ar       1 <1>        0.000
      3 C2         -0.3042   -1.0516    0.2168 C.ar       1 <1>        0.000
      4 C3         -0.9019    0.1577    0.1433 C.ar       1 <1>        0.000
      5 N2         -0.0944    1.2426   -0.1212 N.ar       1 <1>        0.000
      6 C4          1.0794    1.2971   -0.1734 C.ar       1 <1>        0.000
      7 O1          1.7812    2.2465   -0.1657 O.2        1 <1>        0.000
      8 N3         -2.2431    0.2381    0.2355 N.pl3      1 <1>        0.000
      9 H           1.6833   -1.9142   -0.1018 H.spc      1 <1>        0.000
     10 H          -0.8327   -1.9743    0.4564 H.spc      1 <1>        0.000
     11 H          -2.7975   -0.6091    0.3596 H.spc      1 <1>        0.000
     12 H          -2.7045    1.1462    0.1812 H.spc      1 <1>        0.000
@<TRIPOS>BOND
     1    1    2 ar 
     2    1    6 ar 
     3    2    3 ar 
     4    3    4 ar 
     5    4    5 ar 
     6    4    8 1  
     7    5    6 ar 
     8    6    7 2  
     9    2    9 1  
    10    3   10 1  
    11    8   11 1  
    12    8   12 1  
# Name:          frag5-535-84/41815 -- energy: 0.391969
# Creation time: Sat Jun  5 12:52:52 2010


@<TRIPOS>MOLECULE
frag5-535-84/41815 -- energy: 0.391969
   12    12     1     1     1
SMALL
USER_CHARGES


@<TRIPOS>ATOM
      1 N1          1.7186    0.1249   -0.2490 N.ar       1 <1>        0.000
      2 C1          1.1119   -0.9870   -0.0570 C.ar       1 <1>        0.000
      3 C2         -0.3042   -1.0516    0.2168 C.ar       1 <1>        0.000
      4 C3         -0.9019    0.1577    0.1433 C.ar       1 <1>        0.000
      5 N2         -0.0944    1.2426   -0.1212 N.ar       1 <1>        0.000
      6 C4          1.0794    1.2971   -0.1734 C.ar       1 <1>        0.000
      7 O1          1.7812    2.2465   -0.1657 O.2        1 <1>        0.000
      8 N3         -2.2431    0.2381    0.2355 N.pl3      1 <1>        0.000
      9 H           1.6833   -1.9142   -0.1018 H.spc      1 <1>        0.000
     10 H          -0.8327   -1.9743    0.4564 H.spc      1 <1>        0.000
     11 H          -2.7975   -0.6091    0.3596 H.spc      1 <1>        0.000
     12 H          -2.7045    1.1462    0.1812 H.spc      1 <1>        0.000
@<TRIPOS>BOND
     1    1    2 ar 
     2    1    6 ar 
     3    2    3 ar 
     4    3    4 ar 
     5    4    5 ar 
     6    4    8 1  
     7    5    6 ar 
     8    6    7 2  
     9    2    9 1  
    10    3   10 1  
    11    8   11 1  
    12    8   12 1  
