#      Rotatable Fragment
#      Build by yxyuan
#
# Name:          frag4-363-321/150395
# Creation time: Sat Jun  5 12:53:32 2010


@<TRIPOS>MOLECULE
frag4-363-321/150395
   18    19     1     1     1
SMALL
USER_CHARGES


@<TRIPOS>ATOM
      1 C1         -2.4733    0.1695   -0.1336 C.ar       1 <1>        0.000
      2 C2         -2.4297   -1.2458   -0.0058 C.ar       1 <1>        0.000
      3 C3         -1.0472    0.6352   -0.2288 C.3        1 <1>        0.000
      4 C4         -3.6849    0.8288   -0.1492 C.ar       1 <1>        0.000
      5 N1         -1.1576   -1.6818   -0.0125 N.pl3      1 <1>        0.000
      6 C5         -3.6022   -1.9735    0.1037 C.ar       1 <1>        0.000
      7 C6         -0.3036   -0.6717   -0.1362 C.3        1 <1>        0.000
      8 C8         -4.8595    0.0904   -0.0373 C.ar       1 <1>        0.000
      9 C10        -4.8168   -1.3080    0.0889 C.ar       1 <1>        0.000
     10 H          -0.7683    1.3538    0.5419 H.spc      1 <1>        0.000
     11 H          -0.8300    1.1999   -1.1355 H.spc      1 <1>        0.000
     12 H          -3.7220    1.9137   -0.2479 H.spc      1 <1>        0.000
     13 H          -0.8839   -2.6612    0.0671 H.spc      1 <1>        0.000
     14 H          -3.5699   -3.0587    0.2005 H.spc      1 <1>        0.000
     15 H           0.2833   -0.8117   -1.0440 H.spc      1 <1>        0.000
     16 H           0.3482   -0.6485    0.7371 H.spc      1 <1>        0.000
     17 H          -5.8218    0.6022   -0.0477 H.spc      1 <1>        0.000
     18 H          -5.7451   -1.8727    0.1757 H.spc      1 <1>        0.000
@<TRIPOS>BOND
     1    5    7 1  
     2    8    9 ar 
     3    6    9 ar 
     4    1    2 ar 
     5    1    3 1  
     6    1    4 ar 
     7    2    5 1  
     8    2    6 ar 
     9    3    7 1  
    10    4    8 ar 
    11    3   10 1  
    12    3   11 1  
    13    4   12 1  
    14    5   13 1  
    15    6   14 1  
    16    7   15 1  
    17    7   16 1  
    18    8   17 1  
    19    9   18 1  
# Name:          frag4-363-321/150395 -- energy: -0.895454
# Creation time: Sat Jun  5 12:53:32 2010


@<TRIPOS>MOLECULE
frag4-363-321/150395 -- energy: -0.895454
   18    19     1     1     1
SMALL
USER_CHARGES


@<TRIPOS>ATOM
      1 C1         -2.4733    0.1695   -0.1336 C.ar       1 <1>        0.000
      2 C2         -2.4297   -1.2458   -0.0058 C.ar       1 <1>        0.000
      3 C3         -1.0472    0.6352   -0.2288 C.3        1 <1>        0.000
      4 C4         -3.6849    0.8288   -0.1492 C.ar       1 <1>        0.000
      5 N1         -1.1576   -1.6818   -0.0125 N.pl3      1 <1>        0.000
      6 C5         -3.6022   -1.9735    0.1037 C.ar       1 <1>        0.000
      7 C6         -0.3036   -0.6717   -0.1362 C.3        1 <1>        0.000
      8 C8         -4.8595    0.0904   -0.0373 C.ar       1 <1>        0.000
      9 C10        -4.8168   -1.3080    0.0889 C.ar       1 <1>        0.000
     10 H          -0.7683    1.3538    0.5419 H.spc      1 <1>        0.000
     11 H          -0.8300    1.1999   -1.1355 H.spc      1 <1>        0.000
     12 H          -3.7220    1.9137   -0.2479 H.spc      1 <1>        0.000
     13 H          -0.8839   -2.6612    0.0671 H.spc      1 <1>        0.000
     14 H          -3.5699   -3.0587    0.2005 H.spc      1 <1>        0.000
     15 H           0.2833   -0.8117   -1.0440 H.spc      1 <1>        0.000
     16 H           0.3482   -0.6485    0.7371 H.spc      1 <1>        0.000
     17 H          -5.8218    0.6022   -0.0477 H.spc      1 <1>        0.000
     18 H          -5.7451   -1.8727    0.1757 H.spc      1 <1>        0.000
@<TRIPOS>BOND
     1    5    7 1  
     2    8    9 ar 
     3    6    9 ar 
     4    1    2 ar 
     5    1    3 1  
     6    1    4 ar 
     7    2    5 1  
     8    2    6 ar 
     9    3    7 1  
    10    4    8 ar 
    11    3   10 1  
    12    3   11 1  
    13    4   12 1  
    14    5   13 1  
    15    6   14 1  
    16    7   15 1  
    17    7   16 1  
    18    8   17 1  
    19    9   18 1  
