#      Rotatable Fragment
#      Build by yxyuan
#
# Name:          frag3-229-3/31924
# Creation time: Sat Jun  5 12:52:24 2010


@<TRIPOS>MOLECULE
frag3-229-3/31924
   14    13     1     1     1
SMALL
USER_CHARGES


@<TRIPOS>ATOM
      1 C8          1.1122   -1.0315   -0.0165 C.2        1 <1>        0.000
      2 O3          0.7305   -1.5852   -1.0335 O.2        1 <1>        0.000
      3 N2          0.4336   -0.9654    1.1528 N.am       1 <1>        0.000
      4 C9          0.7506   -0.2758    2.2734 C.2        1 <1>        0.000
      5 C10        -0.0163   -0.3721    3.3668 C.2        1 <1>        0.000
      6 C11         1.9464    0.5974    2.3663 C.2        1 <1>        0.000
      7 O4          2.8487    0.2868    3.1268 O.2        1 <1>        0.000
      8 N3          2.0202    1.7232    1.6223 N.am       1 <1>        0.000
      9 H           2.0875   -0.5461   -0.0521 H.spc      1 <1>        0.000
     10 H          -0.4301   -1.5063    1.1950 H.spc      1 <1>        0.000
     11 H           0.2503    0.1774    4.2696 H.spc      1 <1>        0.000
     12 H          -0.9072   -1.0000    3.3540 H.spc      1 <1>        0.000
     13 H           2.8389    2.3276    1.6917 H.spc      1 <1>        0.000
     14 H           1.2572    1.9685    0.9914 H.spc      1 <1>        0.000
@<TRIPOS>BOND
     1    1    2 2  
     2    1    3 am 
     3    3    4 1  
     4    4    6 1  
     5    4    5 2  
     6    6    7 2  
     7    6    8 am 
     8    1    9 1  
     9    3   10 1  
    10    5   11 1  
    11    5   12 1  
    12    8   13 1  
    13    8   14 1  
# Name:          frag3-229-3/31924
# Creation time: Sat Jun  5 12:52:24 2010


@<TRIPOS>MOLECULE
frag3-229-3/31924
   14    13     1     1     1
SMALL
USER_CHARGES


@<TRIPOS>ATOM
      1 C8          1.0308   -0.9712   -0.0555 C.2        1 <1>        0.000
      2 O3          0.8027   -1.7397   -0.9746 O.2        1 <1>        0.000
      3 N2          0.4994   -1.0472    1.1879 N.am       1 <1>        0.000
      4 C9          0.7508   -0.2558    2.2595 C.2        1 <1>        0.000
      5 C10        -0.0648   -0.2805    3.3215 C.2        1 <1>        0.000
      6 C11         1.9212    0.6515    2.3288 C.2        1 <1>        0.000
      7 O4          2.0683    1.4943    1.4579 O.2        1 <1>        0.000
      8 N3          2.8175    0.5260    3.3327 N.am       1 <1>        0.000
      9 H           1.7225   -0.1520   -0.2518 H.spc      1 <1>        0.000
     10 H          -0.1768   -1.7961    1.3373 H.spc      1 <1>        0.000
     11 H           0.1465    0.3493    4.1857 H.spc      1 <1>        0.000
     12 H          -0.9399   -0.9304    3.3217 H.spc      1 <1>        0.000
     13 H           3.6308    1.1404    3.3700 H.spc      1 <1>        0.000
     14 H           2.6806   -0.1831    4.0530 H.spc      1 <1>        0.000
@<TRIPOS>BOND
     1    1    2 2  
     2    1    3 am 
     3    3    4 1  
     4    4    6 1  
     5    4    5 2  
     6    6    7 2  
     7    6    8 am 
     8    1    9 1  
     9    3   10 1  
    10    5   11 1  
    11    5   12 1  
    12    8   13 1  
    13    8   14 1  
# Name:          frag3-229-3/31924
# Creation time: Sat Jun  5 12:52:24 2010


@<TRIPOS>MOLECULE
frag3-229-3/31924
   14    13     1     1     1
SMALL
USER_CHARGES


@<TRIPOS>ATOM
      1 C8          1.2203   -1.2675    0.1007 C.2        1 <1>        0.000
      2 O3          0.8912   -1.8796   -0.9016 O.2        1 <1>        0.000
      3 N2          0.3871   -0.8851    1.0983 N.am       1 <1>        0.000
      4 C9          0.6790   -0.1406    2.1953 C.2        1 <1>        0.000
      5 C10        -0.1767   -0.0992    3.2258 C.2        1 <1>        0.000
      6 C11         1.9337    0.6359    2.3267 C.2        1 <1>        0.000
      7 O4          2.9925    0.1013    2.0397 O.2        1 <1>        0.000
      8 N3          1.8989    1.9122    2.7735 N.am       1 <1>        0.000
      9 H           2.2736   -1.0061    0.2025 H.spc      1 <1>        0.000
     10 H          -0.5809   -1.1955    1.0146 H.spc      1 <1>        0.000
     11 H           0.0647    0.4887    4.1114 H.spc      1 <1>        0.000
     12 H          -1.1141   -0.6534    3.1784 H.spc      1 <1>        0.000
     13 H           2.7653    2.4410    2.8744 H.spc      1 <1>        0.000
     14 H           1.0063    2.3458    3.0095 H.spc      1 <1>        0.000
@<TRIPOS>BOND
     1    1    2 2  
     2    1    3 am 
     3    3    4 1  
     4    4    6 1  
     5    4    5 2  
     6    6    7 2  
     7    6    8 am 
     8    1    9 1  
     9    3   10 1  
    10    5   11 1  
    11    5   12 1  
    12    8   13 1  
    13    8   14 1  
# Name:          frag3-229-3/31924
# Creation time: Sat Jun  5 12:52:24 2010


@<TRIPOS>MOLECULE
frag3-229-3/31924
   14    13     1     1     1
SMALL
USER_CHARGES


@<TRIPOS>ATOM
      1 C8          0.6241   -1.2418    0.0148 C.2        1 <1>        0.000
      2 O3          1.6406   -0.7806   -0.4653 O.2        1 <1>        0.000
      3 N2          0.0862   -1.0298    1.2487 N.am       1 <1>        0.000
      4 C9          0.6471   -0.3458    2.2691 C.2        1 <1>        0.000
      5 C10         0.1025   -0.3429    3.4899 C.2        1 <1>        0.000
      6 C11         1.9069    0.4516    2.1731 C.2        1 <1>        0.000
      7 O4          2.8594    0.2375    2.9062 O.2        1 <1>        0.000
      8 N3          1.9592    1.4294    1.2218 N.am       1 <1>        0.000
      9 H           0.0651   -1.9189   -0.6310 H.spc      1 <1>        0.000
     10 H          -0.8365   -1.4295    1.4195 H.spc      1 <1>        0.000
     11 H           0.5810    0.2092    4.2988 H.spc      1 <1>        0.000
     12 H          -0.8201   -0.8926    3.6764 H.spc      1 <1>        0.000
     13 H           2.8025    1.9933    1.1159 H.spc      1 <1>        0.000
     14 H           1.1550    1.5960    0.6170 H.spc      1 <1>        0.000
@<TRIPOS>BOND
     1    1    2 2  
     2    1    3 am 
     3    3    4 1  
     4    4    6 1  
     5    4    5 2  
     6    6    7 2  
     7    6    8 am 
     8    1    9 1  
     9    3   10 1  
    10    5   11 1  
    11    5   12 1  
    12    8   13 1  
    13    8   14 1  
# Name:          frag3-229-3/31924
# Creation time: Sat Jun  5 12:52:24 2010


@<TRIPOS>MOLECULE
frag3-229-3/31924
   14    13     1     1     1
SMALL
USER_CHARGES


@<TRIPOS>ATOM
      1 C8          0.9242   -0.7877   -0.0898 C.2        1 <1>        0.000
      2 O3          0.5546   -1.3711   -1.0945 O.2        1 <1>        0.000
      3 N2          0.4705   -1.0052    1.1667 N.am       1 <1>        0.000
      4 C9          0.8701   -0.4221    2.3211 C.2        1 <1>        0.000
      5 C10         0.3402   -0.8018    3.4898 C.2        1 <1>        0.000
      6 C11         1.9066    0.6383    2.3649 C.2        1 <1>        0.000
      7 O4          1.6321    1.7157    2.8680 O.2        1 <1>        0.000
      8 N3          3.1278    0.4114    1.8321 N.am       1 <1>        0.000
      9 H           1.6894   -0.0215   -0.2148 H.spc      1 <1>        0.000
     10 H          -0.2705   -1.7005    1.2555 H.spc      1 <1>        0.000
     11 H           0.6742   -0.3356    4.4167 H.spc      1 <1>        0.000
     12 H          -0.4254   -1.5772    3.5148 H.spc      1 <1>        0.000
     13 H           3.8352    1.1461    1.8469 H.spc      1 <1>        0.000
     14 H           3.3420   -0.4945    1.4152 H.spc      1 <1>        0.000
@<TRIPOS>BOND
     1    1    2 2  
     2    1    3 am 
     3    3    4 1  
     4    4    6 1  
     5    4    5 2  
     6    6    7 2  
     7    6    8 am 
     8    1    9 1  
     9    3   10 1  
    10    5   11 1  
    11    5   12 1  
    12    8   13 1  
    13    8   14 1  
# Name:          frag3-229-3/31924
# Creation time: Sat Jun  5 12:52:24 2010


@<TRIPOS>MOLECULE
frag3-229-3/31924
   14    13     1     1     1
SMALL
USER_CHARGES


@<TRIPOS>ATOM
      1 C8          0.3393   -1.4842    0.0604 C.2        1 <1>        0.000
      2 O3          0.4318   -1.5619   -1.1586 O.2        1 <1>        0.000
      3 N2          0.6916   -0.4390    0.8267 N.am       1 <1>        0.000
      4 C9          0.9984   -0.2808    2.1213 C.2        1 <1>        0.000
      5 C10         0.7424   -1.1212    3.1210 C.2        1 <1>        0.000
      6 C11         1.9162    0.8026    2.5537 C.2        1 <1>        0.000
      7 O4          1.6284    1.5699    3.4611 O.2        1 <1>        0.000
      8 N3          3.0779    0.8920    1.8727 N.am       1 <1>        0.000
      9 H          -0.0710   -2.3524    0.5761 H.spc      1 <1>        0.000
     10 H           0.7357    0.4351    0.3028 H.spc      1 <1>        0.000
     11 H           1.1932   -0.9573    4.0998 H.spc      1 <1>        0.000
     12 H           0.0819   -1.9734    2.9610 H.spc      1 <1>        0.000
     13 H           3.7529    1.6193    2.1089 H.spc      1 <1>        0.000
     14 H           3.2809    0.2323    1.1217 H.spc      1 <1>        0.000
@<TRIPOS>BOND
     1    1    2 2  
     2    1    3 am 
     3    3    4 1  
     4    4    6 1  
     5    4    5 2  
     6    6    7 2  
     7    6    8 am 
     8    1    9 1  
     9    3   10 1  
    10    5   11 1  
    11    5   12 1  
    12    8   13 1  
    13    8   14 1  
# Name:          frag3-229-3/31924
# Creation time: Sat Jun  5 12:52:24 2010


@<TRIPOS>MOLECULE
frag3-229-3/31924
   14    13     1     1     1
SMALL
USER_CHARGES


@<TRIPOS>ATOM
      1 C8          0.6644   -1.2487   -0.0084 C.2        1 <1>        0.000
      2 O3          1.0825   -0.2900   -0.6286 O.2        1 <1>        0.000
      3 N2          0.4938   -1.4068    1.3384 N.am       1 <1>        0.000
      4 C9          0.8189   -0.5328    2.3252 C.2        1 <1>        0.000
      5 C10         0.2095   -0.5450    3.5096 C.2        1 <1>        0.000
      6 C11         1.8617    0.5404    2.1761 C.2        1 <1>        0.000
      7 O4          1.6907    1.6707    2.6088 O.2        1 <1>        0.000
      8 N3          3.0045    0.1897    1.5372 N.am       1 <1>        0.000
      9 H           0.3843   -2.1090   -0.6163 H.spc      1 <1>        0.000
     10 H           0.0721   -2.2860    1.6378 H.spc      1 <1>        0.000
     11 H           0.4833    0.1854    4.2709 H.spc      1 <1>        0.000
     12 H          -0.5630   -1.2854    3.7175 H.spc      1 <1>        0.000
     13 H           3.7477    0.8762    1.4078 H.spc      1 <1>        0.000
     14 H           3.1213   -0.7607    1.1859 H.spc      1 <1>        0.000
@<TRIPOS>BOND
     1    1    2 2  
     2    1    3 am 
     3    3    4 1  
     4    4    6 1  
     5    4    5 2  
     6    6    7 2  
     7    6    8 am 
     8    1    9 1  
     9    3   10 1  
    10    5   11 1  
    11    5   12 1  
    12    8   13 1  
    13    8   14 1  
# Name:          frag3-229-3/31924
# Creation time: Sat Jun  5 12:52:24 2010


@<TRIPOS>MOLECULE
frag3-229-3/31924
   14    13     1     1     1
SMALL
USER_CHARGES


@<TRIPOS>ATOM
      1 C8          0.5358   -1.1490    0.0022 C.2        1 <1>        0.000
      2 O3          1.6180   -0.8292   -0.4808 O.2        1 <1>        0.000
      3 N2          0.0868   -1.0471    1.2764 N.am       1 <1>        0.000
      4 C9          0.7054   -0.4046    2.2887 C.2        1 <1>        0.000
      5 C10         0.2906   -0.5172    3.5554 C.2        1 <1>        0.000
      6 C11         1.8390    0.5379    2.1112 C.2        1 <1>        0.000
      7 O4          1.6717    1.6370    1.5778 O.2        1 <1>        0.000
      8 N3          3.0789    0.1497    2.5272 N.am       1 <1>        0.000
      9 H          -0.1736   -1.5819   -0.7031 H.spc      1 <1>        0.000
     10 H          -0.8025   -1.4985    1.4905 H.spc      1 <1>        0.000
     11 H           0.7801    0.0567    4.3422 H.spc      1 <1>        0.000
     12 H          -0.5369   -1.1828    3.8008 H.spc      1 <1>        0.000
     13 H           3.8778    0.7706    2.3981 H.spc      1 <1>        0.000
     14 H           3.2071   -0.7615    2.9674 H.spc      1 <1>        0.000
@<TRIPOS>BOND
     1    1    2 2  
     2    1    3 am 
     3    3    4 1  
     4    4    6 1  
     5    4    5 2  
     6    6    7 2  
     7    6    8 am 
     8    1    9 1  
     9    3   10 1  
    10    5   11 1  
    11    5   12 1  
    12    8   13 1  
    13    8   14 1  
# Name:          frag3-229-3/31924
# Creation time: Sat Jun  5 12:52:24 2010


@<TRIPOS>MOLECULE
frag3-229-3/31924
   14    13     1     1     1
SMALL
USER_CHARGES


@<TRIPOS>ATOM
      1 C8          0.4379   -1.6872    0.2048 C.2        1 <1>        0.000
      2 O3          0.4057   -1.9864   -0.9768 O.2        1 <1>        0.000
      3 N2          1.1421   -0.6609    0.7396 N.am       1 <1>        0.000
      4 C9          1.0040   -0.0979    1.9662 C.2        1 <1>        0.000
      5 C10        -0.0983   -0.3337    2.6916 C.2        1 <1>        0.000
      6 C11         2.0376    0.7725    2.5730 C.2        1 <1>        0.000
      7 O4          3.0558    0.2627    3.0123 O.2        1 <1>        0.000
      8 N3          1.8413    2.1083    2.6476 N.am       1 <1>        0.000
      9 H          -0.1504   -2.2980    0.8896 H.spc      1 <1>        0.000
     10 H           1.8679   -0.2609    0.1449 H.spc      1 <1>        0.000
     11 H          -0.2037    0.1085    3.6823 H.spc      1 <1>        0.000
     12 H          -0.8892   -0.9677    2.2908 H.spc      1 <1>        0.000
     13 H           2.5495    2.7047    3.0756 H.spc      1 <1>        0.000
     14 H           0.9850    2.5195    2.2759 H.spc      1 <1>        0.000
@<TRIPOS>BOND
     1    1    2 2  
     2    1    3 am 
     3    3    4 1  
     4    4    6 1  
     5    4    5 2  
     6    6    7 2  
     7    6    8 am 
     8    1    9 1  
     9    3   10 1  
    10    5   11 1  
    11    5   12 1  
    12    8   13 1  
    13    8   14 1  
# Name:          frag3-229-3/31924
# Creation time: Sat Jun  5 12:52:24 2010


@<TRIPOS>MOLECULE
frag3-229-3/31924
   14    13     1     1     1
SMALL
USER_CHARGES


@<TRIPOS>ATOM
      1 C8          0.3235   -1.0793   -0.2871 C.2        1 <1>        0.000
      2 O3          0.2956   -2.2836   -0.1157 O.2        1 <1>        0.000
      3 N2          0.8475   -0.1077    0.5128 N.am       1 <1>        0.000
      4 C9          1.1138   -0.1867    1.8347 C.2        1 <1>        0.000
      5 C10         0.5843   -1.1546    2.5890 C.2        1 <1>        0.000
      6 C11         1.9734    0.7615    2.6052 C.2        1 <1>        0.000
      7 O4          2.2981    0.5558    3.7649 O.2        1 <1>        0.000
      8 N3          2.3897    1.8720    1.9544 N.am       1 <1>        0.000
      9 H          -0.1355   -0.7275   -1.2111 H.spc      1 <1>        0.000
     10 H           1.0633    0.7811    0.0612 H.spc      1 <1>        0.000
     11 H           0.7985   -1.1919    3.6571 H.spc      1 <1>        0.000
     12 H          -0.0618   -1.9067    2.1361 H.spc      1 <1>        0.000
     13 H           2.9826    2.5508    2.4319 H.spc      1 <1>        0.000
     14 H           2.1106    2.0305    0.9862 H.spc      1 <1>        0.000
@<TRIPOS>BOND
     1    1    2 2  
     2    1    3 am 
     3    3    4 1  
     4    4    6 1  
     5    4    5 2  
     6    6    7 2  
     7    6    8 am 
     8    1    9 1  
     9    3   10 1  
    10    5   11 1  
    11    5   12 1  
    12    8   13 1  
    13    8   14 1  
# Name:          frag3-229-3/31924
# Creation time: Sat Jun  5 12:52:24 2010


@<TRIPOS>MOLECULE
frag3-229-3/31924
   14    13     1     1     1
SMALL
USER_CHARGES


@<TRIPOS>ATOM
      1 C8          0.8755   -1.4886   -0.2271 C.2        1 <1>        0.000
      2 O3         -0.1302   -2.1361    0.0207 O.2        1 <1>        0.000
      3 N2          1.4815   -0.5022    0.4910 N.am       1 <1>        0.000
      4 C9          1.0801    0.0223    1.6729 C.2        1 <1>        0.000
      5 C10        -0.1951   -0.0786    2.0730 C.2        1 <1>        0.000
      6 C11         1.9968    0.6746    2.6337 C.2        1 <1>        0.000
      7 O4          3.1517    0.8875    2.3051 O.2        1 <1>        0.000
      8 N3          1.5657    0.9986    3.8890 N.am       1 <1>        0.000
      9 H           1.3638   -1.7389   -1.1689 H.spc      1 <1>        0.000
     10 H           2.3363   -0.1140    0.0922 H.spc      1 <1>        0.000
     11 H          -0.4925    0.3073    3.0480 H.spc      1 <1>        0.000
     12 H          -0.9347   -0.5466    1.4234 H.spc      1 <1>        0.000
     13 H           2.2109    1.4208    4.5567 H.spc      1 <1>        0.000
     14 H           0.5986    0.8183    4.1585 H.spc      1 <1>        0.000
@<TRIPOS>BOND
     1    1    2 2  
     2    1    3 am 
     3    3    4 1  
     4    4    6 1  
     5    4    5 2  
     6    6    7 2  
     7    6    8 am 
     8    1    9 1  
     9    3   10 1  
    10    5   11 1  
    11    5   12 1  
    12    8   13 1  
    13    8   14 1  
# Name:          frag3-229-3/31924
# Creation time: Sat Jun  5 12:52:24 2010


@<TRIPOS>MOLECULE
frag3-229-3/31924
   14    13     1     1     1
SMALL
USER_CHARGES


@<TRIPOS>ATOM
      1 C8          0.7563   -1.3782   -0.2862 C.2        1 <1>        0.000
      2 O3         -0.0723   -2.2156    0.0345 O.2        1 <1>        0.000
      3 N2          1.3990   -0.4531    0.4791 N.am       1 <1>        0.000
      4 C9          1.1067   -0.0830    1.7407 C.2        1 <1>        0.000
      5 C10        -0.0398   -0.4379    2.3305 C.2        1 <1>        0.000
      6 C11         1.9932    0.7170    2.6262 C.2        1 <1>        0.000
      7 O4          2.9853    0.2071    3.1143 O.2        1 <1>        0.000
      8 N3          1.6976    2.0212    2.8191 N.am       1 <1>        0.000
      9 H           1.0213   -1.3698   -1.3435 H.spc      1 <1>        0.000
     10 H           2.1953    0.0145    0.0460 H.spc      1 <1>        0.000
     11 H          -0.2395   -0.1371    3.3589 H.spc      1 <1>        0.000
     12 H          -0.7746   -1.0280    1.7828 H.spc      1 <1>        0.000
     13 H           2.3126    2.6051    3.3859 H.spc      1 <1>        0.000
     14 H           0.8595    2.4219    2.3979 H.spc      1 <1>        0.000
@<TRIPOS>BOND
     1    1    2 2  
     2    1    3 am 
     3    3    4 1  
     4    4    6 1  
     5    4    5 2  
     6    6    7 2  
     7    6    8 am 
     8    1    9 1  
     9    3   10 1  
    10    5   11 1  
    11    5   12 1  
    12    8   13 1  
    13    8   14 1  
# Name:          frag3-229-3/31924
# Creation time: Sat Jun  5 12:52:24 2010


@<TRIPOS>MOLECULE
frag3-229-3/31924
   14    13     1     1     1
SMALL
USER_CHARGES


@<TRIPOS>ATOM
      1 C8          0.6635   -1.2471   -0.3048 C.2        1 <1>        0.000
      2 O3         -0.4711   -1.6760   -0.1326 O.2        1 <1>        0.000
      3 N2          1.5327   -0.6795    0.5713 N.am       1 <1>        0.000
      4 C9          1.3180   -0.3700    1.8765 C.2        1 <1>        0.000
      5 C10         0.4934   -1.0967    2.6373 C.2        1 <1>        0.000
      6 C11         1.8923    0.8105    2.5820 C.2        1 <1>        0.000
      7 O4          1.2797    1.4097    3.4558 O.2        1 <1>        0.000
      8 N3          3.1176    1.2265    2.1727 N.am       1 <1>        0.000
      9 H           1.0355   -1.3352   -1.3256 H.spc      1 <1>        0.000
     10 H           2.4587   -0.4590    0.2048 H.spc      1 <1>        0.000
     11 H           0.3006   -0.8008    3.6685 H.spc      1 <1>        0.000
     12 H           0.0138   -1.9851    2.2265 H.spc      1 <1>        0.000
     13 H           3.5433    2.0517    2.5948 H.spc      1 <1>        0.000
     14 H           3.6128    0.7139    1.4430 H.spc      1 <1>        0.000
@<TRIPOS>BOND
     1    1    2 2  
     2    1    3 am 
     3    3    4 1  
     4    4    6 1  
     5    4    5 2  
     6    6    7 2  
     7    6    8 am 
     8    1    9 1  
     9    3   10 1  
    10    5   11 1  
    11    5   12 1  
    12    8   13 1  
    13    8   14 1  
# Name:          frag3-229-3/31924 -- energy: -1.287861
# Creation time: Sat Jun  5 12:52:24 2010


@<TRIPOS>MOLECULE
frag3-229-3/31924 -- energy: -1.287861
   14    13     1     1     1
SMALL
USER_CHARGES


@<TRIPOS>ATOM
      1 C8          1.1122   -1.0315   -0.0165 C.2        1 <1>        0.000
      2 O3          0.7305   -1.5852   -1.0335 O.2        1 <1>        0.000
      3 N2          0.4336   -0.9654    1.1528 N.am       1 <1>        0.000
      4 C9          0.7506   -0.2758    2.2734 C.2        1 <1>        0.000
      5 C10        -0.0163   -0.3721    3.3668 C.2        1 <1>        0.000
      6 C11         1.9464    0.5974    2.3663 C.2        1 <1>        0.000
      7 O4          2.8487    0.2868    3.1268 O.2        1 <1>        0.000
      8 N3          2.0202    1.7232    1.6223 N.am       1 <1>        0.000
      9 H           2.0875   -0.5461   -0.0521 H.spc      1 <1>        0.000
     10 H          -0.4301   -1.5063    1.1950 H.spc      1 <1>        0.000
     11 H           0.2503    0.1774    4.2696 H.spc      1 <1>        0.000
     12 H          -0.9072   -1.0000    3.3540 H.spc      1 <1>        0.000
     13 H           2.8389    2.3276    1.6917 H.spc      1 <1>        0.000
     14 H           1.2572    1.9685    0.9914 H.spc      1 <1>        0.000
@<TRIPOS>BOND
     1    1    2 2  
     2    1    3 am 
     3    3    4 1  
     4    4    6 1  
     5    4    5 2  
     6    6    7 2  
     7    6    8 am 
     8    1    9 1  
     9    3   10 1  
    10    5   11 1  
    11    5   12 1  
    12    8   13 1  
    13    8   14 1  
# Name:          frag3-229-3/31924 -- energy: -1.149442
# Creation time: Sat Jun  5 12:52:24 2010


@<TRIPOS>MOLECULE
frag3-229-3/31924 -- energy: -1.149442
   14    13     1     1     1
SMALL
USER_CHARGES


@<TRIPOS>ATOM
      1 C8          1.0308   -0.9712   -0.0555 C.2        1 <1>        0.000
      2 O3          0.8027   -1.7397   -0.9746 O.2        1 <1>        0.000
      3 N2          0.4994   -1.0472    1.1879 N.am       1 <1>        0.000
      4 C9          0.7508   -0.2558    2.2595 C.2        1 <1>        0.000
      5 C10        -0.0648   -0.2805    3.3215 C.2        1 <1>        0.000
      6 C11         1.9212    0.6515    2.3288 C.2        1 <1>        0.000
      7 O4          2.0683    1.4943    1.4579 O.2        1 <1>        0.000
      8 N3          2.8175    0.5260    3.3327 N.am       1 <1>        0.000
      9 H           1.7225   -0.1520   -0.2518 H.spc      1 <1>        0.000
     10 H          -0.1768   -1.7961    1.3373 H.spc      1 <1>        0.000
     11 H           0.1465    0.3493    4.1857 H.spc      1 <1>        0.000
     12 H          -0.9399   -0.9304    3.3217 H.spc      1 <1>        0.000
     13 H           3.6308    1.1404    3.3700 H.spc      1 <1>        0.000
     14 H           2.6806   -0.1831    4.0530 H.spc      1 <1>        0.000
@<TRIPOS>BOND
     1    1    2 2  
     2    1    3 am 
     3    3    4 1  
     4    4    6 1  
     5    4    5 2  
     6    6    7 2  
     7    6    8 am 
     8    1    9 1  
     9    3   10 1  
    10    5   11 1  
    11    5   12 1  
    12    8   13 1  
    13    8   14 1  
# Name:          frag3-229-3/31924 -- energy: -0.873641
# Creation time: Sat Jun  5 12:52:24 2010


@<TRIPOS>MOLECULE
frag3-229-3/31924 -- energy: -0.873641
   14    13     1     1     1
SMALL
USER_CHARGES


@<TRIPOS>ATOM
      1 C8          1.2203   -1.2675    0.1007 C.2        1 <1>        0.000
      2 O3          0.8912   -1.8796   -0.9016 O.2        1 <1>        0.000
      3 N2          0.3871   -0.8851    1.0983 N.am       1 <1>        0.000
      4 C9          0.6790   -0.1406    2.1953 C.2        1 <1>        0.000
      5 C10        -0.1767   -0.0992    3.2258 C.2        1 <1>        0.000
      6 C11         1.9337    0.6359    2.3267 C.2        1 <1>        0.000
      7 O4          2.9925    0.1013    2.0397 O.2        1 <1>        0.000
      8 N3          1.8989    1.9122    2.7735 N.am       1 <1>        0.000
      9 H           2.2736   -1.0061    0.2025 H.spc      1 <1>        0.000
     10 H          -0.5809   -1.1955    1.0146 H.spc      1 <1>        0.000
     11 H           0.0647    0.4887    4.1114 H.spc      1 <1>        0.000
     12 H          -1.1141   -0.6534    3.1784 H.spc      1 <1>        0.000
     13 H           2.7653    2.4410    2.8744 H.spc      1 <1>        0.000
     14 H           1.0063    2.3458    3.0095 H.spc      1 <1>        0.000
@<TRIPOS>BOND
     1    1    2 2  
     2    1    3 am 
     3    3    4 1  
     4    4    6 1  
     5    4    5 2  
     6    6    7 2  
     7    6    8 am 
     8    1    9 1  
     9    3   10 1  
    10    5   11 1  
    11    5   12 1  
    12    8   13 1  
    13    8   14 1  
# Name:          frag3-229-3/31924 -- energy: -1.296052
# Creation time: Sat Jun  5 12:52:24 2010


@<TRIPOS>MOLECULE
frag3-229-3/31924 -- energy: -1.296052
   14    13     1     1     1
SMALL
USER_CHARGES


@<TRIPOS>ATOM
      1 C8          0.6241   -1.2418    0.0148 C.2        1 <1>        0.000
      2 O3          1.6406   -0.7806   -0.4653 O.2        1 <1>        0.000
      3 N2          0.0862   -1.0298    1.2487 N.am       1 <1>        0.000
      4 C9          0.6471   -0.3458    2.2691 C.2        1 <1>        0.000
      5 C10         0.1025   -0.3429    3.4899 C.2        1 <1>        0.000
      6 C11         1.9069    0.4516    2.1731 C.2        1 <1>        0.000
      7 O4          2.8594    0.2375    2.9062 O.2        1 <1>        0.000
      8 N3          1.9592    1.4294    1.2218 N.am       1 <1>        0.000
      9 H           0.0651   -1.9189   -0.6310 H.spc      1 <1>        0.000
     10 H          -0.8365   -1.4295    1.4195 H.spc      1 <1>        0.000
     11 H           0.5810    0.2092    4.2988 H.spc      1 <1>        0.000
     12 H          -0.8201   -0.8926    3.6764 H.spc      1 <1>        0.000
     13 H           2.8025    1.9933    1.1159 H.spc      1 <1>        0.000
     14 H           1.1550    1.5960    0.6170 H.spc      1 <1>        0.000
@<TRIPOS>BOND
     1    1    2 2  
     2    1    3 am 
     3    3    4 1  
     4    4    6 1  
     5    4    5 2  
     6    6    7 2  
     7    6    8 am 
     8    1    9 1  
     9    3   10 1  
    10    5   11 1  
    11    5   12 1  
    12    8   13 1  
    13    8   14 1  
# Name:          frag3-229-3/31924 -- energy: -1.271615
# Creation time: Sat Jun  5 12:52:24 2010


@<TRIPOS>MOLECULE
frag3-229-3/31924 -- energy: -1.271615
   14    13     1     1     1
SMALL
USER_CHARGES


@<TRIPOS>ATOM
      1 C8          0.9242   -0.7877   -0.0898 C.2        1 <1>        0.000
      2 O3          0.5546   -1.3711   -1.0945 O.2        1 <1>        0.000
      3 N2          0.4705   -1.0052    1.1667 N.am       1 <1>        0.000
      4 C9          0.8701   -0.4221    2.3211 C.2        1 <1>        0.000
      5 C10         0.3402   -0.8018    3.4898 C.2        1 <1>        0.000
      6 C11         1.9066    0.6383    2.3649 C.2        1 <1>        0.000
      7 O4          1.6321    1.7157    2.8680 O.2        1 <1>        0.000
      8 N3          3.1278    0.4114    1.8321 N.am       1 <1>        0.000
      9 H           1.6894   -0.0215   -0.2148 H.spc      1 <1>        0.000
     10 H          -0.2705   -1.7005    1.2555 H.spc      1 <1>        0.000
     11 H           0.6742   -0.3356    4.4167 H.spc      1 <1>        0.000
     12 H          -0.4254   -1.5772    3.5148 H.spc      1 <1>        0.000
     13 H           3.8352    1.1461    1.8469 H.spc      1 <1>        0.000
     14 H           3.3420   -0.4945    1.4152 H.spc      1 <1>        0.000
@<TRIPOS>BOND
     1    1    2 2  
     2    1    3 am 
     3    3    4 1  
     4    4    6 1  
     5    4    5 2  
     6    6    7 2  
     7    6    8 am 
     8    1    9 1  
     9    3   10 1  
    10    5   11 1  
    11    5   12 1  
    12    8   13 1  
    13    8   14 1  
# Name:          frag3-229-3/31924 -- energy: -1.194776
# Creation time: Sat Jun  5 12:52:24 2010


@<TRIPOS>MOLECULE
frag3-229-3/31924 -- energy: -1.194776
   14    13     1     1     1
SMALL
USER_CHARGES


@<TRIPOS>ATOM
      1 C8          0.3393   -1.4842    0.0604 C.2        1 <1>        0.000
      2 O3          0.4318   -1.5619   -1.1586 O.2        1 <1>        0.000
      3 N2          0.6916   -0.4390    0.8267 N.am       1 <1>        0.000
      4 C9          0.9984   -0.2808    2.1213 C.2        1 <1>        0.000
      5 C10         0.7424   -1.1212    3.1210 C.2        1 <1>        0.000
      6 C11         1.9162    0.8026    2.5537 C.2        1 <1>        0.000
      7 O4          1.6284    1.5699    3.4611 O.2        1 <1>        0.000
      8 N3          3.0779    0.8920    1.8727 N.am       1 <1>        0.000
      9 H          -0.0710   -2.3524    0.5761 H.spc      1 <1>        0.000
     10 H           0.7357    0.4351    0.3028 H.spc      1 <1>        0.000
     11 H           1.1932   -0.9573    4.0998 H.spc      1 <1>        0.000
     12 H           0.0819   -1.9734    2.9610 H.spc      1 <1>        0.000
     13 H           3.7529    1.6193    2.1089 H.spc      1 <1>        0.000
     14 H           3.2809    0.2323    1.1217 H.spc      1 <1>        0.000
@<TRIPOS>BOND
     1    1    2 2  
     2    1    3 am 
     3    3    4 1  
     4    4    6 1  
     5    4    5 2  
     6    6    7 2  
     7    6    8 am 
     8    1    9 1  
     9    3   10 1  
    10    5   11 1  
    11    5   12 1  
    12    8   13 1  
    13    8   14 1  
# Name:          frag3-229-3/31924 -- energy: -1.351670
# Creation time: Sat Jun  5 12:52:24 2010


@<TRIPOS>MOLECULE
frag3-229-3/31924 -- energy: -1.351670
   14    13     1     1     1
SMALL
USER_CHARGES


@<TRIPOS>ATOM
      1 C8          0.6644   -1.2487   -0.0084 C.2        1 <1>        0.000
      2 O3          1.0825   -0.2900   -0.6286 O.2        1 <1>        0.000
      3 N2          0.4938   -1.4068    1.3384 N.am       1 <1>        0.000
      4 C9          0.8189   -0.5328    2.3252 C.2        1 <1>        0.000
      5 C10         0.2095   -0.5450    3.5096 C.2        1 <1>        0.000
      6 C11         1.8617    0.5404    2.1761 C.2        1 <1>        0.000
      7 O4          1.6907    1.6707    2.6088 O.2        1 <1>        0.000
      8 N3          3.0045    0.1897    1.5372 N.am       1 <1>        0.000
      9 H           0.3843   -2.1090   -0.6163 H.spc      1 <1>        0.000
     10 H           0.0721   -2.2860    1.6378 H.spc      1 <1>        0.000
     11 H           0.4833    0.1854    4.2709 H.spc      1 <1>        0.000
     12 H          -0.5630   -1.2854    3.7175 H.spc      1 <1>        0.000
     13 H           3.7477    0.8762    1.4078 H.spc      1 <1>        0.000
     14 H           3.1213   -0.7607    1.1859 H.spc      1 <1>        0.000
@<TRIPOS>BOND
     1    1    2 2  
     2    1    3 am 
     3    3    4 1  
     4    4    6 1  
     5    4    5 2  
     6    6    7 2  
     7    6    8 am 
     8    1    9 1  
     9    3   10 1  
    10    5   11 1  
    11    5   12 1  
    12    8   13 1  
    13    8   14 1  
# Name:          frag3-229-3/31924 -- energy: -1.333211
# Creation time: Sat Jun  5 12:52:24 2010


@<TRIPOS>MOLECULE
frag3-229-3/31924 -- energy: -1.333211
   14    13     1     1     1
SMALL
USER_CHARGES


@<TRIPOS>ATOM
      1 C8          0.5358   -1.1490    0.0022 C.2        1 <1>        0.000
      2 O3          1.6180   -0.8292   -0.4808 O.2        1 <1>        0.000
      3 N2          0.0868   -1.0471    1.2764 N.am       1 <1>        0.000
      4 C9          0.7054   -0.4046    2.2887 C.2        1 <1>        0.000
      5 C10         0.2906   -0.5172    3.5554 C.2        1 <1>        0.000
      6 C11         1.8390    0.5379    2.1112 C.2        1 <1>        0.000
      7 O4          1.6717    1.6370    1.5778 O.2        1 <1>        0.000
      8 N3          3.0789    0.1497    2.5272 N.am       1 <1>        0.000
      9 H          -0.1736   -1.5819   -0.7031 H.spc      1 <1>        0.000
     10 H          -0.8025   -1.4985    1.4905 H.spc      1 <1>        0.000
     11 H           0.7801    0.0567    4.3422 H.spc      1 <1>        0.000
     12 H          -0.5369   -1.1828    3.8008 H.spc      1 <1>        0.000
     13 H           3.8778    0.7706    2.3981 H.spc      1 <1>        0.000
     14 H           3.2071   -0.7615    2.9674 H.spc      1 <1>        0.000
@<TRIPOS>BOND
     1    1    2 2  
     2    1    3 am 
     3    3    4 1  
     4    4    6 1  
     5    4    5 2  
     6    6    7 2  
     7    6    8 am 
     8    1    9 1  
     9    3   10 1  
    10    5   11 1  
    11    5   12 1  
    12    8   13 1  
    13    8   14 1  
# Name:          frag3-229-3/31924 -- energy: -0.968568
# Creation time: Sat Jun  5 12:52:24 2010


@<TRIPOS>MOLECULE
frag3-229-3/31924 -- energy: -0.968568
   14    13     1     1     1
SMALL
USER_CHARGES


@<TRIPOS>ATOM
      1 C8          0.4379   -1.6872    0.2048 C.2        1 <1>        0.000
      2 O3          0.4057   -1.9864   -0.9768 O.2        1 <1>        0.000
      3 N2          1.1421   -0.6609    0.7396 N.am       1 <1>        0.000
      4 C9          1.0040   -0.0979    1.9662 C.2        1 <1>        0.000
      5 C10        -0.0983   -0.3337    2.6916 C.2        1 <1>        0.000
      6 C11         2.0376    0.7725    2.5730 C.2        1 <1>        0.000
      7 O4          3.0558    0.2627    3.0123 O.2        1 <1>        0.000
      8 N3          1.8413    2.1083    2.6476 N.am       1 <1>        0.000
      9 H          -0.1504   -2.2980    0.8896 H.spc      1 <1>        0.000
     10 H           1.8679   -0.2609    0.1449 H.spc      1 <1>        0.000
     11 H          -0.2037    0.1085    3.6823 H.spc      1 <1>        0.000
     12 H          -0.8892   -0.9677    2.2908 H.spc      1 <1>        0.000
     13 H           2.5495    2.7047    3.0756 H.spc      1 <1>        0.000
     14 H           0.9850    2.5195    2.2759 H.spc      1 <1>        0.000
@<TRIPOS>BOND
     1    1    2 2  
     2    1    3 am 
     3    3    4 1  
     4    4    6 1  
     5    4    5 2  
     6    6    7 2  
     7    6    8 am 
     8    1    9 1  
     9    3   10 1  
    10    5   11 1  
    11    5   12 1  
    12    8   13 1  
    13    8   14 1  
# Name:          frag3-229-3/31924 -- energy: 0.067424
# Creation time: Sat Jun  5 12:52:24 2010


@<TRIPOS>MOLECULE
frag3-229-3/31924 -- energy: 0.067424
   14    13     1     1     1
SMALL
USER_CHARGES


@<TRIPOS>ATOM
      1 C8          0.3235   -1.0793   -0.2871 C.2        1 <1>        0.000
      2 O3          0.2956   -2.2836   -0.1157 O.2        1 <1>        0.000
      3 N2          0.8475   -0.1077    0.5128 N.am       1 <1>        0.000
      4 C9          1.1138   -0.1867    1.8347 C.2        1 <1>        0.000
      5 C10         0.5843   -1.1546    2.5890 C.2        1 <1>        0.000
      6 C11         1.9734    0.7615    2.6052 C.2        1 <1>        0.000
      7 O4          2.2981    0.5558    3.7649 O.2        1 <1>        0.000
      8 N3          2.3897    1.8720    1.9544 N.am       1 <1>        0.000
      9 H          -0.1355   -0.7275   -1.2111 H.spc      1 <1>        0.000
     10 H           1.0633    0.7811    0.0612 H.spc      1 <1>        0.000
     11 H           0.7985   -1.1919    3.6571 H.spc      1 <1>        0.000
     12 H          -0.0618   -1.9067    2.1361 H.spc      1 <1>        0.000
     13 H           2.9826    2.5508    2.4319 H.spc      1 <1>        0.000
     14 H           2.1106    2.0305    0.9862 H.spc      1 <1>        0.000
@<TRIPOS>BOND
     1    1    2 2  
     2    1    3 am 
     3    3    4 1  
     4    4    6 1  
     5    4    5 2  
     6    6    7 2  
     7    6    8 am 
     8    1    9 1  
     9    3   10 1  
    10    5   11 1  
    11    5   12 1  
    12    8   13 1  
    13    8   14 1  
# Name:          frag3-229-3/31924 -- energy: -0.664396
# Creation time: Sat Jun  5 12:52:24 2010


@<TRIPOS>MOLECULE
frag3-229-3/31924 -- energy: -0.664396
   14    13     1     1     1
SMALL
USER_CHARGES


@<TRIPOS>ATOM
      1 C8          0.7563   -1.3782   -0.2862 C.2        1 <1>        0.000
      2 O3         -0.0723   -2.2156    0.0345 O.2        1 <1>        0.000
      3 N2          1.3990   -0.4531    0.4791 N.am       1 <1>        0.000
      4 C9          1.1067   -0.0830    1.7407 C.2        1 <1>        0.000
      5 C10        -0.0398   -0.4379    2.3305 C.2        1 <1>        0.000
      6 C11         1.9932    0.7170    2.6262 C.2        1 <1>        0.000
      7 O4          2.9853    0.2071    3.1143 O.2        1 <1>        0.000
      8 N3          1.6976    2.0212    2.8191 N.am       1 <1>        0.000
      9 H           1.0213   -1.3698   -1.3435 H.spc      1 <1>        0.000
     10 H           2.1953    0.0145    0.0460 H.spc      1 <1>        0.000
     11 H          -0.2395   -0.1371    3.3589 H.spc      1 <1>        0.000
     12 H          -0.7746   -1.0280    1.7828 H.spc      1 <1>        0.000
     13 H           2.3126    2.6051    3.3859 H.spc      1 <1>        0.000
     14 H           0.8595    2.4219    2.3979 H.spc      1 <1>        0.000
@<TRIPOS>BOND
     1    1    2 2  
     2    1    3 am 
     3    3    4 1  
     4    4    6 1  
     5    4    5 2  
     6    6    7 2  
     7    6    8 am 
     8    1    9 1  
     9    3   10 1  
    10    5   11 1  
    11    5   12 1  
    12    8   13 1  
    13    8   14 1  
# Name:          frag3-229-3/31924 -- energy: -0.832339
# Creation time: Sat Jun  5 12:52:24 2010


@<TRIPOS>MOLECULE
frag3-229-3/31924 -- energy: -0.832339
   14    13     1     1     1
SMALL
USER_CHARGES


@<TRIPOS>ATOM
      1 C8          0.6635   -1.2471   -0.3048 C.2        1 <1>        0.000
      2 O3         -0.4711   -1.6760   -0.1326 O.2        1 <1>        0.000
      3 N2          1.5327   -0.6795    0.5713 N.am       1 <1>        0.000
      4 C9          1.3180   -0.3700    1.8765 C.2        1 <1>        0.000
      5 C10         0.4934   -1.0967    2.6373 C.2        1 <1>        0.000
      6 C11         1.8923    0.8105    2.5820 C.2        1 <1>        0.000
      7 O4          1.2797    1.4097    3.4558 O.2        1 <1>        0.000
      8 N3          3.1176    1.2265    2.1727 N.am       1 <1>        0.000
      9 H           1.0355   -1.3352   -1.3256 H.spc      1 <1>        0.000
     10 H           2.4587   -0.4590    0.2048 H.spc      1 <1>        0.000
     11 H           0.3006   -0.8008    3.6685 H.spc      1 <1>        0.000
     12 H           0.0138   -1.9851    2.2265 H.spc      1 <1>        0.000
     13 H           3.5433    2.0517    2.5948 H.spc      1 <1>        0.000
     14 H           3.6128    0.7139    1.4430 H.spc      1 <1>        0.000
@<TRIPOS>BOND
     1    1    2 2  
     2    1    3 am 
     3    3    4 1  
     4    4    6 1  
     5    4    5 2  
     6    6    7 2  
     7    6    8 am 
     8    1    9 1  
     9    3   10 1  
    10    5   11 1  
    11    5   12 1  
    12    8   13 1  
    13    8   14 1  
