#      Rotatable Fragment
#      Build by yxyuan
#
# Name:          frag4-352-384/150395
# Creation time: Sat Jun  5 12:53:32 2010


@<TRIPOS>MOLECULE
frag4-352-384/150395
   18    19     1     1     1
SMALL
USER_CHARGES


@<TRIPOS>ATOM
      1 N1          2.5162    0.0502   -0.0077 N.3        1 <1>        0.000
      2 C2          1.6475    1.1497    0.0283 C.3        1 <1>        0.000
      3 C3          1.6984   -1.0858   -0.0398 C.3        1 <1>        0.000
      4 C6          0.2582    0.6967    0.0200 C.ar       1 <1>        0.000
      5 C7          0.2869   -0.7064   -0.0227 C.ar       1 <1>        0.000
      6 C10        -0.9367    1.3956    0.0459 C.ar       1 <1>        0.000
      7 C11        -0.8918   -1.4400   -0.0404 C.ar       1 <1>        0.000
      8 C13        -2.1346    0.6630    0.0286 C.ar       1 <1>        0.000
      9 C14        -2.1128   -0.7414   -0.0141 C.ar       1 <1>        0.000
     10 H           3.1326    0.0392    0.8049 H.spc      1 <1>        0.000
     11 H           1.8245    1.7728   -0.8484 H.spc      1 <1>        0.000
     12 H           1.8312    1.7195    0.9392 H.spc      1 <1>        0.000
     13 H           1.9097   -1.6972    0.8375 H.spc      1 <1>        0.000
     14 H           1.9030   -1.6417   -0.9548 H.spc      1 <1>        0.000
     15 H          -0.9473    2.4851    0.0788 H.spc      1 <1>        0.000
     16 H          -0.8717   -2.5293   -0.0738 H.spc      1 <1>        0.000
     17 H          -3.0895    1.1882    0.0485 H.spc      1 <1>        0.000
     18 H          -3.0515   -1.2953   -0.0270 H.spc      1 <1>        0.000
@<TRIPOS>BOND
     1    8    9 ar 
     2    7    9 ar 
     3    1    2 1  
     4    2    4 1  
     5    1    3 1  
     6    3    5 1  
     7    4    6 ar 
     8    4    5 ar 
     9    5    7 ar 
    10    6    8 ar 
    11    1   10 1  
    12    2   11 1  
    13    2   12 1  
    14    3   13 1  
    15    3   14 1  
    16    6   15 1  
    17    7   16 1  
    18    8   17 1  
    19    9   18 1  
# Name:          frag4-352-384/150395 -- energy: -0.939857
# Creation time: Sat Jun  5 12:53:32 2010


@<TRIPOS>MOLECULE
frag4-352-384/150395 -- energy: -0.939857
   18    19     1     1     1
SMALL
USER_CHARGES


@<TRIPOS>ATOM
      1 N1          2.5162    0.0502   -0.0077 N.3        1 <1>        0.000
      2 C2          1.6475    1.1497    0.0283 C.3        1 <1>        0.000
      3 C3          1.6984   -1.0858   -0.0398 C.3        1 <1>        0.000
      4 C6          0.2582    0.6967    0.0200 C.ar       1 <1>        0.000
      5 C7          0.2869   -0.7064   -0.0227 C.ar       1 <1>        0.000
      6 C10        -0.9367    1.3956    0.0459 C.ar       1 <1>        0.000
      7 C11        -0.8918   -1.4400   -0.0404 C.ar       1 <1>        0.000
      8 C13        -2.1346    0.6630    0.0286 C.ar       1 <1>        0.000
      9 C14        -2.1128   -0.7414   -0.0141 C.ar       1 <1>        0.000
     10 H           3.1326    0.0392    0.8049 H.spc      1 <1>        0.000
     11 H           1.8245    1.7728   -0.8484 H.spc      1 <1>        0.000
     12 H           1.8312    1.7195    0.9392 H.spc      1 <1>        0.000
     13 H           1.9097   -1.6972    0.8375 H.spc      1 <1>        0.000
     14 H           1.9030   -1.6417   -0.9548 H.spc      1 <1>        0.000
     15 H          -0.9473    2.4851    0.0788 H.spc      1 <1>        0.000
     16 H          -0.8717   -2.5293   -0.0738 H.spc      1 <1>        0.000
     17 H          -3.0895    1.1882    0.0485 H.spc      1 <1>        0.000
     18 H          -3.0515   -1.2953   -0.0270 H.spc      1 <1>        0.000
@<TRIPOS>BOND
     1    8    9 ar 
     2    7    9 ar 
     3    1    2 1  
     4    2    4 1  
     5    1    3 1  
     6    3    5 1  
     7    4    6 ar 
     8    4    5 ar 
     9    5    7 ar 
    10    6    8 ar 
    11    1   10 1  
    12    2   11 1  
    13    2   12 1  
    14    3   13 1  
    15    3   14 1  
    16    6   15 1  
    17    7   16 1  
    18    8   17 1  
    19    9   18 1  
