#      Rotatable Fragment
#      Build by yxyuan
#
# Name:          frag3-259-4/96164
# Creation time: Sat Jun  5 12:53:21 2010


@<TRIPOS>MOLECULE
frag3-259-4/96164
    6     5     1     1     1
SMALL
USER_CHARGES


@<TRIPOS>ATOM
      1 O12        -1.3917    1.6910   -0.1987 O.3        1 <1>        0.000
      2 S1         -2.3210    2.9815   -0.0754 S.o2       1 <1>        0.000
      3 O13        -3.1816    3.0669   -1.2397 O.2        1 <1>        0.000
      4 O14        -2.7276    2.9965    1.3097 O.2        1 <1>        0.000
      5 F1         -1.2958    4.1571   -0.2139 F          1 <1>        0.000
      6 H          -0.8217    1.6337    0.5716 H.spc      1 <1>        0.000
@<TRIPOS>BOND
     1    1    2 1  
     2    2    3 2  
     3    2    4 2  
     4    2    5 1  
     5    1    6 1  
# Name:          frag3-259-4/96164 -- energy: -0.062297
# Creation time: Sat Jun  5 12:53:21 2010


@<TRIPOS>MOLECULE
frag3-259-4/96164 -- energy: -0.062297
    6     5     1     1     1
SMALL
USER_CHARGES


@<TRIPOS>ATOM
      1 O12        -1.3917    1.6910   -0.1987 O.3        1 <1>        0.000
      2 S1         -2.3210    2.9815   -0.0754 S.o2       1 <1>        0.000
      3 O13        -3.1816    3.0669   -1.2397 O.2        1 <1>        0.000
      4 O14        -2.7276    2.9965    1.3097 O.2        1 <1>        0.000
      5 F1         -1.2958    4.1571   -0.2139 F          1 <1>        0.000
      6 H          -0.8217    1.6337    0.5716 H.spc      1 <1>        0.000
@<TRIPOS>BOND
     1    1    2 1  
     2    2    3 2  
     3    2    4 2  
     4    2    5 1  
     5    1    6 1  
