#      Rotatable Fragment
#      Build by yxyuan
#
# Name:          frag4-383-254/150395
# Creation time: Sat Jun  5 12:53:33 2010


@<TRIPOS>MOLECULE
frag4-383-254/150395
   18    18     1     1     1
SMALL
USER_CHARGES


@<TRIPOS>ATOM
      1 C6          0.5705   -1.5353   -0.2613 C.3        1 <1>        0.000
      2 C10         0.6651   -2.8632    0.4061 C.3        1 <1>        0.000
      3 C11         1.8525   -0.7843    0.0868 C.3        1 <1>        0.000
      4 C18         1.8899   -3.2049    1.1867 C.3        1 <1>        0.000
      5 C19         3.1271   -1.5412   -0.2812 C.3        1 <1>        0.000
      6 C20         3.1153   -2.9453    0.3174 C.3        1 <1>        0.000
      7 H           0.4640   -1.6471   -1.3403 H.spc      1 <1>        0.000
      8 H          -0.3079   -0.9880    0.0806 H.spc      1 <1>        0.000
      9 H           0.6454   -3.5858   -0.4097 H.spc      1 <1>        0.000
     10 H          -0.1407   -2.8629    1.1401 H.spc      1 <1>        0.000
     11 H           1.8611   -0.6376    1.1668 H.spc      1 <1>        0.000
     12 H           1.8500    0.1455   -0.4820 H.spc      1 <1>        0.000
     13 H           1.8604   -4.2545    1.4793 H.spc      1 <1>        0.000
     14 H           1.9381   -2.5905    2.0858 H.spc      1 <1>        0.000
     15 H           3.1869   -1.6222   -1.3665 H.spc      1 <1>        0.000
     16 H           3.9853   -0.9977    0.1141 H.spc      1 <1>        0.000
     17 H           3.9995   -3.0480    0.9465 H.spc      1 <1>        0.000
     18 H           3.0988   -3.6596   -0.5057 H.spc      1 <1>        0.000
@<TRIPOS>BOND
     1    5    6 1  
     2    1    3 1  
     3    1    2 1  
     4    2    4 1  
     5    3    5 1  
     6    4    6 1  
     7    1    7 1  
     8    1    8 1  
     9    2    9 1  
    10    2   10 1  
    11    3   11 1  
    12    3   12 1  
    13    4   13 1  
    14    4   14 1  
    15    5   15 1  
    16    5   16 1  
    17    6   17 1  
    18    6   18 1  
# Name:          frag4-383-254/150395 -- energy: -0.889797
# Creation time: Sat Jun  5 12:53:33 2010


@<TRIPOS>MOLECULE
frag4-383-254/150395 -- energy: -0.889797
   18    18     1     1     1
SMALL
USER_CHARGES


@<TRIPOS>ATOM
      1 C6          0.5705   -1.5353   -0.2613 C.3        1 <1>        0.000
      2 C10         0.6651   -2.8632    0.4061 C.3        1 <1>        0.000
      3 C11         1.8525   -0.7843    0.0868 C.3        1 <1>        0.000
      4 C18         1.8899   -3.2049    1.1867 C.3        1 <1>        0.000
      5 C19         3.1271   -1.5412   -0.2812 C.3        1 <1>        0.000
      6 C20         3.1153   -2.9453    0.3174 C.3        1 <1>        0.000
      7 H           0.4640   -1.6471   -1.3403 H.spc      1 <1>        0.000
      8 H          -0.3079   -0.9880    0.0806 H.spc      1 <1>        0.000
      9 H           0.6454   -3.5858   -0.4097 H.spc      1 <1>        0.000
     10 H          -0.1407   -2.8629    1.1401 H.spc      1 <1>        0.000
     11 H           1.8611   -0.6376    1.1668 H.spc      1 <1>        0.000
     12 H           1.8500    0.1455   -0.4820 H.spc      1 <1>        0.000
     13 H           1.8604   -4.2545    1.4793 H.spc      1 <1>        0.000
     14 H           1.9381   -2.5905    2.0858 H.spc      1 <1>        0.000
     15 H           3.1869   -1.6222   -1.3665 H.spc      1 <1>        0.000
     16 H           3.9853   -0.9977    0.1141 H.spc      1 <1>        0.000
     17 H           3.9995   -3.0480    0.9465 H.spc      1 <1>        0.000
     18 H           3.0988   -3.6596   -0.5057 H.spc      1 <1>        0.000
@<TRIPOS>BOND
     1    5    6 1  
     2    1    3 1  
     3    1    2 1  
     4    2    4 1  
     5    3    5 1  
     6    4    6 1  
     7    1    7 1  
     8    1    8 1  
     9    2    9 1  
    10    2   10 1  
    11    3   11 1  
    12    3   12 1  
    13    4   13 1  
    14    4   14 1  
    15    5   15 1  
    16    5   16 1  
    17    6   17 1  
    18    6   18 1  
