#      Rotatable Fragment
#      Build by yxyuan
#
# Name:          frag4-435-126/150395
# Creation time: Sat Jun  5 12:53:35 2010


@<TRIPOS>MOLECULE
frag4-435-126/150395
    9     9     1     1     1
SMALL
USER_CHARGES


@<TRIPOS>ATOM
      1 C1          0.7661    0.7111    0.4595 C.2        1 <1>        0.000
      2 C3         -0.7087    0.8418    0.3048 C.2        1 <1>        0.000
      3 N1          1.1648   -0.4212   -0.0365 N.2        1 <1>        0.000
      4 N2         -1.1880   -0.2159   -0.2767 N.2        1 <1>        0.000
      5 C6         -0.0385   -1.0454   -0.5149 C.3        1 <1>        0.000
      6 H           1.4153    1.4554    0.9207 H.spc      1 <1>        0.000
      7 H          -1.2988    1.6982    0.6312 H.spc      1 <1>        0.000
      8 H          -0.1749   -1.9877    0.0157 H.spc      1 <1>        0.000
      9 H           0.0572   -1.2054   -1.5888 H.spc      1 <1>        0.000
@<TRIPOS>BOND
     1    1    2 1  
     2    1    3 2  
     3    2    4 2  
     4    3    5 1  
     5    4    5 1  
     6    1    6 1  
     7    2    7 1  
     8    5    8 1  
     9    5    9 1  
# Name:          frag4-435-126/150395 -- energy: -0.252682
# Creation time: Sat Jun  5 12:53:35 2010


@<TRIPOS>MOLECULE
frag4-435-126/150395 -- energy: -0.252682
    9     9     1     1     1
SMALL
USER_CHARGES


@<TRIPOS>ATOM
      1 C1          0.7661    0.7111    0.4595 C.2        1 <1>        0.000
      2 C3         -0.7087    0.8418    0.3048 C.2        1 <1>        0.000
      3 N1          1.1648   -0.4212   -0.0365 N.2        1 <1>        0.000
      4 N2         -1.1880   -0.2159   -0.2767 N.2        1 <1>        0.000
      5 C6         -0.0385   -1.0454   -0.5149 C.3        1 <1>        0.000
      6 H           1.4153    1.4554    0.9207 H.spc      1 <1>        0.000
      7 H          -1.2988    1.6982    0.6312 H.spc      1 <1>        0.000
      8 H          -0.1749   -1.9877    0.0157 H.spc      1 <1>        0.000
      9 H           0.0572   -1.2054   -1.5888 H.spc      1 <1>        0.000
@<TRIPOS>BOND
     1    1    2 1  
     2    1    3 2  
     3    2    4 2  
     4    3    5 1  
     5    4    5 1  
     6    1    6 1  
     7    2    7 1  
     8    5    8 1  
     9    5    9 1  
