#      Rotatable Fragment
#      Build by yxyuan
#
# Name:          frag4-367-306/150395
# Creation time: Sat Jun  5 12:53:32 2010


@<TRIPOS>MOLECULE
frag4-367-306/150395
   41    44     1     1     1
SMALL
USER_CHARGES


@<TRIPOS>ATOM
      1 C1          4.0408   -0.2429    0.9074 C.3        1 <1>        0.000
      2 C2          2.8566    0.4036    0.1359 C.3        1 <1>        0.000
      3 C3          5.4231    0.4951    0.7395 C.3        1 <1>        0.000
      4 C4          4.6835   -1.3464    0.0065 C.3        1 <1>        0.000
      5 C5          1.5881   -0.4866    0.3278 C.3        1 <1>        0.000
      6 C6          2.8081    1.9296    0.4980 C.3        1 <1>        0.000
      7 O2          5.5874   -0.3342   -0.4046 O.3        1 <1>        0.000
      8 C7          5.3457    2.0175    0.7377 C.3        1 <1>        0.000
      9 C9          0.5109   -0.5235   -0.8111 C.3        1 <1>        0.000
     10 C10         4.1252    2.5729    0.0019 C.3        1 <1>        0.000
     11 C11         1.6533    2.7188    0.0821 C.3        1 <1>        0.000
     12 C14        -0.0018    0.8701   -1.1898 C.3        1 <1>        0.000
     13 C15        -0.7453   -1.3601   -0.4313 C.3        1 <1>        0.000
     14 C17         0.2867    2.7064    0.5901 C.3        1 <1>        0.000
     15 C18        -0.3811    1.4520    0.1431 C.2        1 <1>        0.000
     16 C21        -1.8187   -0.5429    0.3456 C.3        1 <1>        0.000
     17 C23        -1.2767    0.7535    0.8804 C.2        1 <1>        0.000
     18 H           3.6007   -0.3919    1.8934 H.spc      1 <1>        0.000
     19 H           2.9604    0.4209   -0.9490 H.spc      1 <1>        0.000
     20 H           6.2484    0.5485    1.4495 H.spc      1 <1>        0.000
     21 H           5.0183   -2.3048    0.4032 H.spc      1 <1>        0.000
     22 H           4.1021   -1.9357   -0.7026 H.spc      1 <1>        0.000
     23 H           1.9664   -1.5069    0.3916 H.spc      1 <1>        0.000
     24 H           1.0732   -0.0621    1.1896 H.spc      1 <1>        0.000
     25 H           2.6907    1.9503    1.5815 H.spc      1 <1>        0.000
     26 H           6.2320    2.3873    0.2222 H.spc      1 <1>        0.000
     27 H           5.2738    2.3405    1.7763 H.spc      1 <1>        0.000
     28 H           1.0374   -0.9813   -1.6485 H.spc      1 <1>        0.000
     29 H           4.0728    3.6454    0.1892 H.spc      1 <1>        0.000
     30 H           4.2356    2.3493   -1.0592 H.spc      1 <1>        0.000
     31 H           1.4946    2.3229   -0.9210 H.spc      1 <1>        0.000
     32 H           1.9711    3.7135    0.3947 H.spc      1 <1>        0.000
     33 H           0.7394    1.4675   -1.7207 H.spc      1 <1>        0.000
     34 H          -0.8326    0.8419   -1.8949 H.spc      1 <1>        0.000
     35 H          -1.2025   -1.7065   -1.3581 H.spc      1 <1>        0.000
     36 H          -0.4163   -2.1718    0.2176 H.spc      1 <1>        0.000
     37 H           0.2973    2.7510    1.6791 H.spc      1 <1>        0.000
     38 H          -0.2570    3.5704    0.2079 H.spc      1 <1>        0.000
     39 H          -2.6297   -0.3100   -0.3445 H.spc      1 <1>        0.000
     40 H          -2.1522   -1.1435    1.1919 H.spc      1 <1>        0.000
     41 H          -1.6013    1.1272    1.8515 H.spc      1 <1>        0.000
@<TRIPOS>BOND
     1    1    2 1  
     2    4    7 1  
     3    3    7 1  
     4    1    4 1  
     5    1    3 1  
     6    2    6 1  
     7    6   11 1  
     8    6   10 1  
     9    5    9 1  
    10    2    5 1  
    11    3    8 1  
    12   16   17 1  
    13   15   17 2  
    14   14   15 1  
    15   13   16 1  
    16   12   15 1  
    17   11   14 1  
    18    9   13 1  
    19    9   12 1  
    20    8   10 1  
    21    1   18 1  
    22    2   19 1  
    23    3   20 1  
    24    4   21 1  
    25    4   22 1  
    26    5   23 1  
    27    5   24 1  
    28    6   25 1  
    29    8   26 1  
    30    8   27 1  
    31    9   28 1  
    32   10   29 1  
    33   10   30 1  
    34   11   31 1  
    35   11   32 1  
    36   12   33 1  
    37   12   34 1  
    38   13   35 1  
    39   13   36 1  
    40   14   37 1  
    41   14   38 1  
    42   16   39 1  
    43   16   40 1  
    44   17   41 1  
