#      Rotatable Fragment
#      Build by yxyuan
#
# Name:          frag3-199-5/31924
# Creation time: Sat Jun  5 12:52:19 2010


@<TRIPOS>MOLECULE
frag3-199-5/31924
    9     8     1     1     1
SMALL
USER_CHARGES


@<TRIPOS>ATOM
      1 N1         -3.8814   -2.4036    0.7094 N.3        1 <1>        0.000
      2 N2         -4.5767   -3.0030   -0.3101 N.am       1 <1>        0.000
      3 C1         -3.9984   -3.2962   -1.5133 C.2        1 <1>        0.000
      4 O1         -4.5581   -3.7339   -2.5000 O.2        1 <1>        0.000
      5 O2         -2.6828   -2.9912   -1.4875 O.3        1 <1>        0.000
      6 H          -4.4985   -2.2767    1.5116 H.spc      1 <1>        0.000
      7 H          -3.0934   -2.9942    0.9752 H.spc      1 <1>        0.000
      8 H          -5.5587   -3.2378   -0.1652 H.spc      1 <1>        0.000
      9 H          -2.4485   -2.6633   -0.6162 H.spc      1 <1>        0.000
@<TRIPOS>BOND
     1    1    2 1  
     2    2    3 am 
     3    3    4 2  
     4    3    5 1  
     5    1    6 1  
     6    1    7 1  
     7    2    8 1  
     8    5    9 1  
# Name:          frag3-199-5/31924
# Creation time: Sat Jun  5 12:52:19 2010


@<TRIPOS>MOLECULE
frag3-199-5/31924
    9     8     1     1     1
SMALL
USER_CHARGES


@<TRIPOS>ATOM
      1 N1         -4.8184   -2.7481    0.6349 N.3        1 <1>        0.000
      2 N2         -3.7911   -2.6420   -0.2272 N.am       1 <1>        0.000
      3 C1         -3.7889   -3.2050   -1.4714 C.2        1 <1>        0.000
      4 O1         -4.7429   -3.6828   -2.0578 O.2        1 <1>        0.000
      5 O2         -2.5561   -3.1500   -1.9800 O.3        1 <1>        0.000
      6 H          -4.5919   -2.2486    1.4949 H.spc      1 <1>        0.000
      7 H          -5.6556   -2.3435    0.2157 H.spc      1 <1>        0.000
      8 H          -2.9695   -2.1125    0.0642 H.spc      1 <1>        0.000
      9 H          -1.9677   -2.7342   -1.3456 H.spc      1 <1>        0.000
@<TRIPOS>BOND
     1    1    2 1  
     2    2    3 am 
     3    3    4 2  
     4    3    5 1  
     5    1    6 1  
     6    1    7 1  
     7    2    8 1  
     8    5    9 1  
# Name:          frag3-199-5/31924 -- energy: 0.680604
# Creation time: Sat Jun  5 12:52:19 2010


@<TRIPOS>MOLECULE
frag3-199-5/31924 -- energy: 0.680604
    9     8     1     1     1
SMALL
USER_CHARGES


@<TRIPOS>ATOM
      1 N1         -4.8184   -2.7481    0.6349 N.3        1 <1>        0.000
      2 N2         -3.7911   -2.6420   -0.2272 N.am       1 <1>        0.000
      3 C1         -3.7889   -3.2050   -1.4714 C.2        1 <1>        0.000
      4 O1         -4.7429   -3.6828   -2.0578 O.2        1 <1>        0.000
      5 O2         -2.5561   -3.1500   -1.9800 O.3        1 <1>        0.000
      6 H          -4.5919   -2.2486    1.4949 H.spc      1 <1>        0.000
      7 H          -5.6556   -2.3435    0.2157 H.spc      1 <1>        0.000
      8 H          -2.9695   -2.1125    0.0642 H.spc      1 <1>        0.000
      9 H          -1.9677   -2.7342   -1.3456 H.spc      1 <1>        0.000
@<TRIPOS>BOND
     1    1    2 1  
     2    2    3 am 
     3    3    4 2  
     4    3    5 1  
     5    1    6 1  
     6    1    7 1  
     7    2    8 1  
     8    5    9 1  
