#      Rotatable Fragment
#      Build by yxyuan
#
# Name:          frag5-534-245/138278
# Creation time: Sat Jun  5 12:53:41 2010


@<TRIPOS>MOLECULE
frag5-534-245/138278
   21    22     1     1     1
SMALL
USER_CHARGES


@<TRIPOS>ATOM
      1 C1         -1.7731    0.3172    0.1529 C.ar       1 <1>        0.000
      2 C2         -1.7985   -1.0997    0.1060 C.ar       1 <1>        0.000
      3 O1         -0.5780    1.0072    0.2461 O.3        1 <1>        0.000
      4 C3         -2.9846    1.0132    0.0948 C.ar       1 <1>        0.000
      5 C4         -3.0268   -1.7534    0.0504 C.ar       1 <1>        0.000
      6 C5         -0.5054   -1.8936    0.1311 C.3        1 <1>        0.000
      7 C6          0.6401    0.3779    0.6319 C.3        1 <1>        0.000
      8 C7         -4.1972    0.3442    0.0091 C.ar       1 <1>        0.000
      9 C9         -4.2436   -1.0617    0.0131 C.ar       1 <1>        0.000
     10 C11         0.3426   -1.0558    1.1083 C.3        1 <1>        0.000
     11 O2         -5.4329   -1.7522   -0.0203 O.3        1 <1>        0.000
     12 H          -2.9762    2.1029    0.1173 H.spc      1 <1>        0.000
     13 H          -3.0415   -2.8432    0.0354 H.spc      1 <1>        0.000
     14 H          -0.6335   -2.9311    0.4397 H.spc      1 <1>        0.000
     15 H          -0.0482   -2.0187   -0.8505 H.spc      1 <1>        0.000
     16 H           1.1027    0.9430    1.4411 H.spc      1 <1>        0.000
     17 H           1.3203    0.3461   -0.2193 H.spc      1 <1>        0.000
     18 H          -5.1236    0.9141   -0.0621 H.spc      1 <1>        0.000
     19 H           1.3022   -1.5623    1.2116 H.spc      1 <1>        0.000
     20 H          -0.2280   -0.9718    2.0332 H.spc      1 <1>        0.000
     21 H          -6.1629   -1.1291   -0.0431 H.spc      1 <1>        0.000
@<TRIPOS>BOND
     1    9   11 1  
     2    5    9 ar 
     3    4    8 ar 
     4    8    9 ar 
     5    6   10 1  
     6    2    6 1  
     7    3    7 1  
     8    7   10 1  
     9    1    2 ar 
    10    1    3 1  
    11    1    4 ar 
    12    2    5 ar 
    13    4   12 1  
    14    5   13 1  
    15    6   14 1  
    16    6   15 1  
    17    7   16 1  
    18    7   17 1  
    19    8   18 1  
    20   10   19 1  
    21   10   20 1  
    22   11   21 1  
# Name:          frag5-534-245/138278 -- energy: -0.973746
# Creation time: Sat Jun  5 12:53:41 2010


@<TRIPOS>MOLECULE
frag5-534-245/138278 -- energy: -0.973746
   21    22     1     1     1
SMALL
USER_CHARGES


@<TRIPOS>ATOM
      1 C1         -1.7731    0.3172    0.1529 C.ar       1 <1>        0.000
      2 C2         -1.7985   -1.0997    0.1060 C.ar       1 <1>        0.000
      3 O1         -0.5780    1.0072    0.2461 O.3        1 <1>        0.000
      4 C3         -2.9846    1.0132    0.0948 C.ar       1 <1>        0.000
      5 C4         -3.0268   -1.7534    0.0504 C.ar       1 <1>        0.000
      6 C5         -0.5054   -1.8936    0.1311 C.3        1 <1>        0.000
      7 C6          0.6401    0.3779    0.6319 C.3        1 <1>        0.000
      8 C7         -4.1972    0.3442    0.0091 C.ar       1 <1>        0.000
      9 C9         -4.2436   -1.0617    0.0131 C.ar       1 <1>        0.000
     10 C11         0.3426   -1.0558    1.1083 C.3        1 <1>        0.000
     11 O2         -5.4329   -1.7522   -0.0203 O.3        1 <1>        0.000
     12 H          -2.9762    2.1029    0.1173 H.spc      1 <1>        0.000
     13 H          -3.0415   -2.8432    0.0354 H.spc      1 <1>        0.000
     14 H          -0.6335   -2.9311    0.4397 H.spc      1 <1>        0.000
     15 H          -0.0482   -2.0187   -0.8505 H.spc      1 <1>        0.000
     16 H           1.1027    0.9430    1.4411 H.spc      1 <1>        0.000
     17 H           1.3203    0.3461   -0.2193 H.spc      1 <1>        0.000
     18 H          -5.1236    0.9141   -0.0621 H.spc      1 <1>        0.000
     19 H           1.3022   -1.5623    1.2116 H.spc      1 <1>        0.000
     20 H          -0.2280   -0.9718    2.0332 H.spc      1 <1>        0.000
     21 H          -6.1629   -1.1291   -0.0431 H.spc      1 <1>        0.000
@<TRIPOS>BOND
     1    9   11 1  
     2    5    9 ar 
     3    4    8 ar 
     4    8    9 ar 
     5    6   10 1  
     6    2    6 1  
     7    3    7 1  
     8    7   10 1  
     9    1    2 ar 
    10    1    3 1  
    11    1    4 ar 
    12    2    5 ar 
    13    4   12 1  
    14    5   13 1  
    15    6   14 1  
    16    6   15 1  
    17    7   16 1  
    18    7   17 1  
    19    8   18 1  
    20   10   19 1  
    21   10   20 1  
    22   11   21 1  
