#      Rotatable Fragment
#      Build by yxyuan
#
# Name:          frag3-186-7/31924
# Creation time: Sat Jun  5 12:52:09 2010


@<TRIPOS>MOLECULE
frag3-186-7/31924
   12    11     1     1     1
SMALL
USER_CHARGES


@<TRIPOS>ATOM
      1 C3          0.3004    0.5453    0.4981 C.2        1 <1>        0.000
      2 C4          1.2399    0.8741   -0.3921 C.2        1 <1>        0.000
      3 C5          2.5488    0.2907   -0.6179 C.2        1 <1>        0.000
      4 O3          3.5711    0.8685   -0.2721 O.2        1 <1>        0.000
      5 O4          2.5290   -0.8086   -1.3697 O.3        1 <1>        0.000
      6 C6          0.4603   -0.5483    1.4415 C.2        1 <1>        0.000
      7 O5          1.3936   -1.3322    1.4819 O.2        1 <1>        0.000
      8 O6         -0.5955   -0.6049    2.2549 O.3        1 <1>        0.000
      9 H          -0.6248    1.1212    0.5179 H.spc      1 <1>        0.000
     10 H           0.9848    1.7064   -1.0481 H.spc      1 <1>        0.000
     11 H           1.6196   -1.0812   -1.5120 H.spc      1 <1>        0.000
     12 H          -1.2009    0.1090    2.0417 H.spc      1 <1>        0.000
@<TRIPOS>BOND
     1    1    2 2  
     2    1    6 1  
     3    2    3 1  
     4    3    4 2  
     5    3    5 1  
     6    6    7 2  
     7    6    8 1  
     8    1    9 1  
     9    2   10 1  
    10    5   11 1  
    11    8   12 1  
# Name:          frag3-186-7/31924
# Creation time: Sat Jun  5 12:52:09 2010


@<TRIPOS>MOLECULE
frag3-186-7/31924
   12    11     1     1     1
SMALL
USER_CHARGES


@<TRIPOS>ATOM
      1 C3          0.3980    0.6493    0.5891 C.2        1 <1>        0.000
      2 C4          1.1888    0.8380   -0.4678 C.2        1 <1>        0.000
      3 C5          2.4043    0.0952   -0.7668 C.2        1 <1>        0.000
      4 O3          3.2315   -0.2500    0.0624 O.2        1 <1>        0.000
      5 O4          2.5521   -0.1013   -2.0801 O.3        1 <1>        0.000
      6 C6          0.5795   -0.3426    1.6380 C.2        1 <1>        0.000
      7 O5          1.2016   -0.1408    2.6627 O.2        1 <1>        0.000
      8 O6         -0.1081   -1.4631    1.3870 O.3        1 <1>        0.000
      9 H          -0.4702    1.3027    0.6758 H.spc      1 <1>        0.000
     10 H           0.8989    1.6187   -1.1711 H.spc      1 <1>        0.000
     11 H           1.7862    0.2465   -2.5427 H.spc      1 <1>        0.000
     12 H          -0.5168   -1.3991    0.5207 H.spc      1 <1>        0.000
@<TRIPOS>BOND
     1    1    2 2  
     2    1    6 1  
     3    2    3 1  
     4    3    4 2  
     5    3    5 1  
     6    6    7 2  
     7    6    8 1  
     8    1    9 1  
     9    2   10 1  
    10    5   11 1  
    11    8   12 1  
# Name:          frag3-186-7/31924
# Creation time: Sat Jun  5 12:52:09 2010


@<TRIPOS>MOLECULE
frag3-186-7/31924
   12    11     1     1     1
SMALL
USER_CHARGES


@<TRIPOS>ATOM
      1 C3          1.5309    1.1009   -0.0448 C.2        1 <1>        0.000
      2 C4          0.5895    0.6975    0.8114 C.2        1 <1>        0.000
      3 C5          0.2879   -0.5945    1.4374 C.2        1 <1>        0.000
      4 O3         -0.6575   -0.6371    2.2021 O.2        1 <1>        0.000
      5 O4          1.0270   -1.6819    1.1897 O.3        1 <1>        0.000
      6 C6          2.6068    0.3795   -0.6873 C.2        1 <1>        0.000
      7 O5          3.4836    0.9797   -1.2820 O.2        1 <1>        0.000
      8 O6          2.5795   -0.9595   -0.6019 O.3        1 <1>        0.000
      9 H           1.4796    2.1582   -0.3048 H.spc      1 <1>        0.000
     10 H          -0.0964    1.4917    1.1061 H.spc      1 <1>        0.000
     11 H           1.7230   -1.4594    0.5670 H.spc      1 <1>        0.000
     12 H           1.8115   -1.2310   -0.0939 H.spc      1 <1>        0.000
@<TRIPOS>BOND
     1    1    2 2  
     2    1    6 1  
     3    2    3 1  
     4    3    4 2  
     5    3    5 1  
     6    6    7 2  
     7    6    8 1  
     8    1    9 1  
     9    2   10 1  
    10    5   11 1  
    11    8   12 1  
# Name:          frag3-186-7/31924
# Creation time: Sat Jun  5 12:52:09 2010


@<TRIPOS>MOLECULE
frag3-186-7/31924
   12    11     1     1     1
SMALL
USER_CHARGES


@<TRIPOS>ATOM
      1 C3          0.2865    0.5962    0.5176 C.2        1 <1>        0.000
      2 C4          1.3161    1.0380   -0.2371 C.2        1 <1>        0.000
      3 C5          2.6097    0.3923   -0.5157 C.2        1 <1>        0.000
      4 O3          3.4222    0.9944   -1.2085 O.2        1 <1>        0.000
      5 O4          2.9135   -0.7949   -0.0007 O.3        1 <1>        0.000
      6 C6          0.2961   -0.6735    1.2279 C.2        1 <1>        0.000
      7 O5          0.7010   -1.7110    0.7408 O.2        1 <1>        0.000
      8 O6         -0.0974   -0.5569    2.5004 O.3        1 <1>        0.000
      9 H          -0.5999    1.2253    0.5989 H.spc      1 <1>        0.000
     10 H           1.1682    2.0106   -0.7065 H.spc      1 <1>        0.000
     11 H           2.1690   -1.1208    0.5103 H.spc      1 <1>        0.000
     12 H          -0.3762    0.3466    2.6664 H.spc      1 <1>        0.000
@<TRIPOS>BOND
     1    1    2 2  
     2    1    6 1  
     3    2    3 1  
     4    3    4 2  
     5    3    5 1  
     6    6    7 2  
     7    6    8 1  
     8    1    9 1  
     9    2   10 1  
    10    5   11 1  
    11    8   12 1  
# Name:          frag3-186-7/31924
# Creation time: Sat Jun  5 12:52:09 2010


@<TRIPOS>MOLECULE
frag3-186-7/31924
   12    11     1     1     1
SMALL
USER_CHARGES


@<TRIPOS>ATOM
      1 C3          1.0607    0.7525    1.3587 C.2        1 <1>        0.000
      2 C4          1.9173    1.1557    0.4140 C.2        1 <1>        0.000
      3 C5          2.3646    0.3162   -0.6941 C.2        1 <1>        0.000
      4 O3          2.0427    0.6213   -1.8397 O.2        1 <1>        0.000
      5 O4          3.1363   -0.7249   -0.3764 O.3        1 <1>        0.000
      6 C6          0.5166   -0.5995    1.3918 C.2        1 <1>        0.000
      7 O5          1.1467   -1.5544    1.8220 O.2        1 <1>        0.000
      8 O6         -0.7371   -0.6825    0.9483 O.3        1 <1>        0.000
      9 H           0.7588    1.4598    2.1311 H.spc      1 <1>        0.000
     10 H           2.3051    2.1726    0.4748 H.spc      1 <1>        0.000
     11 H           3.2480   -0.7600    0.5764 H.spc      1 <1>        0.000
     12 H          -1.0313    0.1846    0.6598 H.spc      1 <1>        0.000
@<TRIPOS>BOND
     1    1    2 2  
     2    1    6 1  
     3    2    3 1  
     4    3    4 2  
     5    3    5 1  
     6    6    7 2  
     7    6    8 1  
     8    1    9 1  
     9    2   10 1  
    10    5   11 1  
    11    8   12 1  
# Name:          frag3-186-7/31924
# Creation time: Sat Jun  5 12:52:09 2010


@<TRIPOS>MOLECULE
frag3-186-7/31924
   12    11     1     1     1
SMALL
USER_CHARGES


@<TRIPOS>ATOM
      1 C3          0.6610    0.7405    0.9800 C.2        1 <1>        0.000
      2 C4          1.6149    1.1405    0.1198 C.2        1 <1>        0.000
      3 C5          2.5783    0.3559   -0.6573 C.2        1 <1>        0.000
      4 O3          2.9810    0.8326   -1.7131 O.2        1 <1>        0.000
      5 O4          3.0087   -0.8108   -0.1935 O.3        1 <1>        0.000
      6 C6          0.3404   -0.6312    1.3668 C.2        1 <1>        0.000
      7 O5          1.1390   -1.5423    1.2288 O.2        1 <1>        0.000
      8 O6         -0.8755   -0.8006    1.8931 O.3        1 <1>        0.000
      9 H           0.0613    1.5265    1.4389 H.spc      1 <1>        0.000
     10 H           1.6818    2.2192   -0.0216 H.spc      1 <1>        0.000
     11 H           2.5735   -1.0026    0.6404 H.spc      1 <1>        0.000
     12 H          -1.3364    0.0414    1.9085 H.spc      1 <1>        0.000
@<TRIPOS>BOND
     1    1    2 2  
     2    1    6 1  
     3    2    3 1  
     4    3    4 2  
     5    3    5 1  
     6    6    7 2  
     7    6    8 1  
     8    1    9 1  
     9    2   10 1  
    10    5   11 1  
    11    8   12 1  
# Name:          frag3-186-7/31924
# Creation time: Sat Jun  5 12:52:09 2010


@<TRIPOS>MOLECULE
frag3-186-7/31924
   12    11     1     1     1
SMALL
USER_CHARGES


@<TRIPOS>ATOM
      1 C3          1.1620    0.6127    1.3911 C.2        1 <1>        0.000
      2 C4          1.9873    1.0617    0.4476 C.2        1 <1>        0.000
      3 C5          2.4006    0.3972   -0.7659 C.2        1 <1>        0.000
      4 O3          2.5919    1.0506   -1.7816 O.2        1 <1>        0.000
      5 O4          2.6133   -0.9059   -0.6923 O.3        1 <1>        0.000
      6 C6          0.4542   -0.6442    1.4818 C.2        1 <1>        0.000
      7 O5          0.5443   -1.3182    2.4969 O.2        1 <1>        0.000
      8 O6         -0.3058   -0.9694    0.4470 O.3        1 <1>        0.000
      9 H           0.9946    1.2978    2.2222 H.spc      1 <1>        0.000
     10 H           2.4032    2.0558    0.6119 H.spc      1 <1>        0.000
     11 H           2.4000   -1.2144    0.1914 H.spc      1 <1>        0.000
     12 H          -0.2216   -0.2980   -0.2340 H.spc      1 <1>        0.000
@<TRIPOS>BOND
     1    1    2 2  
     2    1    6 1  
     3    2    3 1  
     4    3    4 2  
     5    3    5 1  
     6    6    7 2  
     7    6    8 1  
     8    1    9 1  
     9    2   10 1  
    10    5   11 1  
    11    8   12 1  
# Name:          frag3-186-7/31924 -- energy: 0.075844
# Creation time: Sat Jun  5 12:52:10 2010


@<TRIPOS>MOLECULE
frag3-186-7/31924 -- energy: 0.075844
   12    11     1     1     1
SMALL
USER_CHARGES


@<TRIPOS>ATOM
      1 C3          0.3004    0.5453    0.4981 C.2        1 <1>        0.000
      2 C4          1.2399    0.8741   -0.3921 C.2        1 <1>        0.000
      3 C5          2.5488    0.2907   -0.6179 C.2        1 <1>        0.000
      4 O3          3.5711    0.8685   -0.2721 O.2        1 <1>        0.000
      5 O4          2.5290   -0.8086   -1.3697 O.3        1 <1>        0.000
      6 C6          0.4603   -0.5483    1.4415 C.2        1 <1>        0.000
      7 O5          1.3936   -1.3322    1.4819 O.2        1 <1>        0.000
      8 O6         -0.5955   -0.6049    2.2549 O.3        1 <1>        0.000
      9 H          -0.6248    1.1212    0.5179 H.spc      1 <1>        0.000
     10 H           0.9848    1.7064   -1.0481 H.spc      1 <1>        0.000
     11 H           1.6196   -1.0812   -1.5120 H.spc      1 <1>        0.000
     12 H          -1.2009    0.1090    2.0417 H.spc      1 <1>        0.000
@<TRIPOS>BOND
     1    1    2 2  
     2    1    6 1  
     3    2    3 1  
     4    3    4 2  
     5    3    5 1  
     6    6    7 2  
     7    6    8 1  
     8    1    9 1  
     9    2   10 1  
    10    5   11 1  
    11    8   12 1  
# Name:          frag3-186-7/31924 -- energy: -0.335955
# Creation time: Sat Jun  5 12:52:10 2010


@<TRIPOS>MOLECULE
frag3-186-7/31924 -- energy: -0.335955
   12    11     1     1     1
SMALL
USER_CHARGES


@<TRIPOS>ATOM
      1 C3          0.3980    0.6493    0.5891 C.2        1 <1>        0.000
      2 C4          1.1888    0.8380   -0.4678 C.2        1 <1>        0.000
      3 C5          2.4043    0.0952   -0.7668 C.2        1 <1>        0.000
      4 O3          3.2315   -0.2500    0.0624 O.2        1 <1>        0.000
      5 O4          2.5521   -0.1013   -2.0801 O.3        1 <1>        0.000
      6 C6          0.5795   -0.3426    1.6380 C.2        1 <1>        0.000
      7 O5          1.2016   -0.1408    2.6627 O.2        1 <1>        0.000
      8 O6         -0.1081   -1.4631    1.3870 O.3        1 <1>        0.000
      9 H          -0.4702    1.3027    0.6758 H.spc      1 <1>        0.000
     10 H           0.8989    1.6187   -1.1711 H.spc      1 <1>        0.000
     11 H           1.7862    0.2465   -2.5427 H.spc      1 <1>        0.000
     12 H          -0.5168   -1.3991    0.5207 H.spc      1 <1>        0.000
@<TRIPOS>BOND
     1    1    2 2  
     2    1    6 1  
     3    2    3 1  
     4    3    4 2  
     5    3    5 1  
     6    6    7 2  
     7    6    8 1  
     8    1    9 1  
     9    2   10 1  
    10    5   11 1  
    11    8   12 1  
# Name:          frag3-186-7/31924 -- energy: -0.853326
# Creation time: Sat Jun  5 12:52:10 2010


@<TRIPOS>MOLECULE
frag3-186-7/31924 -- energy: -0.853326
   12    11     1     1     1
SMALL
USER_CHARGES


@<TRIPOS>ATOM
      1 C3          1.0607    0.7525    1.3587 C.2        1 <1>        0.000
      2 C4          1.9173    1.1557    0.4140 C.2        1 <1>        0.000
      3 C5          2.3646    0.3162   -0.6941 C.2        1 <1>        0.000
      4 O3          2.0427    0.6213   -1.8397 O.2        1 <1>        0.000
      5 O4          3.1363   -0.7249   -0.3764 O.3        1 <1>        0.000
      6 C6          0.5166   -0.5995    1.3918 C.2        1 <1>        0.000
      7 O5          1.1467   -1.5544    1.8220 O.2        1 <1>        0.000
      8 O6         -0.7371   -0.6825    0.9483 O.3        1 <1>        0.000
      9 H           0.7588    1.4598    2.1311 H.spc      1 <1>        0.000
     10 H           2.3051    2.1726    0.4748 H.spc      1 <1>        0.000
     11 H           3.2480   -0.7600    0.5764 H.spc      1 <1>        0.000
     12 H          -1.0313    0.1846    0.6598 H.spc      1 <1>        0.000
@<TRIPOS>BOND
     1    1    2 2  
     2    1    6 1  
     3    2    3 1  
     4    3    4 2  
     5    3    5 1  
     6    6    7 2  
     7    6    8 1  
     8    1    9 1  
     9    2   10 1  
    10    5   11 1  
    11    8   12 1  
# Name:          frag3-186-7/31924 -- energy: -0.626481
# Creation time: Sat Jun  5 12:52:10 2010


@<TRIPOS>MOLECULE
frag3-186-7/31924 -- energy: -0.626481
   12    11     1     1     1
SMALL
USER_CHARGES


@<TRIPOS>ATOM
      1 C3          1.1620    0.6127    1.3911 C.2        1 <1>        0.000
      2 C4          1.9873    1.0617    0.4476 C.2        1 <1>        0.000
      3 C5          2.4006    0.3972   -0.7659 C.2        1 <1>        0.000
      4 O3          2.5919    1.0506   -1.7816 O.2        1 <1>        0.000
      5 O4          2.6133   -0.9059   -0.6923 O.3        1 <1>        0.000
      6 C6          0.4542   -0.6442    1.4818 C.2        1 <1>        0.000
      7 O5          0.5443   -1.3182    2.4969 O.2        1 <1>        0.000
      8 O6         -0.3058   -0.9694    0.4470 O.3        1 <1>        0.000
      9 H           0.9946    1.2978    2.2222 H.spc      1 <1>        0.000
     10 H           2.4032    2.0558    0.6119 H.spc      1 <1>        0.000
     11 H           2.4000   -1.2144    0.1914 H.spc      1 <1>        0.000
     12 H          -0.2216   -0.2980   -0.2340 H.spc      1 <1>        0.000
@<TRIPOS>BOND
     1    1    2 2  
     2    1    6 1  
     3    2    3 1  
     4    3    4 2  
     5    3    5 1  
     6    6    7 2  
     7    6    8 1  
     8    1    9 1  
     9    2   10 1  
    10    5   11 1  
    11    8   12 1  
