#      Rotatable Fragment
#      Build by yxyuan
#
# Name:          frag5-665-67/138278
# Creation time: Sat Jun  5 12:51:51 2010


@<TRIPOS>MOLECULE
frag5-665-67/138278
   44    47     1     1     1
SMALL
USER_CHARGES


@<TRIPOS>ATOM
      1 C1          1.2037   -0.2635   -0.4586 C.3        1 <1>        0.000
      2 C2          0.4710   -0.8351    0.7746 C.3        1 <1>        0.000
      3 C3          1.4156    1.2808   -0.3662 C.3        1 <1>        0.000
      4 C4          2.5770   -0.7698   -0.8333 C.3        1 <1>        0.000
      5 C5         -0.8799   -0.0949    1.0119 C.3        1 <1>        0.000
      6 C6          0.3690   -2.3472    0.9692 C.3        1 <1>        0.000
      7 C7          2.8479    1.5464   -0.0225 C.3        1 <1>        0.000
      8 C8          0.4660    2.0016    0.5375 C.3        1 <1>        0.000
      9 C16        -3.1630   -0.2757   -0.3067 C.3        1 <1>        0.000
     10 C10         3.5631    0.2936   -0.4077 C.3        1 <1>        0.000
     11 C11        -2.1917   -0.8696    0.7117 C.3        1 <1>        0.000
     12 C12        -0.8658    1.3418    0.4739 C.3        1 <1>        0.000
     13 C13        -0.9001   -2.9589    0.5160 C.2        1 <1>        0.000
     14 C15        -2.0998   -2.3680    0.3818 C.2        1 <1>        0.000
     15 C18        -3.3196   -3.0289   -0.0547 C.2        1 <1>        0.000
     16 C19        -4.5282   -0.9132   -0.3027 C.3        1 <1>        0.000
     17 C22        -4.4804   -2.3983   -0.3423 C.2        1 <1>        0.000
     18 C27        -5.6207   -3.2204   -0.7558 C.2        1 <1>        0.000
     19 O3         -5.9040   -4.3082   -0.0369 O.3        1 <1>        0.000
     20 O4         -6.3032   -2.8675   -1.7014 O.2        1 <1>        0.000
     21 H           0.4989   -0.6142   -1.2125 H.spc      1 <1>        0.000
     22 H           1.1779   -0.6125    1.5739 H.spc      1 <1>        0.000
     23 H           1.1798    1.6976   -1.3454 H.spc      1 <1>        0.000
     24 H           2.6436   -0.9544   -1.9055 H.spc      1 <1>        0.000
     25 H           2.7900   -1.7173   -0.3384 H.spc      1 <1>        0.000
     26 H          -0.9285   -0.0365    2.0992 H.spc      1 <1>        0.000
     27 H           0.4377   -2.5292    2.0417 H.spc      1 <1>        0.000
     28 H           1.1622   -2.7933    0.3693 H.spc      1 <1>        0.000
     29 H           3.2391    2.4181   -0.5471 H.spc      1 <1>        0.000
     30 H           2.9776    1.7827    1.0336 H.spc      1 <1>        0.000
     31 H           0.8406    1.9716    1.5607 H.spc      1 <1>        0.000
     32 H           0.3753    3.0402    0.2194 H.spc      1 <1>        0.000
     33 H          -3.2977    0.7746   -0.0481 H.spc      1 <1>        0.000
     34 H          -2.7338   -0.4410   -1.2949 H.spc      1 <1>        0.000
     35 H           4.1274   -0.0702    0.4510 H.spc      1 <1>        0.000
     36 H           4.2321    0.5097   -1.2407 H.spc      1 <1>        0.000
     37 H          -2.5855   -0.7419    1.7200 H.spc      1 <1>        0.000
     38 H          -1.1527    1.2954   -0.5766 H.spc      1 <1>        0.000
     39 H          -1.5447    1.9255    1.0956 H.spc      1 <1>        0.000
     40 H          -0.8566   -4.0175    0.2599 H.spc      1 <1>        0.000
     41 H          -3.2962   -4.1138   -0.1577 H.spc      1 <1>        0.000
     42 H          -5.0258   -0.6231    0.6227 H.spc      1 <1>        0.000
     43 H          -5.0533   -0.5755   -1.1962 H.spc      1 <1>        0.000
     44 H          -5.2493   -4.4108    0.6577 H.spc      1 <1>        0.000
@<TRIPOS>BOND
     1    1    3 1  
     2    1    2 1  
     3    2    5 1  
     4    1    4 1  
     5    2    6 1  
     6   18   20 2  
     7   18   19 1  
     8   17   18 1  
     9   16   17 1  
    10   15   17 2  
    11    9   16 1  
    12   14   15 1  
    13   13   14 2  
    14   11    9 1  
    15   11   14 1  
    16    8   12 1  
    17    7   10 1  
    18    6   13 1  
    19    5   12 1  
    20    5   11 1  
    21    4   10 1  
    22    3    8 1  
    23    3    7 1  
    24    1   21 1  
    25    2   22 1  
    26    3   23 1  
    27    4   24 1  
    28    4   25 1  
    29    5   26 1  
    30    6   27 1  
    31    6   28 1  
    32    7   29 1  
    33    7   30 1  
    34    8   31 1  
    35    8   32 1  
    36    9   33 1  
    37    9   34 1  
    38   10   35 1  
    39   10   36 1  
    40   11   37 1  
    41   12   38 1  
    42   12   39 1  
    43   13   40 1  
    44   15   41 1  
    45   16   42 1  
    46   16   43 1  
    47   19   44 1  
# Name:          frag5-665-67/138278
# Creation time: Sat Jun  5 12:51:51 2010


@<TRIPOS>MOLECULE
frag5-665-67/138278
   44    47     1     1     1
SMALL
USER_CHARGES


@<TRIPOS>ATOM
      1 C1          1.2034   -0.2372   -0.4443 C.3        1 <1>        0.000
      2 C2          0.4579   -0.8325    0.7727 C.3        1 <1>        0.000
      3 C3          1.3897    1.2852   -0.3591 C.3        1 <1>        0.000
      4 C4          2.6052   -0.7417   -0.8344 C.3        1 <1>        0.000
      5 C5         -0.8897   -0.1057    1.0227 C.3        1 <1>        0.000
      6 C6          0.3772   -2.3531    0.9433 C.3        1 <1>        0.000
      7 C7          2.8673    1.5090   -0.0562 C.3        1 <1>        0.000
      8 C8          0.4214    2.0095    0.5443 C.3        1 <1>        0.000
      9 C16        -3.1764   -0.2715   -0.2708 C.3        1 <1>        0.000
     10 C10         3.6639    0.2913   -0.4682 C.3        1 <1>        0.000
     11 C11        -2.1958   -0.8843    0.7304 C.3        1 <1>        0.000
     12 C12        -0.9031    1.3417    0.5115 C.3        1 <1>        0.000
     13 C13        -0.9009   -2.9724    0.5083 C.2        1 <1>        0.000
     14 C15        -2.0970   -2.3779    0.3860 C.2        1 <1>        0.000
     15 C18        -3.3335   -3.0241   -0.0373 C.2        1 <1>        0.000
     16 C19        -4.5440   -0.9023   -0.2743 C.3        1 <1>        0.000
     17 C22        -4.4925   -2.3851   -0.3324 C.2        1 <1>        0.000
     18 C27        -5.6026   -3.2691   -0.7046 C.2        1 <1>        0.000
     19 O3         -6.3982   -2.7773   -1.6602 O.3        1 <1>        0.000
     20 O4         -5.7952   -4.3574   -0.1893 O.2        1 <1>        0.000
     21 H           0.5008   -0.5934   -1.1977 H.spc      1 <1>        0.000
     22 H           1.1511   -0.6132    1.5848 H.spc      1 <1>        0.000
     23 H           1.1258    1.7516   -1.3083 H.spc      1 <1>        0.000
     24 H           2.6338   -0.9125   -1.9106 H.spc      1 <1>        0.000
     25 H           2.8115   -1.6669   -0.2963 H.spc      1 <1>        0.000
     26 H          -0.9159   -0.0604    2.1114 H.spc      1 <1>        0.000
     27 H           0.4744   -2.5535    2.0103 H.spc      1 <1>        0.000
     28 H           1.1605   -2.7799    0.3169 H.spc      1 <1>        0.000
     29 H           3.2220    2.3770   -0.6119 H.spc      1 <1>        0.000
     30 H           2.9947    1.6786    1.0130 H.spc      1 <1>        0.000
     31 H           0.8045    1.9946    1.5647 H.spc      1 <1>        0.000
     32 H           0.3122    3.0380    0.2004 H.spc      1 <1>        0.000
     33 H          -3.3083    0.7730    0.0114 H.spc      1 <1>        0.000
     34 H          -2.7535   -0.4228   -1.2640 H.spc      1 <1>        0.000
     35 H           4.3218   -0.0583    0.3274 H.spc      1 <1>        0.000
     36 H           4.3374    0.5022   -1.2988 H.spc      1 <1>        0.000
     37 H          -2.5871   -0.7832    1.7427 H.spc      1 <1>        0.000
     38 H          -1.2232    1.3124   -0.5300 H.spc      1 <1>        0.000
     39 H          -1.5656    1.9082    1.1660 H.spc      1 <1>        0.000
     40 H          -0.8623   -4.0330    0.2596 H.spc      1 <1>        0.000
     41 H          -3.3256   -4.1106   -0.1237 H.spc      1 <1>        0.000
     42 H          -5.0439   -0.6214    0.6526 H.spc      1 <1>        0.000
     43 H          -5.0716   -0.5513   -1.1611 H.spc      1 <1>        0.000
     44 H          -6.0762   -1.9142   -1.9303 H.spc      1 <1>        0.000
@<TRIPOS>BOND
     1    1    3 1  
     2    1    2 1  
     3    2    5 1  
     4    1    4 1  
     5    2    6 1  
     6   18   20 2  
     7   18   19 1  
     8   17   18 1  
     9   16   17 1  
    10   15   17 2  
    11    9   16 1  
    12   14   15 1  
    13   13   14 2  
    14   11    9 1  
    15   11   14 1  
    16    8   12 1  
    17    7   10 1  
    18    6   13 1  
    19    5   12 1  
    20    5   11 1  
    21    4   10 1  
    22    3    8 1  
    23    3    7 1  
    24    1   21 1  
    25    2   22 1  
    26    3   23 1  
    27    4   24 1  
    28    4   25 1  
    29    5   26 1  
    30    6   27 1  
    31    6   28 1  
    32    7   29 1  
    33    7   30 1  
    34    8   31 1  
    35    8   32 1  
    36    9   33 1  
    37    9   34 1  
    38   10   35 1  
    39   10   36 1  
    40   11   37 1  
    41   12   38 1  
    42   12   39 1  
    43   13   40 1  
    44   15   41 1  
    45   16   42 1  
    46   16   43 1  
    47   19   44 1  
# Name:          frag5-665-67/138278 -- energy: -7.107387
# Creation time: Sat Jun  5 12:51:51 2010


@<TRIPOS>MOLECULE
frag5-665-67/138278 -- energy: -7.107387
   44    47     1     1     1
SMALL
USER_CHARGES


@<TRIPOS>ATOM
      1 C1          1.2037   -0.2635   -0.4586 C.3        1 <1>        0.000
      2 C2          0.4710   -0.8351    0.7746 C.3        1 <1>        0.000
      3 C3          1.4156    1.2808   -0.3662 C.3        1 <1>        0.000
      4 C4          2.5770   -0.7698   -0.8333 C.3        1 <1>        0.000
      5 C5         -0.8799   -0.0949    1.0119 C.3        1 <1>        0.000
      6 C6          0.3690   -2.3472    0.9692 C.3        1 <1>        0.000
      7 C7          2.8479    1.5464   -0.0225 C.3        1 <1>        0.000
      8 C8          0.4660    2.0016    0.5375 C.3        1 <1>        0.000
      9 C16        -3.1630   -0.2757   -0.3067 C.3        1 <1>        0.000
     10 C10         3.5631    0.2936   -0.4077 C.3        1 <1>        0.000
     11 C11        -2.1917   -0.8696    0.7117 C.3        1 <1>        0.000
     12 C12        -0.8658    1.3418    0.4739 C.3        1 <1>        0.000
     13 C13        -0.9001   -2.9589    0.5160 C.2        1 <1>        0.000
     14 C15        -2.0998   -2.3680    0.3818 C.2        1 <1>        0.000
     15 C18        -3.3196   -3.0289   -0.0547 C.2        1 <1>        0.000
     16 C19        -4.5282   -0.9132   -0.3027 C.3        1 <1>        0.000
     17 C22        -4.4804   -2.3983   -0.3423 C.2        1 <1>        0.000
     18 C27        -5.6207   -3.2204   -0.7558 C.2        1 <1>        0.000
     19 O3         -5.9040   -4.3082   -0.0369 O.3        1 <1>        0.000
     20 O4         -6.3032   -2.8675   -1.7014 O.2        1 <1>        0.000
     21 H           0.4989   -0.6142   -1.2125 H.spc      1 <1>        0.000
     22 H           1.1779   -0.6125    1.5739 H.spc      1 <1>        0.000
     23 H           1.1798    1.6976   -1.3454 H.spc      1 <1>        0.000
     24 H           2.6436   -0.9544   -1.9055 H.spc      1 <1>        0.000
     25 H           2.7900   -1.7173   -0.3384 H.spc      1 <1>        0.000
     26 H          -0.9285   -0.0365    2.0992 H.spc      1 <1>        0.000
     27 H           0.4377   -2.5292    2.0417 H.spc      1 <1>        0.000
     28 H           1.1622   -2.7933    0.3693 H.spc      1 <1>        0.000
     29 H           3.2391    2.4181   -0.5471 H.spc      1 <1>        0.000
     30 H           2.9776    1.7827    1.0336 H.spc      1 <1>        0.000
     31 H           0.8406    1.9716    1.5607 H.spc      1 <1>        0.000
     32 H           0.3753    3.0402    0.2194 H.spc      1 <1>        0.000
     33 H          -3.2977    0.7746   -0.0481 H.spc      1 <1>        0.000
     34 H          -2.7338   -0.4410   -1.2949 H.spc      1 <1>        0.000
     35 H           4.1274   -0.0702    0.4510 H.spc      1 <1>        0.000
     36 H           4.2321    0.5097   -1.2407 H.spc      1 <1>        0.000
     37 H          -2.5855   -0.7419    1.7200 H.spc      1 <1>        0.000
     38 H          -1.1527    1.2954   -0.5766 H.spc      1 <1>        0.000
     39 H          -1.5447    1.9255    1.0956 H.spc      1 <1>        0.000
     40 H          -0.8566   -4.0175    0.2599 H.spc      1 <1>        0.000
     41 H          -3.2962   -4.1138   -0.1577 H.spc      1 <1>        0.000
     42 H          -5.0258   -0.6231    0.6227 H.spc      1 <1>        0.000
     43 H          -5.0533   -0.5755   -1.1962 H.spc      1 <1>        0.000
     44 H          -5.2493   -4.4108    0.6577 H.spc      1 <1>        0.000
@<TRIPOS>BOND
     1    1    3 1  
     2    1    2 1  
     3    2    5 1  
     4    1    4 1  
     5    2    6 1  
     6   18   20 2  
     7   18   19 1  
     8   17   18 1  
     9   16   17 1  
    10   15   17 2  
    11    9   16 1  
    12   14   15 1  
    13   13   14 2  
    14   11    9 1  
    15   11   14 1  
    16    8   12 1  
    17    7   10 1  
    18    6   13 1  
    19    5   12 1  
    20    5   11 1  
    21    4   10 1  
    22    3    8 1  
    23    3    7 1  
    24    1   21 1  
    25    2   22 1  
    26    3   23 1  
    27    4   24 1  
    28    4   25 1  
    29    5   26 1  
    30    6   27 1  
    31    6   28 1  
    32    7   29 1  
    33    7   30 1  
    34    8   31 1  
    35    8   32 1  
    36    9   33 1  
    37    9   34 1  
    38   10   35 1  
    39   10   36 1  
    40   11   37 1  
    41   12   38 1  
    42   12   39 1  
    43   13   40 1  
    44   15   41 1  
    45   16   42 1  
    46   16   43 1  
    47   19   44 1  
# Name:          frag5-665-67/138278 -- energy: -6.329720
# Creation time: Sat Jun  5 12:51:51 2010


@<TRIPOS>MOLECULE
frag5-665-67/138278 -- energy: -6.329720
   44    47     1     1     1
SMALL
USER_CHARGES


@<TRIPOS>ATOM
      1 C1          1.2034   -0.2372   -0.4443 C.3        1 <1>        0.000
      2 C2          0.4579   -0.8325    0.7727 C.3        1 <1>        0.000
      3 C3          1.3897    1.2852   -0.3591 C.3        1 <1>        0.000
      4 C4          2.6052   -0.7417   -0.8344 C.3        1 <1>        0.000
      5 C5         -0.8897   -0.1057    1.0227 C.3        1 <1>        0.000
      6 C6          0.3772   -2.3531    0.9433 C.3        1 <1>        0.000
      7 C7          2.8673    1.5090   -0.0562 C.3        1 <1>        0.000
      8 C8          0.4214    2.0095    0.5443 C.3        1 <1>        0.000
      9 C16        -3.1764   -0.2715   -0.2708 C.3        1 <1>        0.000
     10 C10         3.6639    0.2913   -0.4682 C.3        1 <1>        0.000
     11 C11        -2.1958   -0.8843    0.7304 C.3        1 <1>        0.000
     12 C12        -0.9031    1.3417    0.5115 C.3        1 <1>        0.000
     13 C13        -0.9009   -2.9724    0.5083 C.2        1 <1>        0.000
     14 C15        -2.0970   -2.3779    0.3860 C.2        1 <1>        0.000
     15 C18        -3.3335   -3.0241   -0.0373 C.2        1 <1>        0.000
     16 C19        -4.5440   -0.9023   -0.2743 C.3        1 <1>        0.000
     17 C22        -4.4925   -2.3851   -0.3324 C.2        1 <1>        0.000
     18 C27        -5.6026   -3.2691   -0.7046 C.2        1 <1>        0.000
     19 O3         -6.3982   -2.7773   -1.6602 O.3        1 <1>        0.000
     20 O4         -5.7952   -4.3574   -0.1893 O.2        1 <1>        0.000
     21 H           0.5008   -0.5934   -1.1977 H.spc      1 <1>        0.000
     22 H           1.1511   -0.6132    1.5848 H.spc      1 <1>        0.000
     23 H           1.1258    1.7516   -1.3083 H.spc      1 <1>        0.000
     24 H           2.6338   -0.9125   -1.9106 H.spc      1 <1>        0.000
     25 H           2.8115   -1.6669   -0.2963 H.spc      1 <1>        0.000
     26 H          -0.9159   -0.0604    2.1114 H.spc      1 <1>        0.000
     27 H           0.4744   -2.5535    2.0103 H.spc      1 <1>        0.000
     28 H           1.1605   -2.7799    0.3169 H.spc      1 <1>        0.000
     29 H           3.2220    2.3770   -0.6119 H.spc      1 <1>        0.000
     30 H           2.9947    1.6786    1.0130 H.spc      1 <1>        0.000
     31 H           0.8045    1.9946    1.5647 H.spc      1 <1>        0.000
     32 H           0.3122    3.0380    0.2004 H.spc      1 <1>        0.000
     33 H          -3.3083    0.7730    0.0114 H.spc      1 <1>        0.000
     34 H          -2.7535   -0.4228   -1.2640 H.spc      1 <1>        0.000
     35 H           4.3218   -0.0583    0.3274 H.spc      1 <1>        0.000
     36 H           4.3374    0.5022   -1.2988 H.spc      1 <1>        0.000
     37 H          -2.5871   -0.7832    1.7427 H.spc      1 <1>        0.000
     38 H          -1.2232    1.3124   -0.5300 H.spc      1 <1>        0.000
     39 H          -1.5656    1.9082    1.1660 H.spc      1 <1>        0.000
     40 H          -0.8623   -4.0330    0.2596 H.spc      1 <1>        0.000
     41 H          -3.3256   -4.1106   -0.1237 H.spc      1 <1>        0.000
     42 H          -5.0439   -0.6214    0.6526 H.spc      1 <1>        0.000
     43 H          -5.0716   -0.5513   -1.1611 H.spc      1 <1>        0.000
     44 H          -6.0762   -1.9142   -1.9303 H.spc      1 <1>        0.000
@<TRIPOS>BOND
     1    1    3 1  
     2    1    2 1  
     3    2    5 1  
     4    1    4 1  
     5    2    6 1  
     6   18   20 2  
     7   18   19 1  
     8   17   18 1  
     9   16   17 1  
    10   15   17 2  
    11    9   16 1  
    12   14   15 1  
    13   13   14 2  
    14   11    9 1  
    15   11   14 1  
    16    8   12 1  
    17    7   10 1  
    18    6   13 1  
    19    5   12 1  
    20    5   11 1  
    21    4   10 1  
    22    3    8 1  
    23    3    7 1  
    24    1   21 1  
    25    2   22 1  
    26    3   23 1  
    27    4   24 1  
    28    4   25 1  
    29    5   26 1  
    30    6   27 1  
    31    6   28 1  
    32    7   29 1  
    33    7   30 1  
    34    8   31 1  
    35    8   32 1  
    36    9   33 1  
    37    9   34 1  
    38   10   35 1  
    39   10   36 1  
    40   11   37 1  
    41   12   38 1  
    42   12   39 1  
    43   13   40 1  
    44   15   41 1  
    45   16   42 1  
    46   16   43 1  
    47   19   44 1  
