#      Rotatable Fragment
#      Build by yxyuan
#
# Name:          frag5-638-83/138278
# Creation time: Sat Jun  5 12:53:49 2010


@<TRIPOS>MOLECULE
frag5-638-83/138278
   18    18     1     1     1
SMALL
USER_CHARGES


@<TRIPOS>ATOM
      1 N1         -1.1661    0.1348   -0.3319 N.am       1 <1>        0.000
      2 S1         -0.1558   -0.6648    0.5705 S.o2       1 <1>        0.000
      3 C10         1.1594    0.3991    0.4878 C.ar       1 <1>        0.000
      4 O1         -0.7013   -0.6449    1.8980 O.2        1 <1>        0.000
      5 O2          0.0917   -1.8638   -0.1769 O.2        1 <1>        0.000
      6 C15         1.2061    1.7968    0.3041 C.ar       1 <1>        0.000
      7 C16         2.4022   -0.1476    0.3582 C.ar       1 <1>        0.000
      8 C18         2.4105    2.5235    0.2921 C.ar       1 <1>        0.000
      9 C19         3.5748    0.5639    0.3707 C.ar       1 <1>        0.000
     10 C21         3.6713    1.9431    0.2977 C.ar       1 <1>        0.000
     11 O6          4.8094    2.6057    0.2736 O.3        1 <1>        0.000
     12 H          -2.0084    0.5375    0.0789 H.spc      1 <1>        0.000
     13 H          -0.9789    0.2506   -1.3279 H.spc      1 <1>        0.000
     14 H           0.2694    2.3366    0.1656 H.spc      1 <1>        0.000
     15 H           2.4684   -1.2287    0.2358 H.spc      1 <1>        0.000
     16 H           2.3498    3.6117    0.2775 H.spc      1 <1>        0.000
     17 H           4.5040   -0.0011    0.4439 H.spc      1 <1>        0.000
     18 H           5.5407    1.9839    0.2839 H.spc      1 <1>        0.000
@<TRIPOS>BOND
     1    6    8 ar 
     2    7    9 ar 
     3    8   10 ar 
     4   10   11 1  
     5    9   10 ar 
     6    1    2 1  
     7    2    3 1  
     8    2    4 2  
     9    2    5 2  
    10    3    6 ar 
    11    3    7 ar 
    12    1   12 1  
    13    1   13 1  
    14    6   14 1  
    15    7   15 1  
    16    8   16 1  
    17    9   17 1  
    18   11   18 1  
# Name:          frag5-638-83/138278
# Creation time: Sat Jun  5 12:53:49 2010


@<TRIPOS>MOLECULE
frag5-638-83/138278
   18    18     1     1     1
SMALL
USER_CHARGES


@<TRIPOS>ATOM
      1 N1         -0.8923   -0.2714   -0.7079 N.am       1 <1>        0.000
      2 S1         -0.1868   -0.6283    0.6536 S.o2       1 <1>        0.000
      3 C10         1.2278    0.3013    0.4536 C.ar       1 <1>        0.000
      4 O1         -1.0353   -0.0528    1.6650 O.2        1 <1>        0.000
      5 O2          0.1346   -2.0254    0.5153 O.2        1 <1>        0.000
      6 C15         2.3290    0.0015   -0.3588 C.ar       1 <1>        0.000
      7 C16         1.2766    1.6431    0.8121 C.ar       1 <1>        0.000
      8 C18         3.5190    0.7394   -0.3192 C.ar       1 <1>        0.000
      9 C19         2.4586    2.3752    0.8797 C.ar       1 <1>        0.000
     10 C21         3.6651    1.9526    0.3381 C.ar       1 <1>        0.000
     11 O6          4.8058    2.6107    0.4125 O.3        1 <1>        0.000
     12 H          -1.7621    0.2613   -0.7073 H.spc      1 <1>        0.000
     13 H          -0.4795   -0.5729   -1.5906 H.spc      1 <1>        0.000
     14 H           2.2570   -0.8391   -1.0489 H.spc      1 <1>        0.000
     15 H           0.3412    2.1482    1.0527 H.spc      1 <1>        0.000
     16 H           4.3872    0.3339   -0.8388 H.spc      1 <1>        0.000
     17 H           2.4355    3.3388    1.3887 H.spc      1 <1>        0.000
     18 H           4.6750    3.4202    0.9118 H.spc      1 <1>        0.000
@<TRIPOS>BOND
     1    6    8 ar 
     2    7    9 ar 
     3    8   10 ar 
     4   10   11 1  
     5    9   10 ar 
     6    1    2 1  
     7    2    3 1  
     8    2    4 2  
     9    2    5 2  
    10    3    6 ar 
    11    3    7 ar 
    12    1   12 1  
    13    1   13 1  
    14    6   14 1  
    15    7   15 1  
    16    8   16 1  
    17    9   17 1  
    18   11   18 1  
# Name:          frag5-638-83/138278 -- energy: -0.732331
# Creation time: Sat Jun  5 12:53:49 2010


@<TRIPOS>MOLECULE
frag5-638-83/138278 -- energy: -0.732331
   18    18     1     1     1
SMALL
USER_CHARGES


@<TRIPOS>ATOM
      1 N1         -1.1661    0.1348   -0.3319 N.am       1 <1>        0.000
      2 S1         -0.1558   -0.6648    0.5705 S.o2       1 <1>        0.000
      3 C10         1.1594    0.3991    0.4878 C.ar       1 <1>        0.000
      4 O1         -0.7013   -0.6449    1.8980 O.2        1 <1>        0.000
      5 O2          0.0917   -1.8638   -0.1769 O.2        1 <1>        0.000
      6 C15         1.2061    1.7968    0.3041 C.ar       1 <1>        0.000
      7 C16         2.4022   -0.1476    0.3582 C.ar       1 <1>        0.000
      8 C18         2.4105    2.5235    0.2921 C.ar       1 <1>        0.000
      9 C19         3.5748    0.5639    0.3707 C.ar       1 <1>        0.000
     10 C21         3.6713    1.9431    0.2977 C.ar       1 <1>        0.000
     11 O6          4.8094    2.6057    0.2736 O.3        1 <1>        0.000
     12 H          -2.0084    0.5375    0.0789 H.spc      1 <1>        0.000
     13 H          -0.9789    0.2506   -1.3279 H.spc      1 <1>        0.000
     14 H           0.2694    2.3366    0.1656 H.spc      1 <1>        0.000
     15 H           2.4684   -1.2287    0.2358 H.spc      1 <1>        0.000
     16 H           2.3498    3.6117    0.2775 H.spc      1 <1>        0.000
     17 H           4.5040   -0.0011    0.4439 H.spc      1 <1>        0.000
     18 H           5.5407    1.9839    0.2839 H.spc      1 <1>        0.000
@<TRIPOS>BOND
     1    6    8 ar 
     2    7    9 ar 
     3    8   10 ar 
     4   10   11 1  
     5    9   10 ar 
     6    1    2 1  
     7    2    3 1  
     8    2    4 2  
     9    2    5 2  
    10    3    6 ar 
    11    3    7 ar 
    12    1   12 1  
    13    1   13 1  
    14    6   14 1  
    15    7   15 1  
    16    8   16 1  
    17    9   17 1  
    18   11   18 1  
# Name:          frag5-638-83/138278 -- energy: -0.875914
# Creation time: Sat Jun  5 12:53:49 2010


@<TRIPOS>MOLECULE
frag5-638-83/138278 -- energy: -0.875914
   18    18     1     1     1
SMALL
USER_CHARGES


@<TRIPOS>ATOM
      1 N1         -0.8923   -0.2714   -0.7079 N.am       1 <1>        0.000
      2 S1         -0.1868   -0.6283    0.6536 S.o2       1 <1>        0.000
      3 C10         1.2278    0.3013    0.4536 C.ar       1 <1>        0.000
      4 O1         -1.0353   -0.0528    1.6650 O.2        1 <1>        0.000
      5 O2          0.1346   -2.0254    0.5153 O.2        1 <1>        0.000
      6 C15         2.3290    0.0015   -0.3588 C.ar       1 <1>        0.000
      7 C16         1.2766    1.6431    0.8121 C.ar       1 <1>        0.000
      8 C18         3.5190    0.7394   -0.3192 C.ar       1 <1>        0.000
      9 C19         2.4586    2.3752    0.8797 C.ar       1 <1>        0.000
     10 C21         3.6651    1.9526    0.3381 C.ar       1 <1>        0.000
     11 O6          4.8058    2.6107    0.4125 O.3        1 <1>        0.000
     12 H          -1.7621    0.2613   -0.7073 H.spc      1 <1>        0.000
     13 H          -0.4795   -0.5729   -1.5906 H.spc      1 <1>        0.000
     14 H           2.2570   -0.8391   -1.0489 H.spc      1 <1>        0.000
     15 H           0.3412    2.1482    1.0527 H.spc      1 <1>        0.000
     16 H           4.3872    0.3339   -0.8388 H.spc      1 <1>        0.000
     17 H           2.4355    3.3388    1.3887 H.spc      1 <1>        0.000
     18 H           4.6750    3.4202    0.9118 H.spc      1 <1>        0.000
@<TRIPOS>BOND
     1    6    8 ar 
     2    7    9 ar 
     3    8   10 ar 
     4   10   11 1  
     5    9   10 ar 
     6    1    2 1  
     7    2    3 1  
     8    2    4 2  
     9    2    5 2  
    10    3    6 ar 
    11    3    7 ar 
    12    1   12 1  
    13    1   13 1  
    14    6   14 1  
    15    7   15 1  
    16    8   16 1  
    17    9   17 1  
    18   11   18 1  
