#      Rotatable Fragment
#      Build by yxyuan
#
# Name:          frag4-440-122/150395
# Creation time: Sat Jun  5 12:53:35 2010


@<TRIPOS>MOLECULE
frag4-440-122/150395
   16    17     1     1     1
SMALL
USER_CHARGES


@<TRIPOS>ATOM
      1 C1          0.0034   -0.7157   -0.0608 C.ar       1 <1>        0.000
      2 C2         -0.0356    0.7175    0.0499 C.ar       1 <1>        0.000
      3 C3          1.2418   -1.3564   -0.0911 C.ar       1 <1>        0.000
      4 N1         -1.2240   -1.4072   -0.1298 N.ar       1 <1>        0.000
      5 C4          1.1692    1.4173    0.1393 C.ar       1 <1>        0.000
      6 N2         -1.2969    1.3458    0.0657 N.ar       1 <1>        0.000
      7 C5          2.4301   -0.6326    0.0101 C.ar       1 <1>        0.000
      8 C6         -2.3141   -0.7542   -0.0909 C.ar       1 <1>        0.000
      9 C7          2.3934    0.7501    0.1189 C.ar       1 <1>        0.000
     10 C8         -2.3512    0.6399   -0.0216 C.ar       1 <1>        0.000
     11 H           1.2819   -2.4406   -0.1956 H.spc      1 <1>        0.000
     12 H           1.1525    2.5037    0.2265 H.spc      1 <1>        0.000
     13 H           3.3876   -1.1534    0.0037 H.spc      1 <1>        0.000
     14 H          -3.2554   -1.3034   -0.1125 H.spc      1 <1>        0.000
     15 H           3.3227    1.3155    0.1885 H.spc      1 <1>        0.000
     16 H          -3.3188    1.1413   -0.0431 H.spc      1 <1>        0.000
@<TRIPOS>BOND
     1    5    9 ar 
     2    7    9 ar 
     3    8   10 ar 
     4    6   10 ar 
     5    1    2 ar 
     6    1    4 ar 
     7    1    3 ar 
     8    2    6 ar 
     9    2    5 ar 
    10    3    7 ar 
    11    4    8 ar 
    12    3   11 1  
    13    5   12 1  
    14    7   13 1  
    15    8   14 1  
    16    9   15 1  
    17   10   16 1  
# Name:          frag4-440-122/150395 -- energy: 0.195254
# Creation time: Sat Jun  5 12:53:35 2010


@<TRIPOS>MOLECULE
frag4-440-122/150395 -- energy: 0.195254
   16    17     1     1     1
SMALL
USER_CHARGES


@<TRIPOS>ATOM
      1 C1          0.0034   -0.7157   -0.0608 C.ar       1 <1>        0.000
      2 C2         -0.0356    0.7175    0.0499 C.ar       1 <1>        0.000
      3 C3          1.2418   -1.3564   -0.0911 C.ar       1 <1>        0.000
      4 N1         -1.2240   -1.4072   -0.1298 N.ar       1 <1>        0.000
      5 C4          1.1692    1.4173    0.1393 C.ar       1 <1>        0.000
      6 N2         -1.2969    1.3458    0.0657 N.ar       1 <1>        0.000
      7 C5          2.4301   -0.6326    0.0101 C.ar       1 <1>        0.000
      8 C6         -2.3141   -0.7542   -0.0909 C.ar       1 <1>        0.000
      9 C7          2.3934    0.7501    0.1189 C.ar       1 <1>        0.000
     10 C8         -2.3512    0.6399   -0.0216 C.ar       1 <1>        0.000
     11 H           1.2819   -2.4406   -0.1956 H.spc      1 <1>        0.000
     12 H           1.1525    2.5037    0.2265 H.spc      1 <1>        0.000
     13 H           3.3876   -1.1534    0.0037 H.spc      1 <1>        0.000
     14 H          -3.2554   -1.3034   -0.1125 H.spc      1 <1>        0.000
     15 H           3.3227    1.3155    0.1885 H.spc      1 <1>        0.000
     16 H          -3.3188    1.1413   -0.0431 H.spc      1 <1>        0.000
@<TRIPOS>BOND
     1    5    9 ar 
     2    7    9 ar 
     3    8   10 ar 
     4    6   10 ar 
     5    1    2 ar 
     6    1    4 ar 
     7    1    3 ar 
     8    2    6 ar 
     9    2    5 ar 
    10    3    7 ar 
    11    4    8 ar 
    12    3   11 1  
    13    5   12 1  
    14    7   13 1  
    15    8   14 1  
    16    9   15 1  
    17   10   16 1  
