#      Rotatable Fragment
#      Build by yxyuan
#
# Name:          frag4-308-1125/150395
# Creation time: Sat Jun  5 12:53:30 2010


@<TRIPOS>MOLECULE
frag4-308-1125/150395
   10    10     1     1     1
SMALL
USER_CHARGES


@<TRIPOS>ATOM
      1 C3          1.0659   -0.5687   -0.0061 C.2        1 <1>        0.000
      2 C5          0.6440    0.8393   -0.0483 C.2        1 <1>        0.000
      3 O2          0.1190   -1.4360   -0.0887 O.3        1 <1>        0.000
      4 C8         -0.6946    0.6389   -0.0644 C.2        1 <1>        0.000
      5 C9         -1.0562   -0.7922   -0.0836 C.3        1 <1>        0.000
      6 H           2.1123   -0.8587    0.0889 H.spc      1 <1>        0.000
      7 H           1.2282    1.7594   -0.0623 H.spc      1 <1>        0.000
      8 H          -1.4263    1.4468   -0.0633 H.spc      1 <1>        0.000
      9 H          -1.6700   -1.0697    0.7734 H.spc      1 <1>        0.000
     10 H          -1.6654   -1.0477   -0.9506 H.spc      1 <1>        0.000
@<TRIPOS>BOND
     1    1    2 1  
     2    1    3 2  
     3    2    4 2  
     4    3    5 1  
     5    4    5 1  
     6    1    6 1  
     7    2    7 1  
     8    4    8 1  
     9    5    9 1  
    10    5   10 1  
# Name:          frag4-308-1125/150395 -- energy: -0.344820
# Creation time: Sat Jun  5 12:53:30 2010


@<TRIPOS>MOLECULE
frag4-308-1125/150395 -- energy: -0.344820
   10    10     1     1     1
SMALL
USER_CHARGES


@<TRIPOS>ATOM
      1 C3          1.0659   -0.5687   -0.0061 C.2        1 <1>        0.000
      2 C5          0.6440    0.8393   -0.0483 C.2        1 <1>        0.000
      3 O2          0.1190   -1.4360   -0.0887 O.3        1 <1>        0.000
      4 C8         -0.6946    0.6389   -0.0644 C.2        1 <1>        0.000
      5 C9         -1.0562   -0.7922   -0.0836 C.3        1 <1>        0.000
      6 H           2.1123   -0.8587    0.0889 H.spc      1 <1>        0.000
      7 H           1.2282    1.7594   -0.0623 H.spc      1 <1>        0.000
      8 H          -1.4263    1.4468   -0.0633 H.spc      1 <1>        0.000
      9 H          -1.6700   -1.0697    0.7734 H.spc      1 <1>        0.000
     10 H          -1.6654   -1.0477   -0.9506 H.spc      1 <1>        0.000
@<TRIPOS>BOND
     1    1    2 1  
     2    1    3 2  
     3    2    4 2  
     4    3    5 1  
     5    4    5 1  
     6    1    6 1  
     7    2    7 1  
     8    4    8 1  
     9    5    9 1  
    10    5   10 1  
