#      Rotatable Fragment
#      Build by yxyuan
#
# Name:          frag4-366-306/150395
# Creation time: Sat Jun  5 12:53:32 2010


@<TRIPOS>MOLECULE
frag4-366-306/150395
   17    18     1     1     1
SMALL
USER_CHARGES


@<TRIPOS>ATOM
      1 N1         -1.3836   -1.2318    0.1005 N.pl3      1 <1>        0.000
      2 C1         -0.0596   -0.7354    0.0706 C.ar       1 <1>        0.000
      3 C2         -2.4183   -0.1712   -0.0305 C.3        1 <1>        0.000
      4 C4         -0.1656    0.7341   -0.0632 C.ar       1 <1>        0.000
      5 C5          1.1956   -1.3334    0.1421 C.ar       1 <1>        0.000
      6 N2         -1.5486    1.0368   -0.0945 N.pl3      1 <1>        0.000
      7 C7          0.9997    1.4883   -0.1316 C.ar       1 <1>        0.000
      8 C8          2.3474   -0.5500    0.0825 C.ar       1 <1>        0.000
      9 C10         2.2481    0.8665   -0.0526 C.ar       1 <1>        0.000
     10 H          -1.6074   -2.2217    0.2021 H.spc      1 <1>        0.000
     11 H          -3.1502   -0.1555    0.7771 H.spc      1 <1>        0.000
     12 H          -3.0809   -0.2935   -0.8873 H.spc      1 <1>        0.000
     13 H           1.2780   -2.4154    0.2448 H.spc      1 <1>        0.000
     14 H          -1.9132    1.9875   -0.1549 H.spc      1 <1>        0.000
     15 H           0.9392    2.5704   -0.2475 H.spc      1 <1>        0.000
     16 H           3.3282   -1.0221    0.1394 H.spc      1 <1>        0.000
     17 H           3.1551    1.4696   -0.0946 H.spc      1 <1>        0.000
@<TRIPOS>BOND
     1    7    9 ar 
     2    8    9 ar 
     3    1    2 1  
     4    1    3 1  
     5    2    4 ar 
     6    2    5 ar 
     7    3    6 1  
     8    4    7 ar 
     9    4    6 1  
    10    5    8 ar 
    11    1   10 1  
    12    3   11 1  
    13    3   12 1  
    14    5   13 1  
    15    6   14 1  
    16    7   15 1  
    17    8   16 1  
    18    9   17 1  
# Name:          frag4-366-306/150395 -- energy: -0.745033
# Creation time: Sat Jun  5 12:53:32 2010


@<TRIPOS>MOLECULE
frag4-366-306/150395 -- energy: -0.745033
   17    18     1     1     1
SMALL
USER_CHARGES


@<TRIPOS>ATOM
      1 N1         -1.3836   -1.2318    0.1005 N.pl3      1 <1>        0.000
      2 C1         -0.0596   -0.7354    0.0706 C.ar       1 <1>        0.000
      3 C2         -2.4183   -0.1712   -0.0305 C.3        1 <1>        0.000
      4 C4         -0.1656    0.7341   -0.0632 C.ar       1 <1>        0.000
      5 C5          1.1956   -1.3334    0.1421 C.ar       1 <1>        0.000
      6 N2         -1.5486    1.0368   -0.0945 N.pl3      1 <1>        0.000
      7 C7          0.9997    1.4883   -0.1316 C.ar       1 <1>        0.000
      8 C8          2.3474   -0.5500    0.0825 C.ar       1 <1>        0.000
      9 C10         2.2481    0.8665   -0.0526 C.ar       1 <1>        0.000
     10 H          -1.6074   -2.2217    0.2021 H.spc      1 <1>        0.000
     11 H          -3.1502   -0.1555    0.7771 H.spc      1 <1>        0.000
     12 H          -3.0809   -0.2935   -0.8873 H.spc      1 <1>        0.000
     13 H           1.2780   -2.4154    0.2448 H.spc      1 <1>        0.000
     14 H          -1.9132    1.9875   -0.1549 H.spc      1 <1>        0.000
     15 H           0.9392    2.5704   -0.2475 H.spc      1 <1>        0.000
     16 H           3.3282   -1.0221    0.1394 H.spc      1 <1>        0.000
     17 H           3.1551    1.4696   -0.0946 H.spc      1 <1>        0.000
@<TRIPOS>BOND
     1    7    9 ar 
     2    8    9 ar 
     3    1    2 1  
     4    1    3 1  
     5    2    4 ar 
     6    2    5 ar 
     7    3    6 1  
     8    4    7 ar 
     9    4    6 1  
    10    5    8 ar 
    11    1   10 1  
    12    3   11 1  
    13    3   12 1  
    14    5   13 1  
    15    6   14 1  
    16    7   15 1  
    17    8   16 1  
    18    9   17 1  
