#      Rotatable Fragment
#      Build by yxyuan
#
# Name:          frag4-435-47/48856
# Creation time: Sat Jun  5 12:52:47 2010


@<TRIPOS>MOLECULE
frag4-435-47/48856
   10    10     1     1     1
SMALL
USER_CHARGES


@<TRIPOS>ATOM
      1 C7          0.7115   -0.2737   -1.0020 C.2        1 <1>        0.000
      2 N3          1.1998    0.2757    0.0487 N.2        1 <1>        0.000
      3 C8          2.0014    1.4098   -0.3190 C.3        1 <1>        0.000
      4 C9          1.5413    1.9133   -1.7176 C.3        1 <1>        0.000
      5 S2          1.0564    0.4139   -2.5802 S.3        1 <1>        0.000
      6 H           0.0861   -1.1622   -0.9159 H.spc      1 <1>        0.000
      7 H           3.0526    1.1240   -0.3557 H.spc      1 <1>        0.000
      8 H           1.8807    2.2034    0.4184 H.spc      1 <1>        0.000
      9 H           2.3285    2.4555   -2.2414 H.spc      1 <1>        0.000
     10 H           0.7260    2.6336   -1.6501 H.spc      1 <1>        0.000
@<TRIPOS>BOND
     1    1    2 2  
     2    1    5 1  
     3    2    3 1  
     4    3    4 1  
     5    4    5 1  
     6    1    6 1  
     7    3    7 1  
     8    3    8 1  
     9    4    9 1  
    10    4   10 1  
# Name:          frag4-435-47/48856 -- energy: -0.373075
# Creation time: Sat Jun  5 12:52:47 2010


@<TRIPOS>MOLECULE
frag4-435-47/48856 -- energy: -0.373075
   10    10     1     1     1
SMALL
USER_CHARGES


@<TRIPOS>ATOM
      1 C7          0.7115   -0.2737   -1.0020 C.2        1 <1>        0.000
      2 N3          1.1998    0.2757    0.0487 N.2        1 <1>        0.000
      3 C8          2.0014    1.4098   -0.3190 C.3        1 <1>        0.000
      4 C9          1.5413    1.9133   -1.7176 C.3        1 <1>        0.000
      5 S2          1.0564    0.4139   -2.5802 S.3        1 <1>        0.000
      6 H           0.0861   -1.1622   -0.9159 H.spc      1 <1>        0.000
      7 H           3.0526    1.1240   -0.3557 H.spc      1 <1>        0.000
      8 H           1.8807    2.2034    0.4184 H.spc      1 <1>        0.000
      9 H           2.3285    2.4555   -2.2414 H.spc      1 <1>        0.000
     10 H           0.7260    2.6336   -1.6501 H.spc      1 <1>        0.000
@<TRIPOS>BOND
     1    1    2 2  
     2    1    5 1  
     3    2    3 1  
     4    3    4 1  
     5    4    5 1  
     6    1    6 1  
     7    3    7 1  
     8    3    8 1  
     9    4    9 1  
    10    4   10 1  
