#      Rotatable Fragment
#      Build by yxyuan
#
# Name:          frag5-636-28/41815
# Creation time: Sat Jun  5 12:53:00 2010


@<TRIPOS>MOLECULE
frag5-636-28/41815
   29    32     1     1     1
SMALL
USER_CHARGES


@<TRIPOS>ATOM
      1 O1          4.7409   -0.8587   -1.9693 O.3        1 <1>        0.000
      2 C1          5.6926   -1.0836   -0.8901 C.3        1 <1>        0.000
      3 O2          5.4871   -0.1907    0.2418 O.3        1 <1>        0.000
      4 C2          4.1682    0.1144    0.0259 C.ar       1 <1>        0.000
      5 C3          3.7405   -0.2682   -1.2414 C.ar       1 <1>        0.000
      6 C4          2.4383   -0.0447   -1.6540 C.ar       1 <1>        0.000
      7 C5          1.5479    0.5818   -0.7764 C.ar       1 <1>        0.000
      8 C6          1.9839    0.9675    0.5235 C.ar       1 <1>        0.000
      9 C21        -1.4993    2.3164    1.7582 C.3        1 <1>        0.000
     10 C7          3.3053    0.7309    0.9156 C.ar       1 <1>        0.000
     11 C8          1.0464    1.6445    1.5235 C.3        1 <1>        0.000
     12 C9         -0.4188    1.4456    1.1038 C.3        1 <1>        0.000
     13 C10        -0.5742    1.8682   -0.3620 C.3        1 <1>        0.000
     14 C11         0.1169    0.8300   -1.2572 C.3        1 <1>        0.000
     15 C20        -2.0686    2.0009   -0.3911 C.2        1 <1>        0.000
     16 O6         -2.5875    2.2170    0.8305 O.3        1 <1>        0.000
     17 O7         -2.7463    1.8946   -1.4007 O.2        1 <1>        0.000
     18 H           5.5593   -2.1059   -0.5362 H.spc      1 <1>        0.000
     19 H           6.6920   -0.8980   -1.2835 H.spc      1 <1>        0.000
     20 H           2.1120   -0.3522   -2.6475 H.spc      1 <1>        0.000
     21 H          -1.7640    1.9835    2.7618 H.spc      1 <1>        0.000
     22 H          -1.1748    3.3435    1.9249 H.spc      1 <1>        0.000
     23 H           3.6503    1.0273    1.9062 H.spc      1 <1>        0.000
     24 H           1.1971    1.2010    2.5077 H.spc      1 <1>        0.000
     25 H           1.2664    2.7117    1.5499 H.spc      1 <1>        0.000
     26 H          -0.5771    0.4028    1.3787 H.spc      1 <1>        0.000
     27 H          -0.1055    2.7789   -0.7348 H.spc      1 <1>        0.000
     28 H           0.1455    1.2053   -2.2802 H.spc      1 <1>        0.000
     29 H          -0.4406   -0.1056   -1.2124 H.spc      1 <1>        0.000
@<TRIPOS>BOND
     1   16    9 1  
     2   15   16 1  
     3    5    6 ar 
     4   15   17 2  
     5    3    4 1  
     6   13   15 1  
     7    1    5 1  
     8   13   14 1  
     9   12    9 1  
    10    4   10 ar 
    11    8   10 ar 
    12    2    3 1  
    13    7   14 1  
    14   11   12 1  
    15    7    8 ar 
    16    1    2 1  
    17    4    5 ar 
    18    6    7 ar 
    19    8   11 1  
    20   12   13 1  
    21    2   18 1  
    22    2   19 1  
    23    6   20 1  
    24    9   21 1  
    25    9   22 1  
    26   10   23 1  
    27   11   24 1  
    28   11   25 1  
    29   12   26 1  
    30   13   27 1  
    31   14   28 1  
    32   14   29 1  
# Name:          frag5-636-28/41815 -- energy: -3.456651
# Creation time: Sat Jun  5 12:53:00 2010


@<TRIPOS>MOLECULE
frag5-636-28/41815 -- energy: -3.456651
   29    32     1     1     1
SMALL
USER_CHARGES


@<TRIPOS>ATOM
      1 O1          4.7409   -0.8587   -1.9693 O.3        1 <1>        0.000
      2 C1          5.6926   -1.0836   -0.8901 C.3        1 <1>        0.000
      3 O2          5.4871   -0.1907    0.2418 O.3        1 <1>        0.000
      4 C2          4.1682    0.1144    0.0259 C.ar       1 <1>        0.000
      5 C3          3.7405   -0.2682   -1.2414 C.ar       1 <1>        0.000
      6 C4          2.4383   -0.0447   -1.6540 C.ar       1 <1>        0.000
      7 C5          1.5479    0.5818   -0.7764 C.ar       1 <1>        0.000
      8 C6          1.9839    0.9675    0.5235 C.ar       1 <1>        0.000
      9 C21        -1.4993    2.3164    1.7582 C.3        1 <1>        0.000
     10 C7          3.3053    0.7309    0.9156 C.ar       1 <1>        0.000
     11 C8          1.0464    1.6445    1.5235 C.3        1 <1>        0.000
     12 C9         -0.4188    1.4456    1.1038 C.3        1 <1>        0.000
     13 C10        -0.5742    1.8682   -0.3620 C.3        1 <1>        0.000
     14 C11         0.1169    0.8300   -1.2572 C.3        1 <1>        0.000
     15 C20        -2.0686    2.0009   -0.3911 C.2        1 <1>        0.000
     16 O6         -2.5875    2.2170    0.8305 O.3        1 <1>        0.000
     17 O7         -2.7463    1.8946   -1.4007 O.2        1 <1>        0.000
     18 H           5.5593   -2.1059   -0.5362 H.spc      1 <1>        0.000
     19 H           6.6920   -0.8980   -1.2835 H.spc      1 <1>        0.000
     20 H           2.1120   -0.3522   -2.6475 H.spc      1 <1>        0.000
     21 H          -1.7640    1.9835    2.7618 H.spc      1 <1>        0.000
     22 H          -1.1748    3.3435    1.9249 H.spc      1 <1>        0.000
     23 H           3.6503    1.0273    1.9062 H.spc      1 <1>        0.000
     24 H           1.1971    1.2010    2.5077 H.spc      1 <1>        0.000
     25 H           1.2664    2.7117    1.5499 H.spc      1 <1>        0.000
     26 H          -0.5771    0.4028    1.3787 H.spc      1 <1>        0.000
     27 H          -0.1055    2.7789   -0.7348 H.spc      1 <1>        0.000
     28 H           0.1455    1.2053   -2.2802 H.spc      1 <1>        0.000
     29 H          -0.4406   -0.1056   -1.2124 H.spc      1 <1>        0.000
@<TRIPOS>BOND
     1   16    9 1  
     2   15   16 1  
     3    5    6 ar 
     4   15   17 2  
     5    3    4 1  
     6   13   15 1  
     7    1    5 1  
     8   13   14 1  
     9   12    9 1  
    10    4   10 ar 
    11    8   10 ar 
    12    2    3 1  
    13    7   14 1  
    14   11   12 1  
    15    7    8 ar 
    16    1    2 1  
    17    4    5 ar 
    18    6    7 ar 
    19    8   11 1  
    20   12   13 1  
    21    2   18 1  
    22    2   19 1  
    23    6   20 1  
    24    9   21 1  
    25    9   22 1  
    26   10   23 1  
    27   11   24 1  
    28   11   25 1  
    29   12   26 1  
    30   13   27 1  
    31   14   28 1  
    32   14   29 1  
