#      Rotatable Fragment
#      Build by yxyuan
#
# Name:          frag5-595-36/41815
# Creation time: Sat Jun  5 12:52:57 2010


@<TRIPOS>MOLECULE
frag5-595-36/41815
   24    24     1     1     1
SMALL
USER_CHARGES


@<TRIPOS>ATOM
      1 I1         -0.0120    3.7138   -0.7205 I          1 <1>        0.000
      2 C1          1.9529    3.2700   -0.3098 C.ar       1 <1>        0.000
      3 C2          2.5758    3.8844    0.7790 C.ar       1 <1>        0.000
      4 C3          3.9109    3.6001    1.0784 C.ar       1 <1>        0.000
      5 C4          4.6294    2.7022    0.2796 C.ar       1 <1>        0.000
      6 C5          4.0031    2.0809   -0.8085 C.ar       1 <1>        0.000
      7 C6          2.6631    2.3645   -1.1041 C.ar       1 <1>        0.000
      8 C7          1.9672    1.7095   -2.2766 C.2        1 <1>        0.000
      9 I3          4.7998    4.5106    2.6934 I          1 <1>        0.000
     10 O1          2.0925    2.2216   -3.3780 O.2        1 <1>        0.000
     11 N1          1.2251    0.5974   -2.0889 N.am       1 <1>        0.000
     12 I2          5.0517    0.7515   -1.9773 I          1 <1>        0.000
     13 C11         6.0790    2.4152    0.6080 C.2        1 <1>        0.000
     14 O4          6.3352    1.3961    1.2300 O.2        1 <1>        0.000
     15 N2          7.0431    3.2776    0.2234 N.am       1 <1>        0.000
     16 N3          1.8458    4.7994    1.5802 N.am       1 <1>        0.000
     17 C35         1.6559    6.0711    1.1695 C.2        1 <1>        0.000
     18 O16         2.0561    6.4883    0.0943 O.2        1 <1>        0.000
     19 H           0.7501    0.1618   -2.8795 H.spc      1 <1>        0.000
     20 H           1.1394    0.1928   -1.1565 H.spc      1 <1>        0.000
     21 H           8.0188    3.0866    0.4513 H.spc      1 <1>        0.000
     22 H           6.7961    4.1205   -0.2952 H.spc      1 <1>        0.000
     23 H           1.4612    4.4938    2.4741 H.spc      1 <1>        0.000
     24 H           1.1212    6.7563    1.8274 H.spc      1 <1>        0.000
@<TRIPOS>BOND
     1    8   11 am 
     2    6    7 ar 
     3   13   15 am 
     4    5    6 ar 
     5    4    9 1  
     6    8   10 2  
     7   13   14 2  
     8    3    4 ar 
     9    4    5 ar 
    10   17   18 2  
    11    5   13 1  
    12    1    2 1  
    13   16   17 am 
    14    2    7 ar 
    15    2    3 ar 
    16    3   16 1  
    17    6   12 1  
    18    7    8 1  
    19   11   19 1  
    20   11   20 1  
    21   15   21 1  
    22   15   22 1  
    23   16   23 1  
    24   17   24 1  
# Name:          frag5-595-36/41815
# Creation time: Sat Jun  5 12:52:57 2010


@<TRIPOS>MOLECULE
frag5-595-36/41815
   24    24     1     1     1
SMALL
USER_CHARGES


@<TRIPOS>ATOM
      1 I1         -0.1192    3.5235   -0.7990 I          1 <1>        0.000
      2 C1          1.8621    3.1827   -0.3736 C.ar       1 <1>        0.000
      3 C2          2.4591    3.8671    0.6878 C.ar       1 <1>        0.000
      4 C3          3.8054    3.6549    0.9979 C.ar       1 <1>        0.000
      5 C4          4.5607    2.7564    0.2348 C.ar       1 <1>        0.000
      6 C5          3.9640    2.0630   -0.8264 C.ar       1 <1>        0.000
      7 C6          2.6127    2.2773   -1.1298 C.ar       1 <1>        0.000
      8 C7          1.9457    1.5442   -2.2741 C.2        1 <1>        0.000
      9 I3          4.6531    4.6685    2.5720 I          1 <1>        0.000
     10 O1          1.4817    0.4365   -2.0534 O.2        1 <1>        0.000
     11 N1          1.8850    2.1113   -3.4974 N.am       1 <1>        0.000
     12 I2          5.0689    0.7339   -1.9402 I          1 <1>        0.000
     13 C11         6.0225    2.5461    0.5727 C.2        1 <1>        0.000
     14 O4          6.3212    1.5694    1.2419 O.2        1 <1>        0.000
     15 N2          6.9487    3.4287    0.1445 N.am       1 <1>        0.000
     16 N3          1.6898    4.7826    1.4518 N.am       1 <1>        0.000
     17 C35         1.8762    6.1131    1.3209 C.2        1 <1>        0.000
     18 O16         2.8369    6.5952    0.7416 O.2        1 <1>        0.000
     19 H           1.4422    1.6128   -4.2692 H.spc      1 <1>        0.000
     20 H           2.2820    3.0384   -3.6500 H.spc      1 <1>        0.000
     21 H           7.9318    3.2901    0.3783 H.spc      1 <1>        0.000
     22 H           6.6658    4.2346   -0.4131 H.spc      1 <1>        0.000
     23 H           0.9898    4.4322    2.1057 H.spc      1 <1>        0.000
     24 H           1.1359    6.7873    1.7516 H.spc      1 <1>        0.000
@<TRIPOS>BOND
     1    8   11 am 
     2    6    7 ar 
     3   13   15 am 
     4    5    6 ar 
     5    4    9 1  
     6    8   10 2  
     7   13   14 2  
     8    3    4 ar 
     9    4    5 ar 
    10   17   18 2  
    11    5   13 1  
    12    1    2 1  
    13   16   17 am 
    14    2    7 ar 
    15    2    3 ar 
    16    3   16 1  
    17    6   12 1  
    18    7    8 1  
    19   11   19 1  
    20   11   20 1  
    21   15   21 1  
    22   15   22 1  
    23   16   23 1  
    24   17   24 1  
# Name:          frag5-595-36/41815
# Creation time: Sat Jun  5 12:52:57 2010


@<TRIPOS>MOLECULE
frag5-595-36/41815
   24    24     1     1     1
SMALL
USER_CHARGES


@<TRIPOS>ATOM
      1 I1          4.7027    4.7070    2.5380 I          1 <1>        0.000
      2 C1          3.8341    3.6733    0.9877 C.ar       1 <1>        0.000
      3 C2          2.4872    3.8956    0.6920 C.ar       1 <1>        0.000
      4 C3          1.8734    3.2047   -0.3562 C.ar       1 <1>        0.000
      5 C4          2.6088    2.2805   -1.1081 C.ar       1 <1>        0.000
      6 C5          3.9614    2.0620   -0.8163 C.ar       1 <1>        0.000
      7 C6          4.5755    2.7592    0.2328 C.ar       1 <1>        0.000
      8 C7          6.0333    2.5365    0.5696 C.2        1 <1>        0.000
      9 I3         -0.1078    3.5592   -0.7764 I          1 <1>        0.000
     10 O1          6.8735    2.9533   -0.2123 O.2        1 <1>        0.000
     11 N1          6.3752    1.8846    1.7013 N.am       1 <1>        0.000
     12 I2          5.0489    0.7141   -1.9267 I          1 <1>        0.000
     13 C11         1.9265    1.5294   -2.2314 C.2        1 <1>        0.000
     14 O4          1.1767    0.6122   -1.9355 O.2        1 <1>        0.000
     15 N2          2.1608    1.8735   -3.5151 N.am       1 <1>        0.000
     16 N3          1.7444    4.8268    1.4621 N.am       1 <1>        0.000
     17 C35         1.9605    6.1528    1.3311 C.2        1 <1>        0.000
     18 O16         2.6395    6.6294    0.4355 O.2        1 <1>        0.000
     19 H           7.3586    1.7285    1.9227 H.spc      1 <1>        0.000
     20 H           5.6501    1.5482    2.3350 H.spc      1 <1>        0.000
     21 H           1.7058    1.3621   -4.2714 H.spc      1 <1>        0.000
     22 H           2.7928    2.6449   -3.7291 H.spc      1 <1>        0.000
     23 H           1.0410    4.4916    2.1204 H.spc      1 <1>        0.000
     24 H           1.5085    6.8282    2.0575 H.spc      1 <1>        0.000
@<TRIPOS>BOND
     1    8   11 am 
     2    6    7 ar 
     3   13   15 am 
     4    5    6 ar 
     5    4    9 1  
     6    8   10 2  
     7   13   14 2  
     8    3    4 ar 
     9    4    5 ar 
    10   17   18 2  
    11    5   13 1  
    12    1    2 1  
    13   16   17 am 
    14    2    7 ar 
    15    2    3 ar 
    16    3   16 1  
    17    6   12 1  
    18    7    8 1  
    19   11   19 1  
    20   11   20 1  
    21   15   21 1  
    22   15   22 1  
    23   16   23 1  
    24   17   24 1  
# Name:          frag5-595-36/41815
# Creation time: Sat Jun  5 12:52:57 2010


@<TRIPOS>MOLECULE
frag5-595-36/41815
   24    24     1     1     1
SMALL
USER_CHARGES


@<TRIPOS>ATOM
      1 I1         -0.0654    3.6238   -0.7689 I          1 <1>        0.000
      2 C1          1.9087    3.2329   -0.3486 C.ar       1 <1>        0.000
      3 C2          2.5171    3.8844    0.7267 C.ar       1 <1>        0.000
      4 C3          3.8580    3.6365    1.0322 C.ar       1 <1>        0.000
      5 C4          4.5970    2.7380    0.2531 C.ar       1 <1>        0.000
      6 C5          3.9852    2.0796   -0.8215 C.ar       1 <1>        0.000
      7 C6          2.6393    2.3266   -1.1232 C.ar       1 <1>        0.000
      8 C7          1.9589    1.6312   -2.2813 C.2        1 <1>        0.000
      9 I3          4.7255    4.6012    2.6273 I          1 <1>        0.000
     10 O1          1.7554    2.2752   -3.2986 O.2        1 <1>        0.000
     11 N1          1.5857    0.3385   -2.1706 N.am       1 <1>        0.000
     12 I2          5.0639    0.7491   -1.9613 I          1 <1>        0.000
     13 C11         6.0523    2.4905    0.5877 C.2        1 <1>        0.000
     14 O4          6.8747    3.3114    0.2121 O.2        1 <1>        0.000
     15 N2          6.4100    1.3848    1.2735 N.am       1 <1>        0.000
     16 N3          1.7665    4.8000    1.5080 N.am       1 <1>        0.000
     17 C35         1.7023    6.1037    1.1643 C.2        1 <1>        0.000
     18 O16         2.5395    6.6468    0.4612 O.2        1 <1>        0.000
     19 H           1.1199   -0.1264   -2.9499 H.spc      1 <1>        0.000
     20 H           1.7695   -0.1733   -1.3076 H.spc      1 <1>        0.000
     21 H           7.3918    1.2157    1.4922 H.spc      1 <1>        0.000
     22 H           5.6986    0.7181    1.5732 H.spc      1 <1>        0.000
     23 H           1.2711    4.4704    2.3365 H.spc      1 <1>        0.000
     24 H           0.8655    6.6982    1.5310 H.spc      1 <1>        0.000
@<TRIPOS>BOND
     1    8   11 am 
     2    6    7 ar 
     3   13   15 am 
     4    5    6 ar 
     5    4    9 1  
     6    8   10 2  
     7   13   14 2  
     8    3    4 ar 
     9    4    5 ar 
    10   17   18 2  
    11    5   13 1  
    12    1    2 1  
    13   16   17 am 
    14    2    7 ar 
    15    2    3 ar 
    16    3   16 1  
    17    6   12 1  
    18    7    8 1  
    19   11   19 1  
    20   11   20 1  
    21   15   21 1  
    22   15   22 1  
    23   16   23 1  
    24   17   24 1  
# Name:          frag5-595-36/41815
# Creation time: Sat Jun  5 12:52:57 2010


@<TRIPOS>MOLECULE
frag5-595-36/41815
   24    24     1     1     1
SMALL
USER_CHARGES


@<TRIPOS>ATOM
      1 I1          4.8247    4.6571    2.4997 I          1 <1>        0.000
      2 C1          3.9450    3.6482    0.9437 C.ar       1 <1>        0.000
      3 C2          2.6157    3.9230    0.6120 C.ar       1 <1>        0.000
      4 C3          1.9878    3.2524   -0.4422 C.ar       1 <1>        0.000
      5 C4          2.7021    2.2888   -1.1640 C.ar       1 <1>        0.000
      6 C5          4.0376    2.0074   -0.8460 C.ar       1 <1>        0.000
      7 C6          4.6538    2.6919    0.2107 C.ar       1 <1>        0.000
      8 C7          6.0969    2.4061    0.5824 C.2        1 <1>        0.000
      9 I3          0.0375    3.6915   -0.9081 I          1 <1>        0.000
     10 O1          6.9537    3.1840    0.1931 O.2        1 <1>        0.000
     11 N1          6.4023    1.3145    1.3137 N.am       1 <1>        0.000
     12 I2          5.0840    0.6018   -1.9162 I          1 <1>        0.000
     13 C11         2.0086    1.5546   -2.2979 C.2        1 <1>        0.000
     14 O4          2.4529    1.6940   -3.4265 O.2        1 <1>        0.000
     15 N2          0.9310    0.7851   -2.0431 N.am       1 <1>        0.000
     16 N3          1.9008    4.8975    1.3553 N.am       1 <1>        0.000
     17 C35         2.0562    6.2142    1.1017 C.2        1 <1>        0.000
     18 O16         1.1839    7.0422    1.3036 O.2        1 <1>        0.000
     19 H           7.3733    1.1190    1.5571 H.spc      1 <1>        0.000
     20 H           5.6622    0.6846    1.6233 H.spc      1 <1>        0.000
     21 H           0.4607    0.2975   -2.8056 H.spc      1 <1>        0.000
     22 H           0.5861    0.6907   -1.0878 H.spc      1 <1>        0.000
     23 H           1.2607    4.5991    2.0913 H.spc      1 <1>        0.000
     24 H           3.0090    6.5544    0.6962 H.spc      1 <1>        0.000
@<TRIPOS>BOND
     1    8   11 am 
     2    6    7 ar 
     3   13   15 am 
     4    5    6 ar 
     5    4    9 1  
     6    8   10 2  
     7   13   14 2  
     8    3    4 ar 
     9    4    5 ar 
    10   17   18 2  
    11    5   13 1  
    12    1    2 1  
    13   16   17 am 
    14    2    7 ar 
    15    2    3 ar 
    16    3   16 1  
    17    6   12 1  
    18    7    8 1  
    19   11   19 1  
    20   11   20 1  
    21   15   21 1  
    22   15   22 1  
    23   16   23 1  
    24   17   24 1  
# Name:          frag5-595-36/41815
# Creation time: Sat Jun  5 12:52:57 2010


@<TRIPOS>MOLECULE
frag5-595-36/41815
   24    24     1     1     1
SMALL
USER_CHARGES


@<TRIPOS>ATOM
      1 I1          0.1708    3.9412   -0.8617 I          1 <1>        0.000
      2 C1          2.0879    3.3748   -0.4020 C.ar       1 <1>        0.000
      3 C2          2.7752    4.0326    0.6236 C.ar       1 <1>        0.000
      4 C3          4.0825    3.6721    0.9621 C.ar       1 <1>        0.000
      5 C4          4.7084    2.6405    0.2531 C.ar       1 <1>        0.000
      6 C5          4.0352    1.9631   -0.7732 C.ar       1 <1>        0.000
      7 C6          2.7226    2.3391   -1.0927 C.ar       1 <1>        0.000
      8 C7          1.9646    1.6294   -2.2025 C.2        1 <1>        0.000
      9 I3          5.0508    4.6568    2.4783 I          1 <1>        0.000
     10 O1          1.1413    0.7857   -1.8843 O.2        1 <1>        0.000
     11 N1          2.2174    1.9321   -3.4918 N.am       1 <1>        0.000
     12 I2          4.9572    0.4433   -1.7965 I          1 <1>        0.000
     13 C11         6.1359    2.2613    0.6156 C.2        1 <1>        0.000
     14 O4          7.0315    2.6299   -0.1279 O.2        1 <1>        0.000
     15 N2          6.3781    1.5333    1.7238 N.am       1 <1>        0.000
     16 N3          2.1301    5.0845    1.3243 N.am       1 <1>        0.000
     17 C35         1.6284    6.1534    0.6702 C.2        1 <1>        0.000
     18 O16         0.6568    6.7812    1.0536 O.2        1 <1>        0.000
     19 H           1.7140    1.4506   -4.2369 H.spc      1 <1>        0.000
     20 H           2.9121    2.6426   -3.7221 H.spc      1 <1>        0.000
     21 H           7.3346    1.2731    1.9641 H.spc      1 <1>        0.000
     22 H           5.6049    1.2426    2.3221 H.spc      1 <1>        0.000
     23 H           2.0441    5.0320    2.3393 H.spc      1 <1>        0.000
     24 H           2.1184    6.4720   -0.2499 H.spc      1 <1>        0.000
@<TRIPOS>BOND
     1    8   11 am 
     2    6    7 ar 
     3   13   15 am 
     4    5    6 ar 
     5    4    9 1  
     6    8   10 2  
     7   13   14 2  
     8    3    4 ar 
     9    4    5 ar 
    10   17   18 2  
    11    5   13 1  
    12    1    2 1  
    13   16   17 am 
    14    2    7 ar 
    15    2    3 ar 
    16    3   16 1  
    17    6   12 1  
    18    7    8 1  
    19   11   19 1  
    20   11   20 1  
    21   15   21 1  
    22   15   22 1  
    23   16   23 1  
    24   17   24 1  
# Name:          frag5-595-36/41815
# Creation time: Sat Jun  5 12:52:57 2010


@<TRIPOS>MOLECULE
frag5-595-36/41815
   24    24     1     1     1
SMALL
USER_CHARGES


@<TRIPOS>ATOM
      1 I1          0.0905    3.7842   -0.8520 I          1 <1>        0.000
      2 C1          2.0301    3.2889   -0.4002 C.ar       1 <1>        0.000
      3 C2          2.6748    3.9331    0.6600 C.ar       1 <1>        0.000
      4 C3          3.9958    3.6195    0.9924 C.ar       1 <1>        0.000
      5 C4          4.6781    2.6517    0.2456 C.ar       1 <1>        0.000
      6 C5          4.0433    1.9917   -0.8151 C.ar       1 <1>        0.000
      7 C6          2.7172    2.3161   -1.1324 C.ar       1 <1>        0.000
      8 C7          2.0029    1.6229   -2.2783 C.2        1 <1>        0.000
      9 I3          4.9051    4.5803    2.5613 I          1 <1>        0.000
     10 O1          1.6864    0.4528   -2.1321 O.2        1 <1>        0.000
     11 N1          1.7444    2.2960   -3.4183 N.am       1 <1>        0.000
     12 I2          5.0461    0.5645   -1.8976 I          1 <1>        0.000
     13 C11         6.1178    2.3261    0.6045 C.2        1 <1>        0.000
     14 O4          6.3162    1.5517    1.5273 O.2        1 <1>        0.000
     15 N2          7.1285    2.8945   -0.0835 N.am       1 <1>        0.000
     16 N3          1.9757    4.9201    1.4019 N.am       1 <1>        0.000
     17 C35         1.8470    6.1792    0.9331 C.2        1 <1>        0.000
     18 O16         0.8748    6.8809    1.1553 O.2        1 <1>        0.000
     19 H           1.2709    1.8277   -4.1909 H.spc      1 <1>        0.000
     20 H           2.0224    3.2733   -3.5077 H.spc      1 <1>        0.000
     21 H           8.0954    2.6817    0.1617 H.spc      1 <1>        0.000
     22 H           6.9261    3.5373   -0.8492 H.spc      1 <1>        0.000
     23 H           1.5645    4.6745    2.3025 H.spc      1 <1>        0.000
     24 H           2.6531    6.5897    0.3250 H.spc      1 <1>        0.000
@<TRIPOS>BOND
     1    8   11 am 
     2    6    7 ar 
     3   13   15 am 
     4    5    6 ar 
     5    4    9 1  
     6    8   10 2  
     7   13   14 2  
     8    3    4 ar 
     9    4    5 ar 
    10   17   18 2  
    11    5   13 1  
    12    1    2 1  
    13   16   17 am 
    14    2    7 ar 
    15    2    3 ar 
    16    3   16 1  
    17    6   12 1  
    18    7    8 1  
    19   11   19 1  
    20   11   20 1  
    21   15   21 1  
    22   15   22 1  
    23   16   23 1  
    24   17   24 1  
# Name:          frag5-595-36/41815 -- energy: -6.267606
# Creation time: Sat Jun  5 12:52:57 2010


@<TRIPOS>MOLECULE
frag5-595-36/41815 -- energy: -6.267606
   24    24     1     1     1
SMALL
USER_CHARGES


@<TRIPOS>ATOM
      1 I1         -0.0120    3.7138   -0.7205 I          1 <1>        0.000
      2 C1          1.9529    3.2700   -0.3098 C.ar       1 <1>        0.000
      3 C2          2.5758    3.8844    0.7790 C.ar       1 <1>        0.000
      4 C3          3.9109    3.6001    1.0784 C.ar       1 <1>        0.000
      5 C4          4.6294    2.7022    0.2796 C.ar       1 <1>        0.000
      6 C5          4.0031    2.0809   -0.8085 C.ar       1 <1>        0.000
      7 C6          2.6631    2.3645   -1.1041 C.ar       1 <1>        0.000
      8 C7          1.9672    1.7095   -2.2766 C.2        1 <1>        0.000
      9 I3          4.7998    4.5106    2.6934 I          1 <1>        0.000
     10 O1          2.0925    2.2216   -3.3780 O.2        1 <1>        0.000
     11 N1          1.2251    0.5974   -2.0889 N.am       1 <1>        0.000
     12 I2          5.0517    0.7515   -1.9773 I          1 <1>        0.000
     13 C11         6.0790    2.4152    0.6080 C.2        1 <1>        0.000
     14 O4          6.3352    1.3961    1.2300 O.2        1 <1>        0.000
     15 N2          7.0431    3.2776    0.2234 N.am       1 <1>        0.000
     16 N3          1.8458    4.7994    1.5802 N.am       1 <1>        0.000
     17 C35         1.6559    6.0711    1.1695 C.2        1 <1>        0.000
     18 O16         2.0561    6.4883    0.0943 O.2        1 <1>        0.000
     19 H           0.7501    0.1618   -2.8795 H.spc      1 <1>        0.000
     20 H           1.1394    0.1928   -1.1565 H.spc      1 <1>        0.000
     21 H           8.0188    3.0866    0.4513 H.spc      1 <1>        0.000
     22 H           6.7961    4.1205   -0.2952 H.spc      1 <1>        0.000
     23 H           1.4612    4.4938    2.4741 H.spc      1 <1>        0.000
     24 H           1.1212    6.7563    1.8274 H.spc      1 <1>        0.000
@<TRIPOS>BOND
     1    8   11 am 
     2    6    7 ar 
     3   13   15 am 
     4    5    6 ar 
     5    4    9 1  
     6    8   10 2  
     7   13   14 2  
     8    3    4 ar 
     9    4    5 ar 
    10   17   18 2  
    11    5   13 1  
    12    1    2 1  
    13   16   17 am 
    14    2    7 ar 
    15    2    3 ar 
    16    3   16 1  
    17    6   12 1  
    18    7    8 1  
    19   11   19 1  
    20   11   20 1  
    21   15   21 1  
    22   15   22 1  
    23   16   23 1  
    24   17   24 1  
# Name:          frag5-595-36/41815 -- energy: -6.038672
# Creation time: Sat Jun  5 12:52:57 2010


@<TRIPOS>MOLECULE
frag5-595-36/41815 -- energy: -6.038672
   24    24     1     1     1
SMALL
USER_CHARGES


@<TRIPOS>ATOM
      1 I1         -0.1192    3.5235   -0.7990 I          1 <1>        0.000
      2 C1          1.8621    3.1827   -0.3736 C.ar       1 <1>        0.000
      3 C2          2.4591    3.8671    0.6878 C.ar       1 <1>        0.000
      4 C3          3.8054    3.6549    0.9979 C.ar       1 <1>        0.000
      5 C4          4.5607    2.7564    0.2348 C.ar       1 <1>        0.000
      6 C5          3.9640    2.0630   -0.8264 C.ar       1 <1>        0.000
      7 C6          2.6127    2.2773   -1.1298 C.ar       1 <1>        0.000
      8 C7          1.9457    1.5442   -2.2741 C.2        1 <1>        0.000
      9 I3          4.6531    4.6685    2.5720 I          1 <1>        0.000
     10 O1          1.4817    0.4365   -2.0534 O.2        1 <1>        0.000
     11 N1          1.8850    2.1113   -3.4974 N.am       1 <1>        0.000
     12 I2          5.0689    0.7339   -1.9402 I          1 <1>        0.000
     13 C11         6.0225    2.5461    0.5727 C.2        1 <1>        0.000
     14 O4          6.3212    1.5694    1.2419 O.2        1 <1>        0.000
     15 N2          6.9487    3.4287    0.1445 N.am       1 <1>        0.000
     16 N3          1.6898    4.7826    1.4518 N.am       1 <1>        0.000
     17 C35         1.8762    6.1131    1.3209 C.2        1 <1>        0.000
     18 O16         2.8369    6.5952    0.7416 O.2        1 <1>        0.000
     19 H           1.4422    1.6128   -4.2692 H.spc      1 <1>        0.000
     20 H           2.2820    3.0384   -3.6500 H.spc      1 <1>        0.000
     21 H           7.9318    3.2901    0.3783 H.spc      1 <1>        0.000
     22 H           6.6658    4.2346   -0.4131 H.spc      1 <1>        0.000
     23 H           0.9898    4.4322    2.1057 H.spc      1 <1>        0.000
     24 H           1.1359    6.7873    1.7516 H.spc      1 <1>        0.000
@<TRIPOS>BOND
     1    8   11 am 
     2    6    7 ar 
     3   13   15 am 
     4    5    6 ar 
     5    4    9 1  
     6    8   10 2  
     7   13   14 2  
     8    3    4 ar 
     9    4    5 ar 
    10   17   18 2  
    11    5   13 1  
    12    1    2 1  
    13   16   17 am 
    14    2    7 ar 
    15    2    3 ar 
    16    3   16 1  
    17    6   12 1  
    18    7    8 1  
    19   11   19 1  
    20   11   20 1  
    21   15   21 1  
    22   15   22 1  
    23   16   23 1  
    24   17   24 1  
# Name:          frag5-595-36/41815 -- energy: -6.032259
# Creation time: Sat Jun  5 12:52:57 2010


@<TRIPOS>MOLECULE
frag5-595-36/41815 -- energy: -6.032259
   24    24     1     1     1
SMALL
USER_CHARGES


@<TRIPOS>ATOM
      1 I1          4.7027    4.7070    2.5380 I          1 <1>        0.000
      2 C1          3.8341    3.6733    0.9877 C.ar       1 <1>        0.000
      3 C2          2.4872    3.8956    0.6920 C.ar       1 <1>        0.000
      4 C3          1.8734    3.2047   -0.3562 C.ar       1 <1>        0.000
      5 C4          2.6088    2.2805   -1.1081 C.ar       1 <1>        0.000
      6 C5          3.9614    2.0620   -0.8163 C.ar       1 <1>        0.000
      7 C6          4.5755    2.7592    0.2328 C.ar       1 <1>        0.000
      8 C7          6.0333    2.5365    0.5696 C.2        1 <1>        0.000
      9 I3         -0.1078    3.5592   -0.7764 I          1 <1>        0.000
     10 O1          6.8735    2.9533   -0.2123 O.2        1 <1>        0.000
     11 N1          6.3752    1.8846    1.7013 N.am       1 <1>        0.000
     12 I2          5.0489    0.7141   -1.9267 I          1 <1>        0.000
     13 C11         1.9265    1.5294   -2.2314 C.2        1 <1>        0.000
     14 O4          1.1767    0.6122   -1.9355 O.2        1 <1>        0.000
     15 N2          2.1608    1.8735   -3.5151 N.am       1 <1>        0.000
     16 N3          1.7444    4.8268    1.4621 N.am       1 <1>        0.000
     17 C35         1.9605    6.1528    1.3311 C.2        1 <1>        0.000
     18 O16         2.6395    6.6294    0.4355 O.2        1 <1>        0.000
     19 H           7.3586    1.7285    1.9227 H.spc      1 <1>        0.000
     20 H           5.6501    1.5482    2.3350 H.spc      1 <1>        0.000
     21 H           1.7058    1.3621   -4.2714 H.spc      1 <1>        0.000
     22 H           2.7928    2.6449   -3.7291 H.spc      1 <1>        0.000
     23 H           1.0410    4.4916    2.1204 H.spc      1 <1>        0.000
     24 H           1.5085    6.8282    2.0575 H.spc      1 <1>        0.000
@<TRIPOS>BOND
     1    8   11 am 
     2    6    7 ar 
     3   13   15 am 
     4    5    6 ar 
     5    4    9 1  
     6    8   10 2  
     7   13   14 2  
     8    3    4 ar 
     9    4    5 ar 
    10   17   18 2  
    11    5   13 1  
    12    1    2 1  
    13   16   17 am 
    14    2    7 ar 
    15    2    3 ar 
    16    3   16 1  
    17    6   12 1  
    18    7    8 1  
    19   11   19 1  
    20   11   20 1  
    21   15   21 1  
    22   15   22 1  
    23   16   23 1  
    24   17   24 1  
# Name:          frag5-595-36/41815 -- energy: -6.321191
# Creation time: Sat Jun  5 12:52:57 2010


@<TRIPOS>MOLECULE
frag5-595-36/41815 -- energy: -6.321191
   24    24     1     1     1
SMALL
USER_CHARGES


@<TRIPOS>ATOM
      1 I1         -0.0654    3.6238   -0.7689 I          1 <1>        0.000
      2 C1          1.9087    3.2329   -0.3486 C.ar       1 <1>        0.000
      3 C2          2.5171    3.8844    0.7267 C.ar       1 <1>        0.000
      4 C3          3.8580    3.6365    1.0322 C.ar       1 <1>        0.000
      5 C4          4.5970    2.7380    0.2531 C.ar       1 <1>        0.000
      6 C5          3.9852    2.0796   -0.8215 C.ar       1 <1>        0.000
      7 C6          2.6393    2.3266   -1.1232 C.ar       1 <1>        0.000
      8 C7          1.9589    1.6312   -2.2813 C.2        1 <1>        0.000
      9 I3          4.7255    4.6012    2.6273 I          1 <1>        0.000
     10 O1          1.7554    2.2752   -3.2986 O.2        1 <1>        0.000
     11 N1          1.5857    0.3385   -2.1706 N.am       1 <1>        0.000
     12 I2          5.0639    0.7491   -1.9613 I          1 <1>        0.000
     13 C11         6.0523    2.4905    0.5877 C.2        1 <1>        0.000
     14 O4          6.8747    3.3114    0.2121 O.2        1 <1>        0.000
     15 N2          6.4100    1.3848    1.2735 N.am       1 <1>        0.000
     16 N3          1.7665    4.8000    1.5080 N.am       1 <1>        0.000
     17 C35         1.7023    6.1037    1.1643 C.2        1 <1>        0.000
     18 O16         2.5395    6.6468    0.4612 O.2        1 <1>        0.000
     19 H           1.1199   -0.1264   -2.9499 H.spc      1 <1>        0.000
     20 H           1.7695   -0.1733   -1.3076 H.spc      1 <1>        0.000
     21 H           7.3918    1.2157    1.4922 H.spc      1 <1>        0.000
     22 H           5.6986    0.7181    1.5732 H.spc      1 <1>        0.000
     23 H           1.2711    4.4704    2.3365 H.spc      1 <1>        0.000
     24 H           0.8655    6.6982    1.5310 H.spc      1 <1>        0.000
@<TRIPOS>BOND
     1    8   11 am 
     2    6    7 ar 
     3   13   15 am 
     4    5    6 ar 
     5    4    9 1  
     6    8   10 2  
     7   13   14 2  
     8    3    4 ar 
     9    4    5 ar 
    10   17   18 2  
    11    5   13 1  
    12    1    2 1  
    13   16   17 am 
    14    2    7 ar 
    15    2    3 ar 
    16    3   16 1  
    17    6   12 1  
    18    7    8 1  
    19   11   19 1  
    20   11   20 1  
    21   15   21 1  
    22   15   22 1  
    23   16   23 1  
    24   17   24 1  
# Name:          frag5-595-36/41815 -- energy: -5.935041
# Creation time: Sat Jun  5 12:52:57 2010


@<TRIPOS>MOLECULE
frag5-595-36/41815 -- energy: -5.935041
   24    24     1     1     1
SMALL
USER_CHARGES


@<TRIPOS>ATOM
      1 I1          4.8247    4.6571    2.4997 I          1 <1>        0.000
      2 C1          3.9450    3.6482    0.9437 C.ar       1 <1>        0.000
      3 C2          2.6157    3.9230    0.6120 C.ar       1 <1>        0.000
      4 C3          1.9878    3.2524   -0.4422 C.ar       1 <1>        0.000
      5 C4          2.7021    2.2888   -1.1640 C.ar       1 <1>        0.000
      6 C5          4.0376    2.0074   -0.8460 C.ar       1 <1>        0.000
      7 C6          4.6538    2.6919    0.2107 C.ar       1 <1>        0.000
      8 C7          6.0969    2.4061    0.5824 C.2        1 <1>        0.000
      9 I3          0.0375    3.6915   -0.9081 I          1 <1>        0.000
     10 O1          6.9537    3.1840    0.1931 O.2        1 <1>        0.000
     11 N1          6.4023    1.3145    1.3137 N.am       1 <1>        0.000
     12 I2          5.0840    0.6018   -1.9162 I          1 <1>        0.000
     13 C11         2.0086    1.5546   -2.2979 C.2        1 <1>        0.000
     14 O4          2.4529    1.6940   -3.4265 O.2        1 <1>        0.000
     15 N2          0.9310    0.7851   -2.0431 N.am       1 <1>        0.000
     16 N3          1.9008    4.8975    1.3553 N.am       1 <1>        0.000
     17 C35         2.0562    6.2142    1.1017 C.2        1 <1>        0.000
     18 O16         1.1839    7.0422    1.3036 O.2        1 <1>        0.000
     19 H           7.3733    1.1190    1.5571 H.spc      1 <1>        0.000
     20 H           5.6622    0.6846    1.6233 H.spc      1 <1>        0.000
     21 H           0.4607    0.2975   -2.8056 H.spc      1 <1>        0.000
     22 H           0.5861    0.6907   -1.0878 H.spc      1 <1>        0.000
     23 H           1.2607    4.5991    2.0913 H.spc      1 <1>        0.000
     24 H           3.0090    6.5544    0.6962 H.spc      1 <1>        0.000
@<TRIPOS>BOND
     1    8   11 am 
     2    6    7 ar 
     3   13   15 am 
     4    5    6 ar 
     5    4    9 1  
     6    8   10 2  
     7   13   14 2  
     8    3    4 ar 
     9    4    5 ar 
    10   17   18 2  
    11    5   13 1  
    12    1    2 1  
    13   16   17 am 
    14    2    7 ar 
    15    2    3 ar 
    16    3   16 1  
    17    6   12 1  
    18    7    8 1  
    19   11   19 1  
    20   11   20 1  
    21   15   21 1  
    22   15   22 1  
    23   16   23 1  
    24   17   24 1  
# Name:          frag5-595-36/41815 -- energy: -5.132555
# Creation time: Sat Jun  5 12:52:57 2010


@<TRIPOS>MOLECULE
frag5-595-36/41815 -- energy: -5.132555
   24    24     1     1     1
SMALL
USER_CHARGES


@<TRIPOS>ATOM
      1 I1          0.1708    3.9412   -0.8617 I          1 <1>        0.000
      2 C1          2.0879    3.3748   -0.4020 C.ar       1 <1>        0.000
      3 C2          2.7752    4.0326    0.6236 C.ar       1 <1>        0.000
      4 C3          4.0825    3.6721    0.9621 C.ar       1 <1>        0.000
      5 C4          4.7084    2.6405    0.2531 C.ar       1 <1>        0.000
      6 C5          4.0352    1.9631   -0.7732 C.ar       1 <1>        0.000
      7 C6          2.7226    2.3391   -1.0927 C.ar       1 <1>        0.000
      8 C7          1.9646    1.6294   -2.2025 C.2        1 <1>        0.000
      9 I3          5.0508    4.6568    2.4783 I          1 <1>        0.000
     10 O1          1.1413    0.7857   -1.8843 O.2        1 <1>        0.000
     11 N1          2.2174    1.9321   -3.4918 N.am       1 <1>        0.000
     12 I2          4.9572    0.4433   -1.7965 I          1 <1>        0.000
     13 C11         6.1359    2.2613    0.6156 C.2        1 <1>        0.000
     14 O4          7.0315    2.6299   -0.1279 O.2        1 <1>        0.000
     15 N2          6.3781    1.5333    1.7238 N.am       1 <1>        0.000
     16 N3          2.1301    5.0845    1.3243 N.am       1 <1>        0.000
     17 C35         1.6284    6.1534    0.6702 C.2        1 <1>        0.000
     18 O16         0.6568    6.7812    1.0536 O.2        1 <1>        0.000
     19 H           1.7140    1.4506   -4.2369 H.spc      1 <1>        0.000
     20 H           2.9121    2.6426   -3.7221 H.spc      1 <1>        0.000
     21 H           7.3346    1.2731    1.9641 H.spc      1 <1>        0.000
     22 H           5.6049    1.2426    2.3221 H.spc      1 <1>        0.000
     23 H           2.0441    5.0320    2.3393 H.spc      1 <1>        0.000
     24 H           2.1184    6.4720   -0.2499 H.spc      1 <1>        0.000
@<TRIPOS>BOND
     1    8   11 am 
     2    6    7 ar 
     3   13   15 am 
     4    5    6 ar 
     5    4    9 1  
     6    8   10 2  
     7   13   14 2  
     8    3    4 ar 
     9    4    5 ar 
    10   17   18 2  
    11    5   13 1  
    12    1    2 1  
    13   16   17 am 
    14    2    7 ar 
    15    2    3 ar 
    16    3   16 1  
    17    6   12 1  
    18    7    8 1  
    19   11   19 1  
    20   11   20 1  
    21   15   21 1  
    22   15   22 1  
    23   16   23 1  
    24   17   24 1  
# Name:          frag5-595-36/41815 -- energy: -6.193315
# Creation time: Sat Jun  5 12:52:57 2010


@<TRIPOS>MOLECULE
frag5-595-36/41815 -- energy: -6.193315
   24    24     1     1     1
SMALL
USER_CHARGES


@<TRIPOS>ATOM
      1 I1          0.0905    3.7842   -0.8520 I          1 <1>        0.000
      2 C1          2.0301    3.2889   -0.4002 C.ar       1 <1>        0.000
      3 C2          2.6748    3.9331    0.6600 C.ar       1 <1>        0.000
      4 C3          3.9958    3.6195    0.9924 C.ar       1 <1>        0.000
      5 C4          4.6781    2.6517    0.2456 C.ar       1 <1>        0.000
      6 C5          4.0433    1.9917   -0.8151 C.ar       1 <1>        0.000
      7 C6          2.7172    2.3161   -1.1324 C.ar       1 <1>        0.000
      8 C7          2.0029    1.6229   -2.2783 C.2        1 <1>        0.000
      9 I3          4.9051    4.5803    2.5613 I          1 <1>        0.000
     10 O1          1.6864    0.4528   -2.1321 O.2        1 <1>        0.000
     11 N1          1.7444    2.2960   -3.4183 N.am       1 <1>        0.000
     12 I2          5.0461    0.5645   -1.8976 I          1 <1>        0.000
     13 C11         6.1178    2.3261    0.6045 C.2        1 <1>        0.000
     14 O4          6.3162    1.5517    1.5273 O.2        1 <1>        0.000
     15 N2          7.1285    2.8945   -0.0835 N.am       1 <1>        0.000
     16 N3          1.9757    4.9201    1.4019 N.am       1 <1>        0.000
     17 C35         1.8470    6.1792    0.9331 C.2        1 <1>        0.000
     18 O16         0.8748    6.8809    1.1553 O.2        1 <1>        0.000
     19 H           1.2709    1.8277   -4.1909 H.spc      1 <1>        0.000
     20 H           2.0224    3.2733   -3.5077 H.spc      1 <1>        0.000
     21 H           8.0954    2.6817    0.1617 H.spc      1 <1>        0.000
     22 H           6.9261    3.5373   -0.8492 H.spc      1 <1>        0.000
     23 H           1.5645    4.6745    2.3025 H.spc      1 <1>        0.000
     24 H           2.6531    6.5897    0.3250 H.spc      1 <1>        0.000
@<TRIPOS>BOND
     1    8   11 am 
     2    6    7 ar 
     3   13   15 am 
     4    5    6 ar 
     5    4    9 1  
     6    8   10 2  
     7   13   14 2  
     8    3    4 ar 
     9    4    5 ar 
    10   17   18 2  
    11    5   13 1  
    12    1    2 1  
    13   16   17 am 
    14    2    7 ar 
    15    2    3 ar 
    16    3   16 1  
    17    6   12 1  
    18    7    8 1  
    19   11   19 1  
    20   11   20 1  
    21   15   21 1  
    22   15   22 1  
    23   16   23 1  
    24   17   24 1  
