#      Rotatable Fragment
#      Build by yxyuan
#
# Name:          frag3-130-42/96164
# Creation time: Sat Jun  5 12:52:59 2010


@<TRIPOS>MOLECULE
frag3-130-42/96164
    7     6     1     1     1
SMALL
USER_CHARGES


@<TRIPOS>ATOM
      1 O6          1.3626   -0.2765    0.4308 O.3        1 <1>        0.000
      2 C15         0.3282    0.4945    0.0797 C.2        1 <1>        0.000
      3 C18        -0.1092    0.3072   -1.3620 C.2        1 <1>        0.000
      4 O9         -0.3170    1.3178    0.7224 O.2        1 <1>        0.000
      5 O10         0.0925   -0.7539   -1.9307 O.2        1 <1>        0.000
      6 H           1.6311   -0.8112   -0.3200 H.spc      1 <1>        0.000
      7 H          -0.6044    1.1219   -1.8903 H.spc      1 <1>        0.000
@<TRIPOS>BOND
     1    1    2 1  
     2    2    3 1  
     3    2    4 2  
     4    3    5 2  
     5    1    6 1  
     6    3    7 1  
# Name:          frag3-130-42/96164
# Creation time: Sat Jun  5 12:52:59 2010


@<TRIPOS>MOLECULE
frag3-130-42/96164
    7     6     1     1     1
SMALL
USER_CHARGES


@<TRIPOS>ATOM
      1 O6          1.4036   -0.2027    0.6929 O.3        1 <1>        0.000
      2 C15         0.3821    0.3913    0.0946 C.2        1 <1>        0.000
      3 C18        -0.2178   -0.4153   -1.0435 C.2        1 <1>        0.000
      4 O9         -0.2172    1.4076    0.3905 O.2        1 <1>        0.000
      5 O10         0.0065   -0.0918   -2.1943 O.2        1 <1>        0.000
      6 H           1.6441   -0.9929    0.2037 H.spc      1 <1>        0.000
      7 H          -0.8463   -1.2799   -0.8302 H.spc      1 <1>        0.000
@<TRIPOS>BOND
     1    1    2 1  
     2    2    3 1  
     3    2    4 2  
     4    3    5 2  
     5    1    6 1  
     6    3    7 1  
# Name:          frag3-130-42/96164 -- energy: 0.402415
# Creation time: Sat Jun  5 12:52:59 2010


@<TRIPOS>MOLECULE
frag3-130-42/96164 -- energy: 0.402415
    7     6     1     1     1
SMALL
USER_CHARGES


@<TRIPOS>ATOM
      1 O6          1.3626   -0.2765    0.4308 O.3        1 <1>        0.000
      2 C15         0.3282    0.4945    0.0797 C.2        1 <1>        0.000
      3 C18        -0.1092    0.3072   -1.3620 C.2        1 <1>        0.000
      4 O9         -0.3170    1.3178    0.7224 O.2        1 <1>        0.000
      5 O10         0.0925   -0.7539   -1.9307 O.2        1 <1>        0.000
      6 H           1.6311   -0.8112   -0.3200 H.spc      1 <1>        0.000
      7 H          -0.6044    1.1219   -1.8903 H.spc      1 <1>        0.000
@<TRIPOS>BOND
     1    1    2 1  
     2    2    3 1  
     3    2    4 2  
     4    3    5 2  
     5    1    6 1  
     6    3    7 1  
# Name:          frag3-130-42/96164 -- energy: -0.036536
# Creation time: Sat Jun  5 12:52:59 2010


@<TRIPOS>MOLECULE
frag3-130-42/96164 -- energy: -0.036536
    7     6     1     1     1
SMALL
USER_CHARGES


@<TRIPOS>ATOM
      1 O6          1.4036   -0.2027    0.6929 O.3        1 <1>        0.000
      2 C15         0.3821    0.3913    0.0946 C.2        1 <1>        0.000
      3 C18        -0.2178   -0.4153   -1.0435 C.2        1 <1>        0.000
      4 O9         -0.2172    1.4076    0.3905 O.2        1 <1>        0.000
      5 O10         0.0065   -0.0918   -2.1943 O.2        1 <1>        0.000
      6 H           1.6441   -0.9929    0.2037 H.spc      1 <1>        0.000
      7 H          -0.8463   -1.2799   -0.8302 H.spc      1 <1>        0.000
@<TRIPOS>BOND
     1    1    2 1  
     2    2    3 1  
     3    2    4 2  
     4    3    5 2  
     5    1    6 1  
     6    3    7 1  
