#      Rotatable Fragment
#      Build by yxyuan
#
# Name:          frag3-098-649/31924
# Creation time: Sat Jun  5 12:51:59 2010


@<TRIPOS>MOLECULE
frag3-098-649/31924
    7     6     1     1     1
SMALL
USER_CHARGES


@<TRIPOS>ATOM
      1 O1          1.0713   -0.4849   -0.5066 O.3        1 <1>        0.000
      2 C10         0.2717    0.2678    0.2375 C.2        1 <1>        0.000
      3 O2         -0.8796    0.5449   -0.0301 O.2        1 <1>        0.000
      4 N2          0.9829    0.6724    1.2987 N.am       1 <1>        0.000
      5 H           1.9292   -0.5555   -0.0817 H.spc      1 <1>        0.000
      6 H           0.5574    1.2853    1.9942 H.spc      1 <1>        0.000
      7 H           1.9497    0.3674    1.4110 H.spc      1 <1>        0.000
@<TRIPOS>BOND
     1    2    3 2  
     2    1    2 1  
     3    2    4 am 
     4    1    5 1  
     5    4    6 1  
     6    4    7 1  
# Name:          frag3-098-649/31924 -- energy: 1.801247
# Creation time: Sat Jun  5 12:51:59 2010


@<TRIPOS>MOLECULE
frag3-098-649/31924 -- energy: 1.801247
    7     6     1     1     1
SMALL
USER_CHARGES


@<TRIPOS>ATOM
      1 O1          1.0713   -0.4849   -0.5066 O.3        1 <1>        0.000
      2 C10         0.2717    0.2678    0.2375 C.2        1 <1>        0.000
      3 O2         -0.8796    0.5449   -0.0301 O.2        1 <1>        0.000
      4 N2          0.9829    0.6724    1.2987 N.am       1 <1>        0.000
      5 H           1.9292   -0.5555   -0.0817 H.spc      1 <1>        0.000
      6 H           0.5574    1.2853    1.9942 H.spc      1 <1>        0.000
      7 H           1.9497    0.3674    1.4110 H.spc      1 <1>        0.000
@<TRIPOS>BOND
     1    2    3 2  
     2    1    2 1  
     3    2    4 am 
     4    1    5 1  
     5    4    6 1  
     6    4    7 1  
