#      Rotatable Fragment
#      Build by yxyuan
#
# Name:          frag3-186-10/96164
# Creation time: Sat Jun  5 12:53:09 2010


@<TRIPOS>MOLECULE
frag3-186-10/96164
   11    10     1     1     1
SMALL
USER_CHARGES


@<TRIPOS>ATOM
      1 O5          2.4755   -0.0287    0.5879 O.3        1 <1>        0.000
      2 C18         1.4779    0.0636   -0.2948 C.2        1 <1>        0.000
      3 N1          0.3820    0.7046    0.2147 N.am       1 <1>        0.000
      4 O7          1.5431   -0.4190   -1.4157 O.2        1 <1>        0.000
      5 N2          0.1699    0.9210    1.5561 N.am       1 <1>        0.000
      6 C22        -0.4483    2.0050    2.0946 C.2        1 <1>        0.000
      7 O8         -1.1051    2.8654    1.5161 O.2        1 <1>        0.000
      8 H           2.2233    0.4139    1.4016 H.spc      1 <1>        0.000
      9 H          -0.3218    1.0432   -0.4414 H.spc      1 <1>        0.000
     10 H           0.5053    0.2067    2.2024 H.spc      1 <1>        0.000
     11 H          -0.3485    2.1250    3.1734 H.spc      1 <1>        0.000
@<TRIPOS>BOND
     1    1    2 1  
     2    2    3 am 
     3    2    4 2  
     4    3    5 1  
     5    5    6 am 
     6    6    7 2  
     7    1    8 1  
     8    3    9 1  
     9    5   10 1  
    10    6   11 1  
# Name:          frag3-186-10/96164
# Creation time: Sat Jun  5 12:53:09 2010


@<TRIPOS>MOLECULE
frag3-186-10/96164
   11    10     1     1     1
SMALL
USER_CHARGES


@<TRIPOS>ATOM
      1 O5          2.3516    0.4756    0.6329 O.3        1 <1>        0.000
      2 C18         1.4603    0.0250   -0.2550 C.2        1 <1>        0.000
      3 N1          0.1709    0.1658    0.1714 N.am       1 <1>        0.000
      4 O7          1.7945   -0.4953   -1.3104 O.2        1 <1>        0.000
      5 N2         -0.1977    0.8621    1.3012 N.am       1 <1>        0.000
      6 C22        -0.4472    2.1950    1.3591 C.2        1 <1>        0.000
      7 O8         -0.6374    2.8837    2.3596 O.2        1 <1>        0.000
      8 H           1.8897    0.8457    1.3887 H.spc      1 <1>        0.000
      9 H          -0.5658   -0.2723   -0.3816 H.spc      1 <1>        0.000
     10 H          -0.2910    0.3314    2.1673 H.spc      1 <1>        0.000
     11 H          -0.4833    2.7178    0.4034 H.spc      1 <1>        0.000
@<TRIPOS>BOND
     1    1    2 1  
     2    2    3 am 
     3    2    4 2  
     4    3    5 1  
     5    5    6 am 
     6    6    7 2  
     7    1    8 1  
     8    3    9 1  
     9    5   10 1  
    10    6   11 1  
# Name:          frag3-186-10/96164
# Creation time: Sat Jun  5 12:53:09 2010


@<TRIPOS>MOLECULE
frag3-186-10/96164
   11    10     1     1     1
SMALL
USER_CHARGES


@<TRIPOS>ATOM
      1 O5          2.8200    0.1825    0.3229 O.3        1 <1>        0.000
      2 C18         1.5833    0.0464   -0.1629 C.2        1 <1>        0.000
      3 N1          0.9024    1.1221    0.2949 N.am       1 <1>        0.000
      4 O7          1.1948   -0.9054   -0.8034 O.2        1 <1>        0.000
      5 N2         -0.4307    1.2512    0.5271 N.am       1 <1>        0.000
      6 C22        -1.0212    1.8872    1.5728 C.2        1 <1>        0.000
      7 O8         -0.5535    2.5279    2.5075 O.2        1 <1>        0.000
      8 H           2.8878    1.0166    0.7932 H.spc      1 <1>        0.000
      9 H           1.4661    1.9488    0.4928 H.spc      1 <1>        0.000
     10 H          -1.0552    0.8247   -0.1574 H.spc      1 <1>        0.000
     11 H          -2.1087    1.8144    1.5822 H.spc      1 <1>        0.000
@<TRIPOS>BOND
     1    1    2 1  
     2    2    3 am 
     3    2    4 2  
     4    3    5 1  
     5    5    6 am 
     6    6    7 2  
     7    1    8 1  
     8    3    9 1  
     9    5   10 1  
    10    6   11 1  
# Name:          frag3-186-10/96164
# Creation time: Sat Jun  5 12:53:09 2010


@<TRIPOS>MOLECULE
frag3-186-10/96164
   11    10     1     1     1
SMALL
USER_CHARGES


@<TRIPOS>ATOM
      1 O5          2.2266    0.7176    0.6243 O.3        1 <1>        0.000
      2 C18         1.3373    0.1811   -0.2227 C.2        1 <1>        0.000
      3 N1          0.0783    0.1391    0.3110 N.am       1 <1>        0.000
      4 O7          1.6514   -0.2466   -1.3189 O.2        1 <1>        0.000
      5 N2         -0.2497    0.5729    1.5700 N.am       1 <1>        0.000
      6 C22        -0.2442    1.8651    1.9889 C.2        1 <1>        0.000
      7 O8         -0.3047    2.8828    1.3062 O.2        1 <1>        0.000
      8 H           1.7773    0.9910    1.4274 H.spc      1 <1>        0.000
      9 H          -0.6695   -0.2419   -0.2686 H.spc      1 <1>        0.000
     10 H          -0.5214   -0.1363    2.2509 H.spc      1 <1>        0.000
     11 H          -0.1777    2.0169    3.0662 H.spc      1 <1>        0.000
@<TRIPOS>BOND
     1    1    2 1  
     2    2    3 am 
     3    2    4 2  
     4    3    5 1  
     5    5    6 am 
     6    6    7 2  
     7    1    8 1  
     8    3    9 1  
     9    5   10 1  
    10    6   11 1  
# Name:          frag3-186-10/96164
# Creation time: Sat Jun  5 12:53:09 2010


@<TRIPOS>MOLECULE
frag3-186-10/96164
   11    10     1     1     1
SMALL
USER_CHARGES


@<TRIPOS>ATOM
      1 O5          1.9205   -0.9706   -0.2609 O.3        1 <1>        0.000
      2 C18         1.3528    0.2098    0.0086 C.2        1 <1>        0.000
      3 N1          1.1500    0.3242    1.3608 N.am       1 <1>        0.000
      4 O7          1.0964    1.0098   -0.8726 O.2        1 <1>        0.000
      5 N2          0.6063    1.4160    1.9858 N.am       1 <1>        0.000
      6 C22        -0.4692    2.1261    1.5194 C.2        1 <1>        0.000
      7 O8         -1.1618    1.9966    0.5177 O.2        1 <1>        0.000
      8 H           2.0435   -1.4593    0.5562 H.spc      1 <1>        0.000
      9 H           1.4252   -0.4644    1.9462 H.spc      1 <1>        0.000
     10 H           1.0325    1.7220    2.8605 H.spc      1 <1>        0.000
     11 H          -0.7621    2.9597    2.1576 H.spc      1 <1>        0.000
@<TRIPOS>BOND
     1    1    2 1  
     2    2    3 am 
     3    2    4 2  
     4    3    5 1  
     5    5    6 am 
     6    6    7 2  
     7    1    8 1  
     8    3    9 1  
     9    5   10 1  
    10    6   11 1  
# Name:          frag3-186-10/96164
# Creation time: Sat Jun  5 12:53:09 2010


@<TRIPOS>MOLECULE
frag3-186-10/96164
   11    10     1     1     1
SMALL
USER_CHARGES


@<TRIPOS>ATOM
      1 O5          2.3929    0.0213    0.7142 O.3        1 <1>        0.000
      2 C18         1.5114   -0.0561   -0.2852 C.2        1 <1>        0.000
      3 N1          0.4366    0.7704   -0.1101 N.am       1 <1>        0.000
      4 O7          1.6462   -0.8330   -1.2209 O.2        1 <1>        0.000
      5 N2          0.3152    1.6612    0.9357 N.am       1 <1>        0.000
      6 C22        -0.8135    1.8610    1.6659 C.2        1 <1>        0.000
      7 O8         -0.9937    2.6871    2.5592 O.2        1 <1>        0.000
      8 H           2.1050    0.6877    1.3424 H.spc      1 <1>        0.000
      9 H          -0.3198    0.7256   -0.7929 H.spc      1 <1>        0.000
     10 H           1.1371    2.2135    1.1804 H.spc      1 <1>        0.000
     11 H          -1.6583    1.2130    1.4325 H.spc      1 <1>        0.000
@<TRIPOS>BOND
     1    1    2 1  
     2    2    3 am 
     3    2    4 2  
     4    3    5 1  
     5    5    6 am 
     6    6    7 2  
     7    1    8 1  
     8    3    9 1  
     9    5   10 1  
    10    6   11 1  
# Name:          frag3-186-10/96164
# Creation time: Sat Jun  5 12:53:09 2010


@<TRIPOS>MOLECULE
frag3-186-10/96164
   11    10     1     1     1
SMALL
USER_CHARGES


@<TRIPOS>ATOM
      1 O5          2.0586   -0.5747    0.7523 O.3        1 <1>        0.000
      2 C18         1.4402    0.0137   -0.2804 C.2        1 <1>        0.000
      3 N1          0.6503    1.0567    0.1194 N.am       1 <1>        0.000
      4 O7          1.5560   -0.3812   -1.4266 O.2        1 <1>        0.000
      5 N2          0.6913    1.6337    1.3631 N.am       1 <1>        0.000
      6 C22        -0.3530    2.2278    1.9963 C.2        1 <1>        0.000
      7 O8         -1.5483    2.1360    1.7348 O.2        1 <1>        0.000
      8 H           1.8360   -0.1115    1.5632 H.spc      1 <1>        0.000
      9 H          -0.0164    1.4319   -0.5552 H.spc      1 <1>        0.000
     10 H           1.5844    1.6149    1.8555 H.spc      1 <1>        0.000
     11 H          -0.0974    2.8658    2.8423 H.spc      1 <1>        0.000
@<TRIPOS>BOND
     1    1    2 1  
     2    2    3 am 
     3    2    4 2  
     4    3    5 1  
     5    5    6 am 
     6    6    7 2  
     7    1    8 1  
     8    3    9 1  
     9    5   10 1  
    10    6   11 1  
# Name:          frag3-186-10/96164
# Creation time: Sat Jun  5 12:53:09 2010


@<TRIPOS>MOLECULE
frag3-186-10/96164
   11    10     1     1     1
SMALL
USER_CHARGES


@<TRIPOS>ATOM
      1 O5          1.5274   -0.4821    0.9829 O.3        1 <1>        0.000
      2 C18         1.3189    0.1198   -0.1967 C.2        1 <1>        0.000
      3 N1          1.0602    1.4556   -0.0498 N.am       1 <1>        0.000
      4 O7          1.3280   -0.4836   -1.2532 O.2        1 <1>        0.000
      5 N2          0.8431    2.0831    1.1494 N.am       1 <1>        0.000
      6 C22        -0.3366    2.1210    1.8222 C.2        1 <1>        0.000
      7 O8         -1.2460    1.2981    1.8039 O.2        1 <1>        0.000
      8 H           1.4785    0.1693    1.6863 H.spc      1 <1>        0.000
      9 H           1.0265    2.0261   -0.8946 H.spc      1 <1>        0.000
     10 H           1.6365    2.5635    1.5737 H.spc      1 <1>        0.000
     11 H          -0.4948    2.9920    2.4581 H.spc      1 <1>        0.000
@<TRIPOS>BOND
     1    1    2 1  
     2    2    3 am 
     3    2    4 2  
     4    3    5 1  
     5    5    6 am 
     6    6    7 2  
     7    1    8 1  
     8    3    9 1  
     9    5   10 1  
    10    6   11 1  
# Name:          frag3-186-10/96164
# Creation time: Sat Jun  5 12:53:09 2010


@<TRIPOS>MOLECULE
frag3-186-10/96164
   11    10     1     1     1
SMALL
USER_CHARGES


@<TRIPOS>ATOM
      1 O5          2.8229   -0.3878    0.1499 O.3        1 <1>        0.000
      2 C18         1.5743    0.0447   -0.0684 C.2        1 <1>        0.000
      3 N1          0.8460    0.1160    1.0885 N.am       1 <1>        0.000
      4 O7          1.1512    0.3004   -1.1810 O.2        1 <1>        0.000
      5 N2         -0.2841    0.8754    1.2503 N.am       1 <1>        0.000
      6 C22        -0.3185    2.2229    1.4209 C.2        1 <1>        0.000
      7 O8         -1.2968    2.9402    1.5986 O.2        1 <1>        0.000
      8 H           2.9516   -0.5289    1.0907 H.spc      1 <1>        0.000
      9 H           1.1663   -0.4340    1.8856 H.spc      1 <1>        0.000
     10 H          -1.1785    0.3851    1.2418 H.spc      1 <1>        0.000
     11 H           0.6458    2.7305    1.3967 H.spc      1 <1>        0.000
@<TRIPOS>BOND
     1    1    2 1  
     2    2    3 am 
     3    2    4 2  
     4    3    5 1  
     5    5    6 am 
     6    6    7 2  
     7    1    8 1  
     8    3    9 1  
     9    5   10 1  
    10    6   11 1  
# Name:          frag3-186-10/96164 -- energy: 0.665265
# Creation time: Sat Jun  5 12:53:09 2010


@<TRIPOS>MOLECULE
frag3-186-10/96164 -- energy: 0.665265
   11    10     1     1     1
SMALL
USER_CHARGES


@<TRIPOS>ATOM
      1 O5          2.4755   -0.0287    0.5879 O.3        1 <1>        0.000
      2 C18         1.4779    0.0636   -0.2948 C.2        1 <1>        0.000
      3 N1          0.3820    0.7046    0.2147 N.am       1 <1>        0.000
      4 O7          1.5431   -0.4190   -1.4157 O.2        1 <1>        0.000
      5 N2          0.1699    0.9210    1.5561 N.am       1 <1>        0.000
      6 C22        -0.4483    2.0050    2.0946 C.2        1 <1>        0.000
      7 O8         -1.1051    2.8654    1.5161 O.2        1 <1>        0.000
      8 H           2.2233    0.4139    1.4016 H.spc      1 <1>        0.000
      9 H          -0.3218    1.0432   -0.4414 H.spc      1 <1>        0.000
     10 H           0.5053    0.2067    2.2024 H.spc      1 <1>        0.000
     11 H          -0.3485    2.1250    3.1734 H.spc      1 <1>        0.000
@<TRIPOS>BOND
     1    1    2 1  
     2    2    3 am 
     3    2    4 2  
     4    3    5 1  
     5    5    6 am 
     6    6    7 2  
     7    1    8 1  
     8    3    9 1  
     9    5   10 1  
    10    6   11 1  
# Name:          frag3-186-10/96164 -- energy: 0.424551
# Creation time: Sat Jun  5 12:53:09 2010


@<TRIPOS>MOLECULE
frag3-186-10/96164 -- energy: 0.424551
   11    10     1     1     1
SMALL
USER_CHARGES


@<TRIPOS>ATOM
      1 O5          2.3516    0.4756    0.6329 O.3        1 <1>        0.000
      2 C18         1.4603    0.0250   -0.2550 C.2        1 <1>        0.000
      3 N1          0.1709    0.1658    0.1714 N.am       1 <1>        0.000
      4 O7          1.7945   -0.4953   -1.3104 O.2        1 <1>        0.000
      5 N2         -0.1977    0.8621    1.3012 N.am       1 <1>        0.000
      6 C22        -0.4472    2.1950    1.3591 C.2        1 <1>        0.000
      7 O8         -0.6374    2.8837    2.3596 O.2        1 <1>        0.000
      8 H           1.8897    0.8457    1.3887 H.spc      1 <1>        0.000
      9 H          -0.5658   -0.2723   -0.3816 H.spc      1 <1>        0.000
     10 H          -0.2910    0.3314    2.1673 H.spc      1 <1>        0.000
     11 H          -0.4833    2.7178    0.4034 H.spc      1 <1>        0.000
@<TRIPOS>BOND
     1    1    2 1  
     2    2    3 am 
     3    2    4 2  
     4    3    5 1  
     5    5    6 am 
     6    6    7 2  
     7    1    8 1  
     8    3    9 1  
     9    5   10 1  
    10    6   11 1  
# Name:          frag3-186-10/96164 -- energy: 1.709949
# Creation time: Sat Jun  5 12:53:09 2010


@<TRIPOS>MOLECULE
frag3-186-10/96164 -- energy: 1.709949
   11    10     1     1     1
SMALL
USER_CHARGES


@<TRIPOS>ATOM
      1 O5          2.8200    0.1825    0.3229 O.3        1 <1>        0.000
      2 C18         1.5833    0.0464   -0.1629 C.2        1 <1>        0.000
      3 N1          0.9024    1.1221    0.2949 N.am       1 <1>        0.000
      4 O7          1.1948   -0.9054   -0.8034 O.2        1 <1>        0.000
      5 N2         -0.4307    1.2512    0.5271 N.am       1 <1>        0.000
      6 C22        -1.0212    1.8872    1.5728 C.2        1 <1>        0.000
      7 O8         -0.5535    2.5279    2.5075 O.2        1 <1>        0.000
      8 H           2.8878    1.0166    0.7932 H.spc      1 <1>        0.000
      9 H           1.4661    1.9488    0.4928 H.spc      1 <1>        0.000
     10 H          -1.0552    0.8247   -0.1574 H.spc      1 <1>        0.000
     11 H          -2.1087    1.8144    1.5822 H.spc      1 <1>        0.000
@<TRIPOS>BOND
     1    1    2 1  
     2    2    3 am 
     3    2    4 2  
     4    3    5 1  
     5    5    6 am 
     6    6    7 2  
     7    1    8 1  
     8    3    9 1  
     9    5   10 1  
    10    6   11 1  
# Name:          frag3-186-10/96164 -- energy: 1.176369
# Creation time: Sat Jun  5 12:53:09 2010


@<TRIPOS>MOLECULE
frag3-186-10/96164 -- energy: 1.176369
   11    10     1     1     1
SMALL
USER_CHARGES


@<TRIPOS>ATOM
      1 O5          2.2266    0.7176    0.6243 O.3        1 <1>        0.000
      2 C18         1.3373    0.1811   -0.2227 C.2        1 <1>        0.000
      3 N1          0.0783    0.1391    0.3110 N.am       1 <1>        0.000
      4 O7          1.6514   -0.2466   -1.3189 O.2        1 <1>        0.000
      5 N2         -0.2497    0.5729    1.5700 N.am       1 <1>        0.000
      6 C22        -0.2442    1.8651    1.9889 C.2        1 <1>        0.000
      7 O8         -0.3047    2.8828    1.3062 O.2        1 <1>        0.000
      8 H           1.7773    0.9910    1.4274 H.spc      1 <1>        0.000
      9 H          -0.6695   -0.2419   -0.2686 H.spc      1 <1>        0.000
     10 H          -0.5214   -0.1363    2.2509 H.spc      1 <1>        0.000
     11 H          -0.1777    2.0169    3.0662 H.spc      1 <1>        0.000
@<TRIPOS>BOND
     1    1    2 1  
     2    2    3 am 
     3    2    4 2  
     4    3    5 1  
     5    5    6 am 
     6    6    7 2  
     7    1    8 1  
     8    3    9 1  
     9    5   10 1  
    10    6   11 1  
# Name:          frag3-186-10/96164 -- energy: 0.327377
# Creation time: Sat Jun  5 12:53:09 2010


@<TRIPOS>MOLECULE
frag3-186-10/96164 -- energy: 0.327377
   11    10     1     1     1
SMALL
USER_CHARGES


@<TRIPOS>ATOM
      1 O5          1.9205   -0.9706   -0.2609 O.3        1 <1>        0.000
      2 C18         1.3528    0.2098    0.0086 C.2        1 <1>        0.000
      3 N1          1.1500    0.3242    1.3608 N.am       1 <1>        0.000
      4 O7          1.0964    1.0098   -0.8726 O.2        1 <1>        0.000
      5 N2          0.6063    1.4160    1.9858 N.am       1 <1>        0.000
      6 C22        -0.4692    2.1261    1.5194 C.2        1 <1>        0.000
      7 O8         -1.1618    1.9966    0.5177 O.2        1 <1>        0.000
      8 H           2.0435   -1.4593    0.5562 H.spc      1 <1>        0.000
      9 H           1.4252   -0.4644    1.9462 H.spc      1 <1>        0.000
     10 H           1.0325    1.7220    2.8605 H.spc      1 <1>        0.000
     11 H          -0.7621    2.9597    2.1576 H.spc      1 <1>        0.000
@<TRIPOS>BOND
     1    1    2 1  
     2    2    3 am 
     3    2    4 2  
     4    3    5 1  
     5    5    6 am 
     6    6    7 2  
     7    1    8 1  
     8    3    9 1  
     9    5   10 1  
    10    6   11 1  
# Name:          frag3-186-10/96164 -- energy: 1.436003
# Creation time: Sat Jun  5 12:53:09 2010


@<TRIPOS>MOLECULE
frag3-186-10/96164 -- energy: 1.436003
   11    10     1     1     1
SMALL
USER_CHARGES


@<TRIPOS>ATOM
      1 O5          2.3929    0.0213    0.7142 O.3        1 <1>        0.000
      2 C18         1.5114   -0.0561   -0.2852 C.2        1 <1>        0.000
      3 N1          0.4366    0.7704   -0.1101 N.am       1 <1>        0.000
      4 O7          1.6462   -0.8330   -1.2209 O.2        1 <1>        0.000
      5 N2          0.3152    1.6612    0.9357 N.am       1 <1>        0.000
      6 C22        -0.8135    1.8610    1.6659 C.2        1 <1>        0.000
      7 O8         -0.9937    2.6871    2.5592 O.2        1 <1>        0.000
      8 H           2.1050    0.6877    1.3424 H.spc      1 <1>        0.000
      9 H          -0.3198    0.7256   -0.7929 H.spc      1 <1>        0.000
     10 H           1.1371    2.2135    1.1804 H.spc      1 <1>        0.000
     11 H          -1.6583    1.2130    1.4325 H.spc      1 <1>        0.000
@<TRIPOS>BOND
     1    1    2 1  
     2    2    3 am 
     3    2    4 2  
     4    3    5 1  
     5    5    6 am 
     6    6    7 2  
     7    1    8 1  
     8    3    9 1  
     9    5   10 1  
    10    6   11 1  
# Name:          frag3-186-10/96164 -- energy: 1.658124
# Creation time: Sat Jun  5 12:53:09 2010


@<TRIPOS>MOLECULE
frag3-186-10/96164 -- energy: 1.658124
   11    10     1     1     1
SMALL
USER_CHARGES


@<TRIPOS>ATOM
      1 O5          2.0586   -0.5747    0.7523 O.3        1 <1>        0.000
      2 C18         1.4402    0.0137   -0.2804 C.2        1 <1>        0.000
      3 N1          0.6503    1.0567    0.1194 N.am       1 <1>        0.000
      4 O7          1.5560   -0.3812   -1.4266 O.2        1 <1>        0.000
      5 N2          0.6913    1.6337    1.3631 N.am       1 <1>        0.000
      6 C22        -0.3530    2.2278    1.9963 C.2        1 <1>        0.000
      7 O8         -1.5483    2.1360    1.7348 O.2        1 <1>        0.000
      8 H           1.8360   -0.1115    1.5632 H.spc      1 <1>        0.000
      9 H          -0.0164    1.4319   -0.5552 H.spc      1 <1>        0.000
     10 H           1.5844    1.6149    1.8555 H.spc      1 <1>        0.000
     11 H          -0.0974    2.8658    2.8423 H.spc      1 <1>        0.000
@<TRIPOS>BOND
     1    1    2 1  
     2    2    3 am 
     3    2    4 2  
     4    3    5 1  
     5    5    6 am 
     6    6    7 2  
     7    1    8 1  
     8    3    9 1  
     9    5   10 1  
    10    6   11 1  
# Name:          frag3-186-10/96164 -- energy: 0.354198
# Creation time: Sat Jun  5 12:53:09 2010


@<TRIPOS>MOLECULE
frag3-186-10/96164 -- energy: 0.354198
   11    10     1     1     1
SMALL
USER_CHARGES


@<TRIPOS>ATOM
      1 O5          1.5274   -0.4821    0.9829 O.3        1 <1>        0.000
      2 C18         1.3189    0.1198   -0.1967 C.2        1 <1>        0.000
      3 N1          1.0602    1.4556   -0.0498 N.am       1 <1>        0.000
      4 O7          1.3280   -0.4836   -1.2532 O.2        1 <1>        0.000
      5 N2          0.8431    2.0831    1.1494 N.am       1 <1>        0.000
      6 C22        -0.3366    2.1210    1.8222 C.2        1 <1>        0.000
      7 O8         -1.2460    1.2981    1.8039 O.2        1 <1>        0.000
      8 H           1.4785    0.1693    1.6863 H.spc      1 <1>        0.000
      9 H           1.0265    2.0261   -0.8946 H.spc      1 <1>        0.000
     10 H           1.6365    2.5635    1.5737 H.spc      1 <1>        0.000
     11 H          -0.4948    2.9920    2.4581 H.spc      1 <1>        0.000
@<TRIPOS>BOND
     1    1    2 1  
     2    2    3 am 
     3    2    4 2  
     4    3    5 1  
     5    5    6 am 
     6    6    7 2  
     7    1    8 1  
     8    3    9 1  
     9    5   10 1  
    10    6   11 1  
# Name:          frag3-186-10/96164 -- energy: -0.320173
# Creation time: Sat Jun  5 12:53:09 2010


@<TRIPOS>MOLECULE
frag3-186-10/96164 -- energy: -0.320173
   11    10     1     1     1
SMALL
USER_CHARGES


@<TRIPOS>ATOM
      1 O5          2.8229   -0.3878    0.1499 O.3        1 <1>        0.000
      2 C18         1.5743    0.0447   -0.0684 C.2        1 <1>        0.000
      3 N1          0.8460    0.1160    1.0885 N.am       1 <1>        0.000
      4 O7          1.1512    0.3004   -1.1810 O.2        1 <1>        0.000
      5 N2         -0.2841    0.8754    1.2503 N.am       1 <1>        0.000
      6 C22        -0.3185    2.2229    1.4209 C.2        1 <1>        0.000
      7 O8         -1.2968    2.9402    1.5986 O.2        1 <1>        0.000
      8 H           2.9516   -0.5289    1.0907 H.spc      1 <1>        0.000
      9 H           1.1663   -0.4340    1.8856 H.spc      1 <1>        0.000
     10 H          -1.1785    0.3851    1.2418 H.spc      1 <1>        0.000
     11 H           0.6458    2.7305    1.3967 H.spc      1 <1>        0.000
@<TRIPOS>BOND
     1    1    2 1  
     2    2    3 am 
     3    2    4 2  
     4    3    5 1  
     5    5    6 am 
     6    6    7 2  
     7    1    8 1  
     8    3    9 1  
     9    5   10 1  
    10    6   11 1  
