#      Rotatable Fragment
#      Build by yxyuan
#
# Name:          frag5-688-22/41815
# Creation time: Sat Jun  5 12:53:04 2010


@<TRIPOS>MOLECULE
frag5-688-22/41815
   17    18     1     1     1
SMALL
USER_CHARGES


@<TRIPOS>ATOM
      1 N1          1.6366    1.4568   -0.0794 N.2        1 <1>        0.000
      2 C1          0.3141    0.9372   -0.0118 C.ar       1 <1>        0.000
      3 C2          0.3888   -0.4913   -0.0035 C.ar       1 <1>        0.000
      4 C3         -0.7139   -1.3310    0.0637 C.ar       1 <1>        0.000
      5 C4         -1.9400   -0.6474    0.1071 C.ar       1 <1>        0.000
      6 C5         -2.0736    0.7553    0.0959 C.ar       1 <1>        0.000
      7 C6         -0.9279    1.5522    0.0355 C.ar       1 <1>        0.000
      8 O1         -0.5788   -2.6586    0.0649 O.3        1 <1>        0.000
      9 C7          1.8201   -0.7949   -0.0765 C.3        1 <1>        0.000
     10 C8          2.5369    0.4999   -0.1247 C.2        1 <1>        0.000
     11 H          -2.8515   -1.2433    0.1526 H.spc      1 <1>        0.000
     12 H          -3.0616    1.2142    0.1340 H.spc      1 <1>        0.000
     13 H          -1.0088    2.6392    0.0257 H.spc      1 <1>        0.000
     14 H          -1.4459   -3.0673    0.1161 H.spc      1 <1>        0.000
     15 H           2.1349   -1.3774    0.7894 H.spc      1 <1>        0.000
     16 H           2.0426   -1.3914   -0.9612 H.spc      1 <1>        0.000
     17 H           3.6167    0.6353   -0.1866 H.spc      1 <1>        0.000
@<TRIPOS>BOND
     1    6    7 ar 
     2    9   10 1  
     3    1   10 2  
     4    1    2 1  
     5    2    3 ar 
     6    2    7 ar 
     7    3    4 ar 
     8    3    9 1  
     9    4    5 ar 
    10    4    8 1  
    11    5    6 ar 
    12    5   11 1  
    13    6   12 1  
    14    7   13 1  
    15    8   14 1  
    16    9   15 1  
    17    9   16 1  
    18   10   17 1  
# Name:          frag5-688-22/41815 -- energy: -0.848537
# Creation time: Sat Jun  5 12:53:04 2010


@<TRIPOS>MOLECULE
frag5-688-22/41815 -- energy: -0.848537
   17    18     1     1     1
SMALL
USER_CHARGES


@<TRIPOS>ATOM
      1 N1          1.6366    1.4568   -0.0794 N.2        1 <1>        0.000
      2 C1          0.3141    0.9372   -0.0118 C.ar       1 <1>        0.000
      3 C2          0.3888   -0.4913   -0.0035 C.ar       1 <1>        0.000
      4 C3         -0.7139   -1.3310    0.0637 C.ar       1 <1>        0.000
      5 C4         -1.9400   -0.6474    0.1071 C.ar       1 <1>        0.000
      6 C5         -2.0736    0.7553    0.0959 C.ar       1 <1>        0.000
      7 C6         -0.9279    1.5522    0.0355 C.ar       1 <1>        0.000
      8 O1         -0.5788   -2.6586    0.0649 O.3        1 <1>        0.000
      9 C7          1.8201   -0.7949   -0.0765 C.3        1 <1>        0.000
     10 C8          2.5369    0.4999   -0.1247 C.2        1 <1>        0.000
     11 H          -2.8515   -1.2433    0.1526 H.spc      1 <1>        0.000
     12 H          -3.0616    1.2142    0.1340 H.spc      1 <1>        0.000
     13 H          -1.0088    2.6392    0.0257 H.spc      1 <1>        0.000
     14 H          -1.4459   -3.0673    0.1161 H.spc      1 <1>        0.000
     15 H           2.1349   -1.3774    0.7894 H.spc      1 <1>        0.000
     16 H           2.0426   -1.3914   -0.9612 H.spc      1 <1>        0.000
     17 H           3.6167    0.6353   -0.1866 H.spc      1 <1>        0.000
@<TRIPOS>BOND
     1    6    7 ar 
     2    9   10 1  
     3    1   10 2  
     4    1    2 1  
     5    2    3 ar 
     6    2    7 ar 
     7    3    4 ar 
     8    3    9 1  
     9    4    5 ar 
    10    4    8 1  
    11    5    6 ar 
    12    5   11 1  
    13    6   12 1  
    14    7   13 1  
    15    8   14 1  
    16    9   15 1  
    17    9   16 1  
    18   10   17 1  
