#      Rotatable Fragment
#      Build by yxyuan
#
# Name:          frag3-279-3/96164
# Creation time: Sat Jun  5 12:53:23 2010


@<TRIPOS>MOLECULE
frag3-279-3/96164
    8     7     1     1     1
SMALL
USER_CHARGES


@<TRIPOS>ATOM
      1 N2         -1.2805   -0.3985    0.0276 N.pl3      1 <1>        0.000
      2 C6         -0.0044    0.0003   -0.0216 C.2        1 <1>        0.000
      3 N3          0.2400    1.0176    0.7186 N.2        1 <1>        0.000
      4 S3          1.1883   -0.7883   -0.9983 S.3        1 <1>        0.000
      5 H          -1.9481    0.0995    0.6163 H.spc      1 <1>        0.000
      6 H          -1.5858   -1.2006   -0.5236 H.spc      1 <1>        0.000
      7 H           1.1819    1.4074    0.7549 H.spc      1 <1>        0.000
      8 H           0.6269   -1.8053   -1.6459 H.spc      1 <1>        0.000
@<TRIPOS>BOND
     1    1    2 1  
     2    2    3 2  
     3    2    4 1  
     4    1    5 1  
     5    1    6 1  
     6    3    7 1  
     7    4    8 1  
# Name:          frag3-279-3/96164 -- energy: -0.235475
# Creation time: Sat Jun  5 12:53:23 2010


@<TRIPOS>MOLECULE
frag3-279-3/96164 -- energy: -0.235475
    8     7     1     1     1
SMALL
USER_CHARGES


@<TRIPOS>ATOM
      1 N2         -1.2805   -0.3985    0.0276 N.pl3      1 <1>        0.000
      2 C6         -0.0044    0.0003   -0.0216 C.2        1 <1>        0.000
      3 N3          0.2400    1.0176    0.7186 N.2        1 <1>        0.000
      4 S3          1.1883   -0.7883   -0.9983 S.3        1 <1>        0.000
      5 H          -1.9481    0.0995    0.6163 H.spc      1 <1>        0.000
      6 H          -1.5858   -1.2006   -0.5236 H.spc      1 <1>        0.000
      7 H           1.1819    1.4074    0.7549 H.spc      1 <1>        0.000
      8 H           0.6269   -1.8053   -1.6459 H.spc      1 <1>        0.000
@<TRIPOS>BOND
     1    1    2 1  
     2    2    3 2  
     3    2    4 1  
     4    1    5 1  
     5    1    6 1  
     6    3    7 1  
     7    4    8 1  
