#      Rotatable Fragment
#      Build by yxyuan
#
# Name:          frag4-482-89/150395
# Creation time: Sat Jun  5 12:53:38 2010


@<TRIPOS>MOLECULE
frag4-482-89/150395
   24    25     1     1     1
SMALL
USER_CHARGES


@<TRIPOS>ATOM
      1 N1          3.3552    0.4724   -0.0237 N.3        1 <1>        0.000
      2 C1          2.0347   -0.0294   -0.3993 C.3        1 <1>        0.000
      3 C2          4.2397   -0.6947   -0.0724 C.3        1 <1>        0.000
      4 C4          1.9544   -1.3760    0.3417 C.3        1 <1>        0.000
      5 C5          0.8125    0.8283   -0.0752 C.3        1 <1>        0.000
      6 C6          3.3423   -1.9440    0.0607 C.3        1 <1>        0.000
      7 C9          0.7138   -2.1691   -0.0945 C.3        1 <1>        0.000
      8 C10        -0.4712    0.0703   -0.4650 C.3        1 <1>        0.000
      9 C12        -0.5478   -1.3304    0.1810 C.3        1 <1>        0.000
     10 H           3.3456    0.8981    0.9032 H.spc      1 <1>        0.000
     11 H           1.9760   -0.0634   -1.4872 H.spc      1 <1>        0.000
     12 H           4.9729   -0.6579    0.7333 H.spc      1 <1>        0.000
     13 H           4.7980   -0.7178   -1.0083 H.spc      1 <1>        0.000
     14 H           1.7799   -1.3604    1.4175 H.spc      1 <1>        0.000
     15 H           0.8662    1.7610   -0.6366 H.spc      1 <1>        0.000
     16 H           0.7949    1.0436    0.9932 H.spc      1 <1>        0.000
     17 H           3.3608   -2.5625   -0.8366 H.spc      1 <1>        0.000
     18 H           3.6818   -2.6133    0.8512 H.spc      1 <1>        0.000
     19 H           0.6614   -3.1026    0.4658 H.spc      1 <1>        0.000
     20 H           0.7787   -2.3922   -1.1594 H.spc      1 <1>        0.000
     21 H          -1.3248    0.6503   -0.1142 H.spc      1 <1>        0.000
     22 H          -0.4716   -0.0574   -1.5475 H.spc      1 <1>        0.000
     23 H          -1.4028   -1.8542   -0.2465 H.spc      1 <1>        0.000
     24 H          -0.6400   -1.2014    1.2594 H.spc      1 <1>        0.000
@<TRIPOS>BOND
     1    1    2 1  
     2    4    6 1  
     3    2    4 1  
     4    2    5 1  
     5    4    7 1  
     6    8    9 1  
     7    7    9 1  
     8    1    3 1  
     9    3    6 1  
    10    5    8 1  
    11    1   10 1  
    12    2   11 1  
    13    3   12 1  
    14    3   13 1  
    15    4   14 1  
    16    5   15 1  
    17    5   16 1  
    18    6   17 1  
    19    6   18 1  
    20    7   19 1  
    21    7   20 1  
    22    8   21 1  
    23    8   22 1  
    24    9   23 1  
    25    9   24 1  
# Name:          frag4-482-89/150395 -- energy: -2.993649
# Creation time: Sat Jun  5 12:53:38 2010


@<TRIPOS>MOLECULE
frag4-482-89/150395 -- energy: -2.993649
   24    25     1     1     1
SMALL
USER_CHARGES


@<TRIPOS>ATOM
      1 N1          3.3552    0.4724   -0.0237 N.3        1 <1>        0.000
      2 C1          2.0347   -0.0294   -0.3993 C.3        1 <1>        0.000
      3 C2          4.2397   -0.6947   -0.0724 C.3        1 <1>        0.000
      4 C4          1.9544   -1.3760    0.3417 C.3        1 <1>        0.000
      5 C5          0.8125    0.8283   -0.0752 C.3        1 <1>        0.000
      6 C6          3.3423   -1.9440    0.0607 C.3        1 <1>        0.000
      7 C9          0.7138   -2.1691   -0.0945 C.3        1 <1>        0.000
      8 C10        -0.4712    0.0703   -0.4650 C.3        1 <1>        0.000
      9 C12        -0.5478   -1.3304    0.1810 C.3        1 <1>        0.000
     10 H           3.3456    0.8981    0.9032 H.spc      1 <1>        0.000
     11 H           1.9760   -0.0634   -1.4872 H.spc      1 <1>        0.000
     12 H           4.9729   -0.6579    0.7333 H.spc      1 <1>        0.000
     13 H           4.7980   -0.7178   -1.0083 H.spc      1 <1>        0.000
     14 H           1.7799   -1.3604    1.4175 H.spc      1 <1>        0.000
     15 H           0.8662    1.7610   -0.6366 H.spc      1 <1>        0.000
     16 H           0.7949    1.0436    0.9932 H.spc      1 <1>        0.000
     17 H           3.3608   -2.5625   -0.8366 H.spc      1 <1>        0.000
     18 H           3.6818   -2.6133    0.8512 H.spc      1 <1>        0.000
     19 H           0.6614   -3.1026    0.4658 H.spc      1 <1>        0.000
     20 H           0.7787   -2.3922   -1.1594 H.spc      1 <1>        0.000
     21 H          -1.3248    0.6503   -0.1142 H.spc      1 <1>        0.000
     22 H          -0.4716   -0.0574   -1.5475 H.spc      1 <1>        0.000
     23 H          -1.4028   -1.8542   -0.2465 H.spc      1 <1>        0.000
     24 H          -0.6400   -1.2014    1.2594 H.spc      1 <1>        0.000
@<TRIPOS>BOND
     1    1    2 1  
     2    4    6 1  
     3    2    4 1  
     4    2    5 1  
     5    4    7 1  
     6    8    9 1  
     7    7    9 1  
     8    1    3 1  
     9    3    6 1  
    10    5    8 1  
    11    1   10 1  
    12    2   11 1  
    13    3   12 1  
    14    3   13 1  
    15    4   14 1  
    16    5   15 1  
    17    5   16 1  
    18    6   17 1  
    19    6   18 1  
    20    7   19 1  
    21    7   20 1  
    22    8   21 1  
    23    8   22 1  
    24    9   23 1  
    25    9   24 1  
