#      Rotatable Fragment
#      Build by yxyuan
#
# Name:          frag5-517-387/138278
# Creation time: Sat Jun  5 12:53:40 2010


@<TRIPOS>MOLECULE
frag5-517-387/138278
   19    20     1     1     1
SMALL
USER_CHARGES


@<TRIPOS>ATOM
      1 N1          1.3727   -1.5602   -0.0415 N.am       1 <1>        0.000
      2 C1          1.3011   -0.1242   -0.1600 C.3        1 <1>        0.000
      3 C2          0.0726   -1.8471    0.0796 C.2        1 <1>        0.000
      4 C3          2.5264   -2.2582   -0.0461 C.2        1 <1>        0.000
      5 C4         -0.2174   -0.3642    0.0767 C.3        1 <1>        0.000
      6 S1          2.3672    0.5926    1.0823 S.3        1 <1>        0.000
      7 O1         -0.6070   -2.8402    0.1820 O.2        1 <1>        0.000
      8 C5          3.7095   -1.6168    0.0973 C.2        1 <1>        0.000
      9 C6          2.4888   -3.7308   -0.1714 C.2        1 <1>        0.000
     10 C7          3.8506   -0.1320    0.3430 C.3        1 <1>        0.000
     11 O2          1.3769   -4.4080    0.1253 O.3        1 <1>        0.000
     12 O3          3.4627   -4.3573   -0.5524 O.2        1 <1>        0.000
     13 H           1.5916    0.5348   -0.9782 H.spc      1 <1>        0.000
     14 H          -0.7412    0.1101    0.9066 H.spc      1 <1>        0.000
     15 H          -0.9669    0.0630   -0.5895 H.spc      1 <1>        0.000
     16 H           4.6213   -2.2104    0.0312 H.spc      1 <1>        0.000
     17 H           4.6785    0.0167    1.0362 H.spc      1 <1>        0.000
     18 H           4.0183    0.3533   -0.6185 H.spc      1 <1>        0.000
     19 H           0.6958   -3.7940    0.4092 H.spc      1 <1>        0.000
@<TRIPOS>BOND
     1    4    9 1  
     2    6   10 1  
     3    9   12 2  
     4    9   11 1  
     5    3    5 1  
     6    3    7 2  
     7    8   10 1  
     8    4    8 2  
     9    1    2 1  
    10    1    3 am 
    11    1    4 1  
    12    2    6 1  
    13    2    5 1  
    14    2   13 1  
    15    5   14 1  
    16    5   15 1  
    17    8   16 1  
    18   10   17 1  
    19   10   18 1  
    20   11   19 1  
# Name:          frag5-517-387/138278
# Creation time: Sat Jun  5 12:53:40 2010


@<TRIPOS>MOLECULE
frag5-517-387/138278
   19    20     1     1     1
SMALL
USER_CHARGES


@<TRIPOS>ATOM
      1 N1          1.3594   -1.5679    0.0021 N.am       1 <1>        0.000
      2 C1          1.2625   -0.1320   -0.1184 C.3        1 <1>        0.000
      3 C2          0.0757   -1.8655    0.2440 C.2        1 <1>        0.000
      4 C3          2.5135   -2.2553   -0.0973 C.2        1 <1>        0.000
      5 C4         -0.2241   -0.3837    0.2468 C.3        1 <1>        0.000
      6 S1          2.4291    0.6080    1.0081 S.3        1 <1>        0.000
      7 O1         -0.5796   -2.8612    0.4151 O.2        1 <1>        0.000
      8 C5          3.7010   -1.6024   -0.0632 C.2        1 <1>        0.000
      9 C6          2.4811   -3.7310   -0.1999 C.2        1 <1>        0.000
     10 C7          3.8453   -0.1137    0.1537 C.3        1 <1>        0.000
     11 O2          1.6729   -4.3083   -1.0959 O.3        1 <1>        0.000
     12 O3          3.1673   -4.4334    0.5197 O.2        1 <1>        0.000
     13 H           1.4725    0.5257   -0.9619 H.spc      1 <1>        0.000
     14 H          -0.6791    0.0961    1.1133 H.spc      1 <1>        0.000
     15 H          -1.0298    0.0280   -0.3611 H.spc      1 <1>        0.000
     16 H           4.6097   -2.1884   -0.2010 H.spc      1 <1>        0.000
     17 H           4.7276    0.0498    0.7724 H.spc      1 <1>        0.000
     18 H           3.9224    0.3606   -0.8247 H.spc      1 <1>        0.000
     19 H           1.2011   -3.6294   -1.5839 H.spc      1 <1>        0.000
@<TRIPOS>BOND
     1    4    9 1  
     2    6   10 1  
     3    9   12 2  
     4    9   11 1  
     5    3    5 1  
     6    3    7 2  
     7    8   10 1  
     8    4    8 2  
     9    1    2 1  
    10    1    3 am 
    11    1    4 1  
    12    2    6 1  
    13    2    5 1  
    14    2   13 1  
    15    5   14 1  
    16    5   15 1  
    17    8   16 1  
    18   10   17 1  
    19   10   18 1  
    20   11   19 1  
# Name:          frag5-517-387/138278
# Creation time: Sat Jun  5 12:53:40 2010


@<TRIPOS>MOLECULE
frag5-517-387/138278
   19    20     1     1     1
SMALL
USER_CHARGES


@<TRIPOS>ATOM
      1 N1          1.3791   -1.5506   -0.0843 N.am       1 <1>        0.000
      2 C1          1.3460   -0.1122   -0.1969 C.3        1 <1>        0.000
      3 C2          0.0664   -1.8122   -0.0834 C.2        1 <1>        0.000
      4 C3          2.5140   -2.2723    0.0124 C.2        1 <1>        0.000
      5 C4         -0.1900   -0.3225   -0.1045 C.3        1 <1>        0.000
      6 S1          2.3108    0.5769    1.1374 S.3        1 <1>        0.000
      7 O1         -0.6381   -2.7902   -0.0483 O.2        1 <1>        0.000
      8 C5          3.6922   -1.6566    0.2679 C.2        1 <1>        0.000
      9 C6          2.4578   -3.7442   -0.1256 C.2        1 <1>        0.000
     10 C7          3.8382   -0.1756    0.5342 C.3        1 <1>        0.000
     11 O2          3.1557   -4.5255    0.6996 O.3        1 <1>        0.000
     12 O3          1.7718   -4.2611   -0.9935 O.2        1 <1>        0.000
     13 H           1.7221    0.5472   -0.9791 H.spc      1 <1>        0.000
     14 H          -0.7784    0.1589    0.6766 H.spc      1 <1>        0.000
     15 H          -0.8645    0.1226   -0.8360 H.spc      1 <1>        0.000
     16 H           4.5942   -2.2684    0.2826 H.spc      1 <1>        0.000
     17 H           4.6011   -0.0469    1.3020 H.spc      1 <1>        0.000
     18 H           4.1022    0.3094   -0.4056 H.spc      1 <1>        0.000
     19 H           3.6412   -3.9789    1.3218 H.spc      1 <1>        0.000
@<TRIPOS>BOND
     1    4    9 1  
     2    6   10 1  
     3    9   12 2  
     4    9   11 1  
     5    3    5 1  
     6    3    7 2  
     7    8   10 1  
     8    4    8 2  
     9    1    2 1  
    10    1    3 am 
    11    1    4 1  
    12    2    6 1  
    13    2    5 1  
    14    2   13 1  
    15    5   14 1  
    16    5   15 1  
    17    8   16 1  
    18   10   17 1  
    19   10   18 1  
    20   11   19 1  
# Name:          frag5-517-387/138278 -- energy: -2.490448
# Creation time: Sat Jun  5 12:53:40 2010


@<TRIPOS>MOLECULE
frag5-517-387/138278 -- energy: -2.490448
   19    20     1     1     1
SMALL
USER_CHARGES


@<TRIPOS>ATOM
      1 N1          1.3594   -1.5679    0.0021 N.am       1 <1>        0.000
      2 C1          1.2625   -0.1320   -0.1184 C.3        1 <1>        0.000
      3 C2          0.0757   -1.8655    0.2440 C.2        1 <1>        0.000
      4 C3          2.5135   -2.2553   -0.0973 C.2        1 <1>        0.000
      5 C4         -0.2241   -0.3837    0.2468 C.3        1 <1>        0.000
      6 S1          2.4291    0.6080    1.0081 S.3        1 <1>        0.000
      7 O1         -0.5796   -2.8612    0.4151 O.2        1 <1>        0.000
      8 C5          3.7010   -1.6024   -0.0632 C.2        1 <1>        0.000
      9 C6          2.4811   -3.7310   -0.1999 C.2        1 <1>        0.000
     10 C7          3.8453   -0.1137    0.1537 C.3        1 <1>        0.000
     11 O2          1.6729   -4.3083   -1.0959 O.3        1 <1>        0.000
     12 O3          3.1673   -4.4334    0.5197 O.2        1 <1>        0.000
     13 H           1.4725    0.5257   -0.9619 H.spc      1 <1>        0.000
     14 H          -0.6791    0.0961    1.1133 H.spc      1 <1>        0.000
     15 H          -1.0298    0.0280   -0.3611 H.spc      1 <1>        0.000
     16 H           4.6097   -2.1884   -0.2010 H.spc      1 <1>        0.000
     17 H           4.7276    0.0498    0.7724 H.spc      1 <1>        0.000
     18 H           3.9224    0.3606   -0.8247 H.spc      1 <1>        0.000
     19 H           1.2011   -3.6294   -1.5839 H.spc      1 <1>        0.000
@<TRIPOS>BOND
     1    4    9 1  
     2    6   10 1  
     3    9   12 2  
     4    9   11 1  
     5    3    5 1  
     6    3    7 2  
     7    8   10 1  
     8    4    8 2  
     9    1    2 1  
    10    1    3 am 
    11    1    4 1  
    12    2    6 1  
    13    2    5 1  
    14    2   13 1  
    15    5   14 1  
    16    5   15 1  
    17    8   16 1  
    18   10   17 1  
    19   10   18 1  
    20   11   19 1  
# Name:          frag5-517-387/138278 -- energy: -2.282148
# Creation time: Sat Jun  5 12:53:40 2010


@<TRIPOS>MOLECULE
frag5-517-387/138278 -- energy: -2.282148
   19    20     1     1     1
SMALL
USER_CHARGES


@<TRIPOS>ATOM
      1 N1          1.3791   -1.5506   -0.0843 N.am       1 <1>        0.000
      2 C1          1.3460   -0.1122   -0.1969 C.3        1 <1>        0.000
      3 C2          0.0664   -1.8122   -0.0834 C.2        1 <1>        0.000
      4 C3          2.5140   -2.2723    0.0124 C.2        1 <1>        0.000
      5 C4         -0.1900   -0.3225   -0.1045 C.3        1 <1>        0.000
      6 S1          2.3108    0.5769    1.1374 S.3        1 <1>        0.000
      7 O1         -0.6381   -2.7902   -0.0483 O.2        1 <1>        0.000
      8 C5          3.6922   -1.6566    0.2679 C.2        1 <1>        0.000
      9 C6          2.4578   -3.7442   -0.1256 C.2        1 <1>        0.000
     10 C7          3.8382   -0.1756    0.5342 C.3        1 <1>        0.000
     11 O2          3.1557   -4.5255    0.6996 O.3        1 <1>        0.000
     12 O3          1.7718   -4.2611   -0.9935 O.2        1 <1>        0.000
     13 H           1.7221    0.5472   -0.9791 H.spc      1 <1>        0.000
     14 H          -0.7784    0.1589    0.6766 H.spc      1 <1>        0.000
     15 H          -0.8645    0.1226   -0.8360 H.spc      1 <1>        0.000
     16 H           4.5942   -2.2684    0.2826 H.spc      1 <1>        0.000
     17 H           4.6011   -0.0469    1.3020 H.spc      1 <1>        0.000
     18 H           4.1022    0.3094   -0.4056 H.spc      1 <1>        0.000
     19 H           3.6412   -3.9789    1.3218 H.spc      1 <1>        0.000
@<TRIPOS>BOND
     1    4    9 1  
     2    6   10 1  
     3    9   12 2  
     4    9   11 1  
     5    3    5 1  
     6    3    7 2  
     7    8   10 1  
     8    4    8 2  
     9    1    2 1  
    10    1    3 am 
    11    1    4 1  
    12    2    6 1  
    13    2    5 1  
    14    2   13 1  
    15    5   14 1  
    16    5   15 1  
    17    8   16 1  
    18   10   17 1  
    19   10   18 1  
    20   11   19 1  
