#      Rotatable Fragment
#      Build by yxyuan
#
# Name:          frag5-523-122/41815
# Creation time: Sat Jun  5 12:52:51 2010


@<TRIPOS>MOLECULE
frag5-523-122/41815
   14    14     1     1     1
SMALL
USER_CHARGES


@<TRIPOS>ATOM
      1 F1         -3.2352    0.0967    0.2244 F          1 <1>        0.000
      2 C1         -1.9040    0.0611    0.1375 C.ar       1 <1>        0.000
      3 C2         -1.2412   -1.1284   -0.1823 C.ar       1 <1>        0.000
      4 C3          0.1559   -1.1861   -0.2088 C.ar       1 <1>        0.000
      5 C4          0.9013   -0.0065   -0.0838 C.ar       1 <1>        0.000
      6 C5          0.2531    1.1970    0.2024 C.ar       1 <1>        0.000
      7 C6         -1.1351    1.2143    0.3594 C.ar       1 <1>        0.000
      8 C7          2.3674   -0.0596   -0.1873 C.2        1 <1>        0.000
      9 O1          2.9993    0.8854   -0.6326 O.2        1 <1>        0.000
     10 H          -1.8210   -2.0219   -0.4138 H.spc      1 <1>        0.000
     11 H           0.6623   -2.1441   -0.3261 H.spc      1 <1>        0.000
     12 H           0.8273    2.1181    0.3028 H.spc      1 <1>        0.000
     13 H          -1.6292    2.1385    0.6591 H.spc      1 <1>        0.000
     14 H           2.8971   -0.9550    0.1380 H.spc      1 <1>        0.000
@<TRIPOS>BOND
     1    1    2 1  
     2    2    3 ar 
     3    2    7 ar 
     4    3    4 ar 
     5    4    5 ar 
     6    5    6 ar 
     7    5    8 1  
     8    6    7 ar 
     9    8    9 2  
    10    3   10 1  
    11    4   11 1  
    12    6   12 1  
    13    7   13 1  
    14    8   14 1  
# Name:          frag5-523-122/41815 -- energy: -0.396110
# Creation time: Sat Jun  5 12:52:51 2010


@<TRIPOS>MOLECULE
frag5-523-122/41815 -- energy: -0.396110
   14    14     1     1     1
SMALL
USER_CHARGES


@<TRIPOS>ATOM
      1 F1         -3.2352    0.0967    0.2244 F          1 <1>        0.000
      2 C1         -1.9040    0.0611    0.1375 C.ar       1 <1>        0.000
      3 C2         -1.2412   -1.1284   -0.1823 C.ar       1 <1>        0.000
      4 C3          0.1559   -1.1861   -0.2088 C.ar       1 <1>        0.000
      5 C4          0.9013   -0.0065   -0.0838 C.ar       1 <1>        0.000
      6 C5          0.2531    1.1970    0.2024 C.ar       1 <1>        0.000
      7 C6         -1.1351    1.2143    0.3594 C.ar       1 <1>        0.000
      8 C7          2.3674   -0.0596   -0.1873 C.2        1 <1>        0.000
      9 O1          2.9993    0.8854   -0.6326 O.2        1 <1>        0.000
     10 H          -1.8210   -2.0219   -0.4138 H.spc      1 <1>        0.000
     11 H           0.6623   -2.1441   -0.3261 H.spc      1 <1>        0.000
     12 H           0.8273    2.1181    0.3028 H.spc      1 <1>        0.000
     13 H          -1.6292    2.1385    0.6591 H.spc      1 <1>        0.000
     14 H           2.8971   -0.9550    0.1380 H.spc      1 <1>        0.000
@<TRIPOS>BOND
     1    1    2 1  
     2    2    3 ar 
     3    2    7 ar 
     4    3    4 ar 
     5    4    5 ar 
     6    5    6 ar 
     7    5    8 1  
     8    6    7 ar 
     9    8    9 2  
    10    3   10 1  
    11    4   11 1  
    12    6   12 1  
    13    7   13 1  
    14    8   14 1  
