#      Rotatable Fragment
#      Build by yxyuan
#
# Name:          frag4-306-433/48856
# Creation time: Sat Jun  5 12:52:47 2010


@<TRIPOS>MOLECULE
frag4-306-433/48856
   12    13     1     1     1
SMALL
USER_CHARGES


@<TRIPOS>ATOM
      1 N1         -1.4684    0.8808    0.0027 N.ar       1 <1>        0.000
      2 C1         -0.2231    0.6392   -0.0265 C.ar       1 <1>        0.000
      3 N2          0.8417    1.4894   -0.0923 N.ar       1 <1>        0.000
      4 C2          2.0099    0.9363   -0.0054 C.ar       1 <1>        0.000
      5 N3          2.1736   -0.3898   -0.1717 N.ar       1 <1>        0.000
      6 C3          1.1401   -1.2365   -0.1567 C.ar       1 <1>        0.000
      7 C4         -0.1175   -0.8612   -0.0304 C.ar       1 <1>        0.000
      8 N4         -1.3277   -1.4430    0.0545 N.ar       1 <1>        0.000
      9 C5         -2.1865   -0.4729    0.0557 C.ar       1 <1>        0.000
     10 H           2.8795    1.5582    0.2070 H.spc      1 <1>        0.000
     11 H           1.3493   -2.3017   -0.2548 H.spc      1 <1>        0.000
     12 H          -3.2684   -0.6012    0.0896 H.spc      1 <1>        0.000
@<TRIPOS>BOND
     1    1    2 ar 
     2    1    9 ar 
     3    2    3 ar 
     4    2    7 ar 
     5    3    4 ar 
     6    4    5 ar 
     7    5    6 ar 
     8    6    7 ar 
     9    7    8 ar 
    10    8    9 ar 
    11    4   10 1  
    12    6   11 1  
    13    9   12 1  
# Name:          frag4-306-433/48856 -- energy: -0.024528
# Creation time: Sat Jun  5 12:52:47 2010


@<TRIPOS>MOLECULE
frag4-306-433/48856 -- energy: -0.024528
   12    13     1     1     1
SMALL
USER_CHARGES


@<TRIPOS>ATOM
      1 N1         -1.4684    0.8808    0.0027 N.ar       1 <1>        0.000
      2 C1         -0.2231    0.6392   -0.0265 C.ar       1 <1>        0.000
      3 N2          0.8417    1.4894   -0.0923 N.ar       1 <1>        0.000
      4 C2          2.0099    0.9363   -0.0054 C.ar       1 <1>        0.000
      5 N3          2.1736   -0.3898   -0.1717 N.ar       1 <1>        0.000
      6 C3          1.1401   -1.2365   -0.1567 C.ar       1 <1>        0.000
      7 C4         -0.1175   -0.8612   -0.0304 C.ar       1 <1>        0.000
      8 N4         -1.3277   -1.4430    0.0545 N.ar       1 <1>        0.000
      9 C5         -2.1865   -0.4729    0.0557 C.ar       1 <1>        0.000
     10 H           2.8795    1.5582    0.2070 H.spc      1 <1>        0.000
     11 H           1.3493   -2.3017   -0.2548 H.spc      1 <1>        0.000
     12 H          -3.2684   -0.6012    0.0896 H.spc      1 <1>        0.000
@<TRIPOS>BOND
     1    1    2 ar 
     2    1    9 ar 
     3    2    3 ar 
     4    2    7 ar 
     5    3    4 ar 
     6    4    5 ar 
     7    5    6 ar 
     8    6    7 ar 
     9    7    8 ar 
    10    8    9 ar 
    11    4   10 1  
    12    6   11 1  
    13    9   12 1  
