#      Rotatable Fragment
#      Build by yxyuan
#
# Name:          frag5-655-25/41815
# Creation time: Sat Jun  5 12:53:02 2010


@<TRIPOS>MOLECULE
frag5-655-25/41815
   23    25     1     1     1
SMALL
USER_CHARGES


@<TRIPOS>ATOM
      1 Cl1         2.5378   -3.3063    4.2515 Cl         1 <1>        0.000
      2 C1          2.5477   -2.4065    2.7526 C.ar       1 <1>        0.000
      3 C2          1.3592   -1.8835    2.2365 C.ar       1 <1>        0.000
      4 C3          1.3458   -1.1522    1.0454 C.ar       1 <1>        0.000
      5 C4          2.5456   -1.0115    0.3278 C.ar       1 <1>        0.000
      6 C5          3.7395   -1.5103    0.8532 C.ar       1 <1>        0.000
      7 C6          3.7459   -2.2028    2.0619 C.ar       1 <1>        0.000
      8 S1          2.5481   -0.2315   -1.2514 S.3        1 <1>        0.000
      9 C7          1.2199    0.8937   -0.9839 C.ar       1 <1>        0.000
     10 C8          0.1610    0.5467   -0.1276 C.ar       1 <1>        0.000
     11 C9         -0.9394    1.4068   -0.0381 C.ar       1 <1>        0.000
     12 C10        -0.9584    2.6228   -0.7227 C.ar       1 <1>        0.000
     13 C11         0.1301    2.9925   -1.5153 C.ar       1 <1>        0.000
     14 C12         1.2132    2.1237   -1.6449 C.ar       1 <1>        0.000
     15 N1          0.1878   -0.5926    0.6103 N.pl3      1 <1>        0.000
     16 H           0.4248   -2.0489    2.7729 H.spc      1 <1>        0.000
     17 H           4.6738   -1.3565    0.3132 H.spc      1 <1>        0.000
     18 H           4.6825   -2.5848    2.4680 H.spc      1 <1>        0.000
     19 H          -1.7944    1.1227    0.5755 H.spc      1 <1>        0.000
     20 H          -1.8217    3.2830   -0.6388 H.spc      1 <1>        0.000
     21 H           0.1332    3.9537   -2.0293 H.spc      1 <1>        0.000
     22 H           2.0618    2.4072   -2.2675 H.spc      1 <1>        0.000
     23 H          -0.6952   -1.0452    0.8467 H.spc      1 <1>        0.000
@<TRIPOS>BOND
     1    2    3 ar 
     2    6    7 ar 
     3   13   14 ar 
     4    9   14 ar 
     5   10   15 1  
     6    2    7 ar 
     7   11   12 ar 
     8    5    8 1  
     9    5    6 ar 
    10   10   11 ar 
    11   12   13 ar 
    12    4   15 1  
    13    4    5 ar 
    14    9   10 ar 
    15    1    2 1  
    16    3    4 ar 
    17    8    9 1  
    18    3   16 1  
    19    6   17 1  
    20    7   18 1  
    21   11   19 1  
    22   12   20 1  
    23   13   21 1  
    24   14   22 1  
    25   15   23 1  
# Name:          frag5-655-25/41815
# Creation time: Sat Jun  5 12:53:02 2010


@<TRIPOS>MOLECULE
frag5-655-25/41815
   23    25     1     1     1
SMALL
USER_CHARGES


@<TRIPOS>ATOM
      1 Cl1         2.0591   -3.9198    3.7096 Cl         1 <1>        0.000
      2 C1          2.3419   -2.6784    2.5125 C.ar       1 <1>        0.000
      3 C2          1.4745   -1.5879    2.4083 C.ar       1 <1>        0.000
      4 C3          1.6881   -0.5776    1.4673 C.ar       1 <1>        0.000
      5 C4          2.7574   -0.7129    0.5641 C.ar       1 <1>        0.000
      6 C5          3.6404   -1.7881    0.6815 C.ar       1 <1>        0.000
      7 C6          3.4401   -2.7665    1.6517 C.ar       1 <1>        0.000
      8 S1          2.9702    0.4528   -0.7384 S.3        1 <1>        0.000
      9 C7          1.3391    1.1066   -0.8474 C.ar       1 <1>        0.000
     10 C8          0.4583    0.9961    0.2437 C.ar       1 <1>        0.000
     11 C9         -0.8695    1.4045    0.0781 C.ar       1 <1>        0.000
     12 C10        -1.2998    1.9844   -1.1157 C.ar       1 <1>        0.000
     13 C11        -0.4001    2.1571   -2.1695 C.ar       1 <1>        0.000
     14 C12         0.9142    1.7131   -2.0310 C.ar       1 <1>        0.000
     15 N1          0.8700    0.5054    1.4405 N.pl3      1 <1>        0.000
     16 H           0.6141   -1.5242    3.0744 H.spc      1 <1>        0.000
     17 H           4.4940   -1.8622    0.0077 H.spc      1 <1>        0.000
     18 H           4.1379   -3.5992    1.7399 H.spc      1 <1>        0.000
     19 H          -1.5788    1.2675    0.8943 H.spc      1 <1>        0.000
     20 H          -2.3367    2.3021   -1.2256 H.spc      1 <1>        0.000
     21 H          -0.7231    2.6357   -3.0940 H.spc      1 <1>        0.000
     22 H           1.6167    1.8407   -2.8546 H.spc      1 <1>        0.000
     23 H           0.5681    0.9454    2.3098 H.spc      1 <1>        0.000
@<TRIPOS>BOND
     1    2    3 ar 
     2    6    7 ar 
     3   13   14 ar 
     4    9   14 ar 
     5   10   15 1  
     6    2    7 ar 
     7   11   12 ar 
     8    5    8 1  
     9    5    6 ar 
    10   10   11 ar 
    11   12   13 ar 
    12    4   15 1  
    13    4    5 ar 
    14    9   10 ar 
    15    1    2 1  
    16    3    4 ar 
    17    8    9 1  
    18    3   16 1  
    19    6   17 1  
    20    7   18 1  
    21   11   19 1  
    22   12   20 1  
    23   13   21 1  
    24   14   22 1  
    25   15   23 1  
# Name:          frag5-655-25/41815 -- energy: -1.346695
# Creation time: Sat Jun  5 12:53:02 2010


@<TRIPOS>MOLECULE
frag5-655-25/41815 -- energy: -1.346695
   23    25     1     1     1
SMALL
USER_CHARGES


@<TRIPOS>ATOM
      1 Cl1         2.5378   -3.3063    4.2515 Cl         1 <1>        0.000
      2 C1          2.5477   -2.4065    2.7526 C.ar       1 <1>        0.000
      3 C2          1.3592   -1.8835    2.2365 C.ar       1 <1>        0.000
      4 C3          1.3458   -1.1522    1.0454 C.ar       1 <1>        0.000
      5 C4          2.5456   -1.0115    0.3278 C.ar       1 <1>        0.000
      6 C5          3.7395   -1.5103    0.8532 C.ar       1 <1>        0.000
      7 C6          3.7459   -2.2028    2.0619 C.ar       1 <1>        0.000
      8 S1          2.5481   -0.2315   -1.2514 S.3        1 <1>        0.000
      9 C7          1.2199    0.8937   -0.9839 C.ar       1 <1>        0.000
     10 C8          0.1610    0.5467   -0.1276 C.ar       1 <1>        0.000
     11 C9         -0.9394    1.4068   -0.0381 C.ar       1 <1>        0.000
     12 C10        -0.9584    2.6228   -0.7227 C.ar       1 <1>        0.000
     13 C11         0.1301    2.9925   -1.5153 C.ar       1 <1>        0.000
     14 C12         1.2132    2.1237   -1.6449 C.ar       1 <1>        0.000
     15 N1          0.1878   -0.5926    0.6103 N.pl3      1 <1>        0.000
     16 H           0.4248   -2.0489    2.7729 H.spc      1 <1>        0.000
     17 H           4.6738   -1.3565    0.3132 H.spc      1 <1>        0.000
     18 H           4.6825   -2.5848    2.4680 H.spc      1 <1>        0.000
     19 H          -1.7944    1.1227    0.5755 H.spc      1 <1>        0.000
     20 H          -1.8217    3.2830   -0.6388 H.spc      1 <1>        0.000
     21 H           0.1332    3.9537   -2.0293 H.spc      1 <1>        0.000
     22 H           2.0618    2.4072   -2.2675 H.spc      1 <1>        0.000
     23 H          -0.6952   -1.0452    0.8467 H.spc      1 <1>        0.000
@<TRIPOS>BOND
     1    2    3 ar 
     2    6    7 ar 
     3   13   14 ar 
     4    9   14 ar 
     5   10   15 1  
     6    2    7 ar 
     7   11   12 ar 
     8    5    8 1  
     9    5    6 ar 
    10   10   11 ar 
    11   12   13 ar 
    12    4   15 1  
    13    4    5 ar 
    14    9   10 ar 
    15    1    2 1  
    16    3    4 ar 
    17    8    9 1  
    18    3   16 1  
    19    6   17 1  
    20    7   18 1  
    21   11   19 1  
    22   12   20 1  
    23   13   21 1  
    24   14   22 1  
    25   15   23 1  
# Name:          frag5-655-25/41815 -- energy: -1.385394
# Creation time: Sat Jun  5 12:53:02 2010


@<TRIPOS>MOLECULE
frag5-655-25/41815 -- energy: -1.385394
   23    25     1     1     1
SMALL
USER_CHARGES


@<TRIPOS>ATOM
      1 Cl1         2.0591   -3.9198    3.7096 Cl         1 <1>        0.000
      2 C1          2.3419   -2.6784    2.5125 C.ar       1 <1>        0.000
      3 C2          1.4745   -1.5879    2.4083 C.ar       1 <1>        0.000
      4 C3          1.6881   -0.5776    1.4673 C.ar       1 <1>        0.000
      5 C4          2.7574   -0.7129    0.5641 C.ar       1 <1>        0.000
      6 C5          3.6404   -1.7881    0.6815 C.ar       1 <1>        0.000
      7 C6          3.4401   -2.7665    1.6517 C.ar       1 <1>        0.000
      8 S1          2.9702    0.4528   -0.7384 S.3        1 <1>        0.000
      9 C7          1.3391    1.1066   -0.8474 C.ar       1 <1>        0.000
     10 C8          0.4583    0.9961    0.2437 C.ar       1 <1>        0.000
     11 C9         -0.8695    1.4045    0.0781 C.ar       1 <1>        0.000
     12 C10        -1.2998    1.9844   -1.1157 C.ar       1 <1>        0.000
     13 C11        -0.4001    2.1571   -2.1695 C.ar       1 <1>        0.000
     14 C12         0.9142    1.7131   -2.0310 C.ar       1 <1>        0.000
     15 N1          0.8700    0.5054    1.4405 N.pl3      1 <1>        0.000
     16 H           0.6141   -1.5242    3.0744 H.spc      1 <1>        0.000
     17 H           4.4940   -1.8622    0.0077 H.spc      1 <1>        0.000
     18 H           4.1379   -3.5992    1.7399 H.spc      1 <1>        0.000
     19 H          -1.5788    1.2675    0.8943 H.spc      1 <1>        0.000
     20 H          -2.3367    2.3021   -1.2256 H.spc      1 <1>        0.000
     21 H          -0.7231    2.6357   -3.0940 H.spc      1 <1>        0.000
     22 H           1.6167    1.8407   -2.8546 H.spc      1 <1>        0.000
     23 H           0.5681    0.9454    2.3098 H.spc      1 <1>        0.000
@<TRIPOS>BOND
     1    2    3 ar 
     2    6    7 ar 
     3   13   14 ar 
     4    9   14 ar 
     5   10   15 1  
     6    2    7 ar 
     7   11   12 ar 
     8    5    8 1  
     9    5    6 ar 
    10   10   11 ar 
    11   12   13 ar 
    12    4   15 1  
    13    4    5 ar 
    14    9   10 ar 
    15    1    2 1  
    16    3    4 ar 
    17    8    9 1  
    18    3   16 1  
    19    6   17 1  
    20    7   18 1  
    21   11   19 1  
    22   12   20 1  
    23   13   21 1  
    24   14   22 1  
    25   15   23 1  
