#      Rotatable Fragment
#      Build by yxyuan
#
# Name:          frag3-266-3/96164
# Creation time: Sat Jun  5 12:53:22 2010


@<TRIPOS>MOLECULE
frag3-266-3/96164
    4     3     1     1     1
SMALL
USER_CHARGES


@<TRIPOS>ATOM
      1 S2          0.9673    0.5917   -0.0000 S.3        1 <1>        0.000
      2 C5         -0.6771    0.1759    0.0000 C.1        1 <1>        0.000
      3 N2         -1.7956   -0.1226    0.0218 N.1        1 <1>        0.000
      4 H           1.2197    1.3956   -1.0290 H.spc      1 <1>        0.000
@<TRIPOS>BOND
     1    1    2 1  
     2    2    3 3  
     3    1    4 1  
# Name:          frag3-266-3/96164 -- energy: -0.012436
# Creation time: Sat Jun  5 12:53:22 2010


@<TRIPOS>MOLECULE
frag3-266-3/96164 -- energy: -0.012436
    4     3     1     1     1
SMALL
USER_CHARGES


@<TRIPOS>ATOM
      1 S2          0.9673    0.5917   -0.0000 S.3        1 <1>        0.000
      2 C5         -0.6771    0.1759    0.0000 C.1        1 <1>        0.000
      3 N2         -1.7956   -0.1226    0.0218 N.1        1 <1>        0.000
      4 H           1.2197    1.3956   -1.0290 H.spc      1 <1>        0.000
@<TRIPOS>BOND
     1    1    2 1  
     2    2    3 3  
     3    1    4 1  
