#      Rotatable Fragment
#      Build by yxyuan
#
# Name:          frag4-321-797/150395
# Creation time: Sat Jun  5 12:53:30 2010


@<TRIPOS>MOLECULE
frag4-321-797/150395
    9     9     1     1     1
SMALL
USER_CHARGES


@<TRIPOS>ATOM
      1 C1          0.2408    0.5946   -0.7653 C.2        1 <1>        0.000
      2 C2          0.4628   -0.8406   -0.4510 C.2        1 <1>        0.000
      3 O1         -0.1474    1.1755    0.3411 O.3        1 <1>        0.000
      4 N1         -0.1569   -1.0353    0.6646 N.2        1 <1>        0.000
      5 C6         -0.5651    0.2117    1.2205 C.3        1 <1>        0.000
      6 H           0.3759    1.0735   -1.7351 H.spc      1 <1>        0.000
      7 H           1.0255   -1.5693   -1.0345 H.spc      1 <1>        0.000
      8 H          -1.6458    0.2463    1.3582 H.spc      1 <1>        0.000
      9 H          -0.1290    0.3641    2.2077 H.spc      1 <1>        0.000
@<TRIPOS>BOND
     1    1    2 1  
     2    1    3 2  
     3    2    4 2  
     4    3    5 1  
     5    4    5 1  
     6    1    6 1  
     7    2    7 1  
     8    5    8 1  
     9    5    9 1  
# Name:          frag4-321-797/150395 -- energy: -0.249492
# Creation time: Sat Jun  5 12:53:30 2010


@<TRIPOS>MOLECULE
frag4-321-797/150395 -- energy: -0.249492
    9     9     1     1     1
SMALL
USER_CHARGES


@<TRIPOS>ATOM
      1 C1          0.2408    0.5946   -0.7653 C.2        1 <1>        0.000
      2 C2          0.4628   -0.8406   -0.4510 C.2        1 <1>        0.000
      3 O1         -0.1474    1.1755    0.3411 O.3        1 <1>        0.000
      4 N1         -0.1569   -1.0353    0.6646 N.2        1 <1>        0.000
      5 C6         -0.5651    0.2117    1.2205 C.3        1 <1>        0.000
      6 H           0.3759    1.0735   -1.7351 H.spc      1 <1>        0.000
      7 H           1.0255   -1.5693   -1.0345 H.spc      1 <1>        0.000
      8 H          -1.6458    0.2463    1.3582 H.spc      1 <1>        0.000
      9 H          -0.1290    0.3641    2.2077 H.spc      1 <1>        0.000
@<TRIPOS>BOND
     1    1    2 1  
     2    1    3 2  
     3    2    4 2  
     4    3    5 1  
     5    4    5 1  
     6    1    6 1  
     7    2    7 1  
     8    5    8 1  
     9    5    9 1  
