#      Rotatable Fragment
#      Build by yxyuan
#
# Name:          frag5-633-83/138278
# Creation time: Sat Jun  5 12:53:49 2010


@<TRIPOS>MOLECULE
frag5-633-83/138278
   11    11     1     1     1
SMALL
USER_CHARGES


@<TRIPOS>ATOM
      1 C1         -0.6636   -0.0172    0.2340 C.3        1 <1>        0.000
      2 S1          0.4778    0.8943    1.1823 S.3        1 <1>        0.000
      3 C3         -0.0252   -1.1031   -0.5799 C.2        1 <1>        0.000
      4 C6          1.6698   -0.3597    0.8976 C.3        1 <1>        0.000
      5 N1          1.2755   -1.3119   -0.0852 N.am       1 <1>        0.000
      6 O1         -0.5612   -1.6490   -1.5377 O.2        1 <1>        0.000
      7 H          -1.1435    0.6745   -0.4583 H.spc      1 <1>        0.000
      8 H          -1.3621   -0.4902    0.9243 H.spc      1 <1>        0.000
      9 H           1.8075   -0.8975    1.8356 H.spc      1 <1>        0.000
     10 H           2.5749    0.1274    0.5348 H.spc      1 <1>        0.000
     11 H           1.8780   -2.0722   -0.4003 H.spc      1 <1>        0.000
@<TRIPOS>BOND
     1    1    2 1  
     2    1    3 1  
     3    2    4 1  
     4    3    5 am 
     5    3    6 2  
     6    4    5 1  
     7    1    7 1  
     8    1    8 1  
     9    4    9 1  
    10    4   10 1  
    11    5   11 1  
# Name:          frag5-633-83/138278 -- energy: -0.574911
# Creation time: Sat Jun  5 12:53:49 2010


@<TRIPOS>MOLECULE
frag5-633-83/138278 -- energy: -0.574911
   11    11     1     1     1
SMALL
USER_CHARGES


@<TRIPOS>ATOM
      1 C1         -0.6636   -0.0172    0.2340 C.3        1 <1>        0.000
      2 S1          0.4778    0.8943    1.1823 S.3        1 <1>        0.000
      3 C3         -0.0252   -1.1031   -0.5799 C.2        1 <1>        0.000
      4 C6          1.6698   -0.3597    0.8976 C.3        1 <1>        0.000
      5 N1          1.2755   -1.3119   -0.0852 N.am       1 <1>        0.000
      6 O1         -0.5612   -1.6490   -1.5377 O.2        1 <1>        0.000
      7 H          -1.1435    0.6745   -0.4583 H.spc      1 <1>        0.000
      8 H          -1.3621   -0.4902    0.9243 H.spc      1 <1>        0.000
      9 H           1.8075   -0.8975    1.8356 H.spc      1 <1>        0.000
     10 H           2.5749    0.1274    0.5348 H.spc      1 <1>        0.000
     11 H           1.8780   -2.0722   -0.4003 H.spc      1 <1>        0.000
@<TRIPOS>BOND
     1    1    2 1  
     2    1    3 1  
     3    2    4 1  
     4    3    5 am 
     5    3    6 2  
     6    4    5 1  
     7    1    7 1  
     8    1    8 1  
     9    4    9 1  
    10    4   10 1  
    11    5   11 1  
