#      Rotatable Fragment
#      Build by yxyuan
#
# Name:          frag3-217-7/96164
# Creation time: Sat Jun  5 12:53:13 2010


@<TRIPOS>MOLECULE
frag3-217-7/96164
    8     7     1     1     1
SMALL
USER_CHARGES


@<TRIPOS>ATOM
      1 C1         -0.5393   -0.5667   -0.0043 C.2        1 <1>        0.000
      2 N1         -1.4611    0.4282    0.0353 N.am       1 <1>        0.000
      3 C2          0.8327   -0.1789   -0.0181 C.1        1 <1>        0.000
      4 O1         -0.7590   -1.7648   -0.0197 O.2        1 <1>        0.000
      5 C4          2.0044    0.0539    0.0547 C.1        1 <1>        0.000
      6 Cl1         3.6548    0.2922    0.1399 Cl         1 <1>        0.000
      7 H          -2.4554    0.2017    0.0555 H.spc      1 <1>        0.000
      8 H          -1.1597    1.4026    0.0448 H.spc      1 <1>        0.000
@<TRIPOS>BOND
     1    1    2 am 
     2    1    3 1  
     3    3    5 3  
     4    5    6 1  
     5    1    4 2  
     6    2    7 1  
     7    2    8 1  
# Name:          frag3-217-7/96164 -- energy: -0.323951
# Creation time: Sat Jun  5 12:53:13 2010


@<TRIPOS>MOLECULE
frag3-217-7/96164 -- energy: -0.323951
    8     7     1     1     1
SMALL
USER_CHARGES


@<TRIPOS>ATOM
      1 C1         -0.5393   -0.5667   -0.0043 C.2        1 <1>        0.000
      2 N1         -1.4611    0.4282    0.0353 N.am       1 <1>        0.000
      3 C2          0.8327   -0.1789   -0.0181 C.1        1 <1>        0.000
      4 O1         -0.7590   -1.7648   -0.0197 O.2        1 <1>        0.000
      5 C4          2.0044    0.0539    0.0547 C.1        1 <1>        0.000
      6 Cl1         3.6548    0.2922    0.1399 Cl         1 <1>        0.000
      7 H          -2.4554    0.2017    0.0555 H.spc      1 <1>        0.000
      8 H          -1.1597    1.4026    0.0448 H.spc      1 <1>        0.000
@<TRIPOS>BOND
     1    1    2 am 
     2    1    3 1  
     3    3    5 3  
     4    5    6 1  
     5    1    4 2  
     6    2    7 1  
     7    2    8 1  
