#      Rotatable Fragment
#      Build by yxyuan
#
# Name:          frag4-300-2124/150395
# Creation time: Sat Jun  5 12:53:30 2010


@<TRIPOS>MOLECULE
frag4-300-2124/150395
   15    15     1     1     1
SMALL
USER_CHARGES


@<TRIPOS>ATOM
      1 N1          2.4689    0.3670   -0.5855 N.4        1 <1>        0.000
      2 C1          2.9116   -0.9292   -0.0960 C.3        1 <1>        0.000
      3 C2          3.6803    1.1548   -0.8409 C.3        1 <1>        0.000
      4 C4          4.4099   -1.0035   -0.1649 C.3        1 <1>        0.000
      5 C6          4.8503    0.4470   -0.1894 C.3        1 <1>        0.000
      6 H           1.8708    0.8300    0.0989 H.spc      1 <1>        0.000
      7 H           1.9145    0.2654   -1.4356 H.spc      1 <1>        0.000
      8 H           2.4794   -1.7178   -0.7120 H.spc      1 <1>        0.000
      9 H           2.5880   -1.0580    0.9368 H.spc      1 <1>        0.000
     10 H           3.5703    2.1569   -0.4264 H.spc      1 <1>        0.000
     11 H           3.8482    1.2472   -1.9139 H.spc      1 <1>        0.000
     12 H           4.7557   -1.5544   -1.0396 H.spc      1 <1>        0.000
     13 H           4.8349   -1.5494    0.6774 H.spc      1 <1>        0.000
     14 H           5.0749    0.8344    0.8044 H.spc      1 <1>        0.000
     15 H           5.7843    0.5931   -0.7320 H.spc      1 <1>        0.000
@<TRIPOS>BOND
     1    1    2 1  
     2    1    3 1  
     3    2    4 1  
     4    3    5 1  
     5    4    5 1  
     6    1    6 1  
     7    1    7 1  
     8    2    8 1  
     9    2    9 1  
    10    3   10 1  
    11    3   11 1  
    12    4   12 1  
    13    4   13 1  
    14    5   14 1  
    15    5   15 1  
# Name:          frag4-300-2124/150395 -- energy: -0.979255
# Creation time: Sat Jun  5 12:53:30 2010


@<TRIPOS>MOLECULE
frag4-300-2124/150395 -- energy: -0.979255
   15    15     1     1     1
SMALL
USER_CHARGES


@<TRIPOS>ATOM
      1 N1          2.4689    0.3670   -0.5855 N.4        1 <1>        0.000
      2 C1          2.9116   -0.9292   -0.0960 C.3        1 <1>        0.000
      3 C2          3.6803    1.1548   -0.8409 C.3        1 <1>        0.000
      4 C4          4.4099   -1.0035   -0.1649 C.3        1 <1>        0.000
      5 C6          4.8503    0.4470   -0.1894 C.3        1 <1>        0.000
      6 H           1.8708    0.8300    0.0989 H.spc      1 <1>        0.000
      7 H           1.9145    0.2654   -1.4356 H.spc      1 <1>        0.000
      8 H           2.4794   -1.7178   -0.7120 H.spc      1 <1>        0.000
      9 H           2.5880   -1.0580    0.9368 H.spc      1 <1>        0.000
     10 H           3.5703    2.1569   -0.4264 H.spc      1 <1>        0.000
     11 H           3.8482    1.2472   -1.9139 H.spc      1 <1>        0.000
     12 H           4.7557   -1.5544   -1.0396 H.spc      1 <1>        0.000
     13 H           4.8349   -1.5494    0.6774 H.spc      1 <1>        0.000
     14 H           5.0749    0.8344    0.8044 H.spc      1 <1>        0.000
     15 H           5.7843    0.5931   -0.7320 H.spc      1 <1>        0.000
@<TRIPOS>BOND
     1    1    2 1  
     2    1    3 1  
     3    2    4 1  
     4    3    5 1  
     5    4    5 1  
     6    1    6 1  
     7    1    7 1  
     8    2    8 1  
     9    2    9 1  
    10    3   10 1  
    11    3   11 1  
    12    4   12 1  
    13    4   13 1  
    14    5   14 1  
    15    5   15 1  
