#      Rotatable Fragment
#      Build by yxyuan
#
# Name:          frag5-644-77/138278
# Creation time: Sat Jun  5 12:53:49 2010


@<TRIPOS>MOLECULE
frag5-644-77/138278
   29    31     1     1     1
SMALL
USER_CHARGES


@<TRIPOS>ATOM
      1 C1         -1.5901   -0.7774   -0.3746 C.ar       1 <1>        0.000
      2 C2         -1.3353    0.5334   -0.3938 C.ar       1 <1>        0.000
      3 C3         -2.7559   -1.5613   -0.4835 C.ar       1 <1>        0.000
      4 N1         -0.3712   -1.3983   -0.3283 N.ar       1 <1>        0.000
      5 C4         -2.3963    1.5396   -0.4770 C.ar       1 <1>        0.000
      6 N2          0.0198    0.6626   -0.3502 N.ar       1 <1>        0.000
      7 C5         -2.8507   -2.7836    0.2060 C.ar       1 <1>        0.000
      8 C6         -3.6505   -1.3390   -1.5197 C.ar       1 <1>        0.000
      9 C14        -5.0103   -3.1317   -0.7352 C.ar       1 <1>        0.000
     10 C7          0.6512   -0.4803   -0.3280 C.ar       1 <1>        0.000
     11 C8         -2.1710    2.7939   -1.0650 C.ar       1 <1>        0.000
     12 C9         -3.6525    1.4368    0.1534 C.ar       1 <1>        0.000
     13 C10        -4.0052   -3.5333    0.1356 C.ar       1 <1>        0.000
     14 C11        -4.8490   -2.0080   -1.5374 C.ar       1 <1>        0.000
     15 S1          2.2413   -0.9639   -0.3340 S.3        1 <1>        0.000
     16 C12        -3.1883    3.7364   -1.2705 C.ar       1 <1>        0.000
     17 C13        -4.7226    2.2842   -0.1529 C.ar       1 <1>        0.000
     18 C16        -4.4754    3.4612   -0.8365 C.ar       1 <1>        0.000
     19 H          -2.0078   -3.1394    0.7984 H.spc      1 <1>        0.000
     20 H          -3.4032   -0.6368   -2.3158 H.spc      1 <1>        0.000
     21 H          -5.9361   -3.7044   -0.7901 H.spc      1 <1>        0.000
     22 H          -1.1576    3.0471   -1.3765 H.spc      1 <1>        0.000
     23 H          -3.7962    0.6658    0.9103 H.spc      1 <1>        0.000
     24 H          -4.1272   -4.4243    0.7515 H.spc      1 <1>        0.000
     25 H          -5.6644   -1.6623   -2.1728 H.spc      1 <1>        0.000
     26 H           2.2992   -2.2922   -0.3003 H.spc      1 <1>        0.000
     27 H          -2.9682    4.6805   -1.7689 H.spc      1 <1>        0.000
     28 H          -5.7379    2.0205    0.1432 H.spc      1 <1>        0.000
     29 H          -5.2846    4.1649   -1.0318 H.spc      1 <1>        0.000
@<TRIPOS>BOND
     1    5   11 ar 
     2    3    8 ar 
     3    2    6 ar 
     4    3    7 ar 
     5   13    9 ar 
     6   14    9 ar 
     7    5   12 ar 
     8    8   14 ar 
     9    7   13 ar 
    10    6   10 ar 
    11   11   16 ar 
    12   12   17 ar 
    13    4   10 ar 
    14    1    2 ar 
    15    2    5 1  
    16   10   15 1  
    17   16   18 ar 
    18   17   18 ar 
    19    1    4 ar 
    20    1    3 1  
    21    7   19 1  
    22    8   20 1  
    23    9   21 1  
    24   11   22 1  
    25   12   23 1  
    26   13   24 1  
    27   14   25 1  
    28   15   26 1  
    29   16   27 1  
    30   17   28 1  
    31   18   29 1  
# Name:          frag5-644-77/138278
# Creation time: Sat Jun  5 12:53:49 2010


@<TRIPOS>MOLECULE
frag5-644-77/138278
   29    31     1     1     1
SMALL
USER_CHARGES


@<TRIPOS>ATOM
      1 C1         -1.5802   -0.7602   -0.5635 C.ar       1 <1>        0.000
      2 C2         -1.3305    0.5347   -0.5480 C.ar       1 <1>        0.000
      3 C3         -2.7538   -1.5390   -0.5755 C.ar       1 <1>        0.000
      4 N1         -0.3780   -1.4107   -0.5472 N.ar       1 <1>        0.000
      5 C4         -2.3735    1.5504   -0.5293 C.ar       1 <1>        0.000
      6 N2          0.0340    0.6651   -0.5492 N.ar       1 <1>        0.000
      7 C5         -3.0589   -2.3556   -1.6781 C.ar       1 <1>        0.000
      8 C6         -3.4864   -1.6678    0.5996 C.ar       1 <1>        0.000
      9 C14        -4.9935   -3.1462   -0.5204 C.ar       1 <1>        0.000
     10 C7          0.6319   -0.4643   -0.5461 C.ar       1 <1>        0.000
     11 C8         -3.5576    1.4004   -1.2737 C.ar       1 <1>        0.000
     12 C9         -2.2182    2.8126    0.0754 C.ar       1 <1>        0.000
     13 C10        -4.2257   -3.0925   -1.6783 C.ar       1 <1>        0.000
     14 C11        -4.6229   -2.4439    0.6205 C.ar       1 <1>        0.000
     15 S1          2.2166   -1.0097   -0.6354 S.3        1 <1>        0.000
     16 C12        -4.6185    2.2934   -1.1947 C.ar       1 <1>        0.000
     17 C13        -3.2991    3.6792    0.2549 C.ar       1 <1>        0.000
     18 C16        -4.4975    3.4250   -0.4029 C.ar       1 <1>        0.000
     19 H          -2.3781   -2.4065   -2.5278 H.spc      1 <1>        0.000
     20 H          -3.1605   -1.1541    1.5041 H.spc      1 <1>        0.000
     21 H          -5.9014   -3.7492   -0.5071 H.spc      1 <1>        0.000
     22 H          -3.6466    0.5446   -1.9428 H.spc      1 <1>        0.000
     23 H          -1.2287    3.1215    0.4123 H.spc      1 <1>        0.000
     24 H          -4.5414   -3.6258   -2.5750 H.spc      1 <1>        0.000
     25 H          -5.2279   -2.5073    1.5250 H.spc      1 <1>        0.000
     26 H           2.2300   -2.3386   -0.5834 H.spc      1 <1>        0.000
     27 H          -5.5376    2.1063   -1.7500 H.spc      1 <1>        0.000
     28 H          -3.2038    4.5483    0.9058 H.spc      1 <1>        0.000
     29 H          -5.3373    4.1117   -0.2966 H.spc      1 <1>        0.000
@<TRIPOS>BOND
     1    5   11 ar 
     2    3    8 ar 
     3    2    6 ar 
     4    3    7 ar 
     5   13    9 ar 
     6   14    9 ar 
     7    5   12 ar 
     8    8   14 ar 
     9    7   13 ar 
    10    6   10 ar 
    11   11   16 ar 
    12   12   17 ar 
    13    4   10 ar 
    14    1    2 ar 
    15    2    5 1  
    16   10   15 1  
    17   16   18 ar 
    18   17   18 ar 
    19    1    4 ar 
    20    1    3 1  
    21    7   19 1  
    22    8   20 1  
    23    9   21 1  
    24   11   22 1  
    25   12   23 1  
    26   13   24 1  
    27   14   25 1  
    28   15   26 1  
    29   16   27 1  
    30   17   28 1  
    31   18   29 1  
# Name:          frag5-644-77/138278
# Creation time: Sat Jun  5 12:53:49 2010


@<TRIPOS>MOLECULE
frag5-644-77/138278
   29    31     1     1     1
SMALL
USER_CHARGES


@<TRIPOS>ATOM
      1 C1         -1.5721   -0.7419   -0.4366 C.ar       1 <1>        0.000
      2 C2         -1.3335    0.5422   -0.3367 C.ar       1 <1>        0.000
      3 C3         -2.7310   -1.5235   -0.6134 C.ar       1 <1>        0.000
      4 N1         -0.3975   -1.3898   -0.3857 N.ar       1 <1>        0.000
      5 C4         -2.4011    1.5429   -0.3848 C.ar       1 <1>        0.000
      6 N2          0.0203    0.6734   -0.2346 N.ar       1 <1>        0.000
      7 C5         -3.1915   -2.3322    0.4372 C.ar       1 <1>        0.000
      8 C6         -3.2111   -1.7389   -1.9076 C.ar       1 <1>        0.000
      9 C14        -4.9678   -3.0681   -0.9818 C.ar       1 <1>        0.000
     10 C7          0.6059   -0.4682   -0.2980 C.ar       1 <1>        0.000
     11 C8         -2.5931    2.3383   -1.5251 C.ar       1 <1>        0.000
     12 C9         -3.1992    1.8694    0.7248 C.ar       1 <1>        0.000
     13 C10        -4.3608   -3.0399    0.2705 C.ar       1 <1>        0.000
     14 C11        -4.4038   -2.4042   -2.0674 C.ar       1 <1>        0.000
     15 S1          2.1734   -1.0646   -0.3258 S.3        1 <1>        0.000
     16 C12        -3.6633    3.2255   -1.6427 C.ar       1 <1>        0.000
     17 C13        -4.3308    2.6781    0.6007 C.ar       1 <1>        0.000
     18 C16        -4.5549    3.3726   -0.5847 C.ar       1 <1>        0.000
     19 H          -2.6323   -2.3990    1.3704 H.spc      1 <1>        0.000
     20 H          -2.6511   -1.3864   -2.7738 H.spc      1 <1>        0.000
     21 H          -5.8992   -3.6186   -1.1144 H.spc      1 <1>        0.000
     22 H          -1.8816    2.2602   -2.3471 H.spc      1 <1>        0.000
     23 H          -2.9282    1.4817    1.7068 H.spc      1 <1>        0.000
     24 H          -4.8065   -3.5726    1.1105 H.spc      1 <1>        0.000
     25 H          -4.9034   -2.4116   -3.0361 H.spc      1 <1>        0.000
     26 H           2.1397   -2.3920   -0.4025 H.spc      1 <1>        0.000
     27 H          -3.8003    3.8004   -2.5586 H.spc      1 <1>        0.000
     28 H          -5.0352    2.7651    1.4280 H.spc      1 <1>        0.000
     29 H          -5.4216    4.0262   -0.6833 H.spc      1 <1>        0.000
@<TRIPOS>BOND
     1    5   11 ar 
     2    3    8 ar 
     3    2    6 ar 
     4    3    7 ar 
     5   13    9 ar 
     6   14    9 ar 
     7    5   12 ar 
     8    8   14 ar 
     9    7   13 ar 
    10    6   10 ar 
    11   11   16 ar 
    12   12   17 ar 
    13    4   10 ar 
    14    1    2 ar 
    15    2    5 1  
    16   10   15 1  
    17   16   18 ar 
    18   17   18 ar 
    19    1    4 ar 
    20    1    3 1  
    21    7   19 1  
    22    8   20 1  
    23    9   21 1  
    24   11   22 1  
    25   12   23 1  
    26   13   24 1  
    27   14   25 1  
    28   15   26 1  
    29   16   27 1  
    30   17   28 1  
    31   18   29 1  
# Name:          frag5-644-77/138278
# Creation time: Sat Jun  5 12:53:49 2010


@<TRIPOS>MOLECULE
frag5-644-77/138278
   29    31     1     1     1
SMALL
USER_CHARGES


@<TRIPOS>ATOM
      1 C1         -1.6214   -0.7941   -0.3548 C.ar       1 <1>        0.000
      2 C2         -1.4145    0.5104   -0.3417 C.ar       1 <1>        0.000
      3 C3         -2.7347   -1.6236   -0.5842 C.ar       1 <1>        0.000
      4 N1         -0.4170   -1.3943   -0.0930 N.ar       1 <1>        0.000
      5 C4         -2.4264    1.5276   -0.5578 C.ar       1 <1>        0.000
      6 N2         -0.0827    0.6948   -0.1069 N.ar       1 <1>        0.000
      7 C5         -3.8982   -1.3764    0.1211 C.ar       1 <1>        0.000
      8 C6         -2.6138   -2.8202   -1.3244 C.ar       1 <1>        0.000
      9 C14        -4.9459   -3.2073   -0.9930 C.ar       1 <1>        0.000
     10 C7          0.5566   -0.4025   -0.0072 C.ar       1 <1>        0.000
     11 C8         -3.0773    2.1395    0.5272 C.ar       1 <1>        0.000
     12 C9         -2.8817    1.9049   -1.8324 C.ar       1 <1>        0.000
     13 C10        -5.0202   -2.1254   -0.1254 C.ar       1 <1>        0.000
     14 C11        -3.7480   -3.5525   -1.6086 C.ar       1 <1>        0.000
     15 S1          2.1572   -0.8729    0.1647 S.3        1 <1>        0.000
     16 C12        -3.9801    3.1887    0.3617 C.ar       1 <1>        0.000
     17 C13        -3.6999    3.0212   -2.0202 C.ar       1 <1>        0.000
     18 C16        -4.2638    3.6535   -0.9170 C.ar       1 <1>        0.000
     19 H          -3.9235   -0.5870    0.8723 H.spc      1 <1>        0.000
     20 H          -1.6367   -3.1609   -1.6669 H.spc      1 <1>        0.000
     21 H          -5.8412   -3.7954   -1.1946 H.spc      1 <1>        0.000
     22 H          -2.8685    1.7805    1.5350 H.spc      1 <1>        0.000
     23 H          -2.5885    1.3105   -2.6978 H.spc      1 <1>        0.000
     24 H          -5.9647   -1.8731    0.3567 H.spc      1 <1>        0.000
     25 H          -3.7056   -4.3895   -2.3056 H.spc      1 <1>        0.000
     26 H           2.2245   -2.2002    0.2166 H.spc      1 <1>        0.000
     27 H          -4.4602    3.6415    1.2292 H.spc      1 <1>        0.000
     28 H          -3.8954    3.3947   -3.0254 H.spc      1 <1>        0.000
     29 H          -4.9248    4.5092   -1.0547 H.spc      1 <1>        0.000
@<TRIPOS>BOND
     1    5   11 ar 
     2    3    8 ar 
     3    2    6 ar 
     4    3    7 ar 
     5   13    9 ar 
     6   14    9 ar 
     7    5   12 ar 
     8    8   14 ar 
     9    7   13 ar 
    10    6   10 ar 
    11   11   16 ar 
    12   12   17 ar 
    13    4   10 ar 
    14    1    2 ar 
    15    2    5 1  
    16   10   15 1  
    17   16   18 ar 
    18   17   18 ar 
    19    1    4 ar 
    20    1    3 1  
    21    7   19 1  
    22    8   20 1  
    23    9   21 1  
    24   11   22 1  
    25   12   23 1  
    26   13   24 1  
    27   14   25 1  
    28   15   26 1  
    29   16   27 1  
    30   17   28 1  
    31   18   29 1  
# Name:          frag5-644-77/138278
# Creation time: Sat Jun  5 12:53:49 2010


@<TRIPOS>MOLECULE
frag5-644-77/138278
   29    31     1     1     1
SMALL
USER_CHARGES


@<TRIPOS>ATOM
      1 C1         -1.6004   -0.7885   -0.4758 C.ar       1 <1>        0.000
      2 C2         -1.3776    0.5201   -0.4098 C.ar       1 <1>        0.000
      3 C3         -2.7158   -1.6299   -0.5628 C.ar       1 <1>        0.000
      4 N1         -0.3778   -1.4066   -0.4676 N.ar       1 <1>        0.000
      5 C4         -2.4062    1.5209   -0.4191 C.ar       1 <1>        0.000
      6 N2         -0.0280    0.6734   -0.3887 N.ar       1 <1>        0.000
      7 C5         -3.3589   -2.0122    0.6007 C.ar       1 <1>        0.000
      8 C6         -3.0918   -2.1438   -1.7932 C.ar       1 <1>        0.000
      9 C14        -5.0094   -3.1217   -0.7355 C.ar       1 <1>        0.000
     10 C7          0.6055   -0.4326   -0.4997 C.ar       1 <1>        0.000
     11 C8         -2.0939    2.8767   -0.6535 C.ar       1 <1>        0.000
     12 C9         -3.7528    1.2689   -0.1102 C.ar       1 <1>        0.000
     13 C10        -4.5409   -2.7143    0.5109 C.ar       1 <1>        0.000
     14 C11        -4.2885   -2.8240   -1.8904 C.ar       1 <1>        0.000
     15 S1          2.1829   -0.8973   -0.6695 S.3        1 <1>        0.000
     16 C12        -3.0801    3.8633   -0.7786 C.ar       1 <1>        0.000
     17 C13        -4.7617    2.2071   -0.3139 C.ar       1 <1>        0.000
     18 C16        -4.4164    3.5116   -0.6352 C.ar       1 <1>        0.000
     19 H          -2.9368   -1.7617    1.5740 H.spc      1 <1>        0.000
     20 H          -2.4545   -2.0133   -2.6678 H.spc      1 <1>        0.000
     21 H          -5.9449   -3.6764   -0.8082 H.spc      1 <1>        0.000
     22 H          -1.0468    3.1669   -0.7404 H.spc      1 <1>        0.000
     23 H          -4.0197    0.2978    0.3067 H.spc      1 <1>        0.000
     24 H          -5.1071   -2.9499    1.4120 H.spc      1 <1>        0.000
     25 H          -4.6682   -3.1271   -2.8661 H.spc      1 <1>        0.000
     26 H           2.2478   -2.2240   -0.7374 H.spc      1 <1>        0.000
     27 H          -2.8020    4.8965   -0.9864 H.spc      1 <1>        0.000
     28 H          -5.8092    1.9200   -0.2220 H.spc      1 <1>        0.000
     29 H          -5.1947    4.2618   -0.7754 H.spc      1 <1>        0.000
@<TRIPOS>BOND
     1    5   11 ar 
     2    3    8 ar 
     3    2    6 ar 
     4    3    7 ar 
     5   13    9 ar 
     6   14    9 ar 
     7    5   12 ar 
     8    8   14 ar 
     9    7   13 ar 
    10    6   10 ar 
    11   11   16 ar 
    12   12   17 ar 
    13    4   10 ar 
    14    1    2 ar 
    15    2    5 1  
    16   10   15 1  
    17   16   18 ar 
    18   17   18 ar 
    19    1    4 ar 
    20    1    3 1  
    21    7   19 1  
    22    8   20 1  
    23    9   21 1  
    24   11   22 1  
    25   12   23 1  
    26   13   24 1  
    27   14   25 1  
    28   15   26 1  
    29   16   27 1  
    30   17   28 1  
    31   18   29 1  
# Name:          frag5-644-77/138278
# Creation time: Sat Jun  5 12:53:49 2010


@<TRIPOS>MOLECULE
frag5-644-77/138278
   29    31     1     1     1
SMALL
USER_CHARGES


@<TRIPOS>ATOM
      1 C1         -1.5759   -0.7629   -0.3358 C.ar       1 <1>        0.000
      2 C2         -1.3346    0.5521   -0.2972 C.ar       1 <1>        0.000
      3 C3         -2.7054   -1.5883   -0.5317 C.ar       1 <1>        0.000
      4 N1         -0.3824   -1.3797   -0.2073 N.ar       1 <1>        0.000
      5 C4         -2.3541    1.5822   -0.4529 C.ar       1 <1>        0.000
      6 N2          0.0178    0.6726   -0.1540 N.ar       1 <1>        0.000
      7 C5         -2.6524   -3.0028   -0.4212 C.ar       1 <1>        0.000
      8 C6         -3.8858   -1.0409   -0.9695 C.ar       1 <1>        0.000
      9 C14        -4.9841   -3.1304   -0.8908 C.ar       1 <1>        0.000
     10 C7          0.6202   -0.4636   -0.1438 C.ar       1 <1>        0.000
     11 C8         -2.4811    2.3325   -1.6429 C.ar       1 <1>        0.000
     12 C9         -3.2750    1.9359    0.5592 C.ar       1 <1>        0.000
     13 C10        -3.7930   -3.7672   -0.5858 C.ar       1 <1>        0.000
     14 C11        -5.0469   -1.7632   -1.0541 C.ar       1 <1>        0.000
     15 S1          2.1916   -1.0091   -0.0786 S.3        1 <1>        0.000
     16 C12        -3.5432    3.2075   -1.8803 C.ar       1 <1>        0.000
     17 C13        -4.4047    2.7183    0.3058 C.ar       1 <1>        0.000
     18 C16        -4.5228    3.3780   -0.9108 C.ar       1 <1>        0.000
     19 H          -1.7025   -3.4915   -0.2043 H.spc      1 <1>        0.000
     20 H          -3.8998    0.0093   -1.2612 H.spc      1 <1>        0.000
     21 H          -5.8918   -3.7232   -1.0042 H.spc      1 <1>        0.000
     22 H          -1.7152    2.2235   -2.4108 H.spc      1 <1>        0.000
     23 H          -3.0973    1.5851    1.5758 H.spc      1 <1>        0.000
     24 H          -3.7551   -4.8511   -0.4774 H.spc      1 <1>        0.000
     25 H          -5.9987   -1.2679   -1.2462 H.spc      1 <1>        0.000
     26 H           2.1988   -2.3389   -0.0995 H.spc      1 <1>        0.000
     27 H          -3.6030    3.7538   -2.8216 H.spc      1 <1>        0.000
     28 H          -5.1882    2.8103    1.0580 H.spc      1 <1>        0.000
     29 H          -5.3785    4.0251   -1.1033 H.spc      1 <1>        0.000
@<TRIPOS>BOND
     1    5   11 ar 
     2    3    8 ar 
     3    2    6 ar 
     4    3    7 ar 
     5   13    9 ar 
     6   14    9 ar 
     7    5   12 ar 
     8    8   14 ar 
     9    7   13 ar 
    10    6   10 ar 
    11   11   16 ar 
    12   12   17 ar 
    13    4   10 ar 
    14    1    2 ar 
    15    2    5 1  
    16   10   15 1  
    17   16   18 ar 
    18   17   18 ar 
    19    1    4 ar 
    20    1    3 1  
    21    7   19 1  
    22    8   20 1  
    23    9   21 1  
    24   11   22 1  
    25   12   23 1  
    26   13   24 1  
    27   14   25 1  
    28   15   26 1  
    29   16   27 1  
    30   17   28 1  
    31   18   29 1  
# Name:          frag5-644-77/138278 -- energy: -3.105496
# Creation time: Sat Jun  5 12:53:49 2010


@<TRIPOS>MOLECULE
frag5-644-77/138278 -- energy: -3.105496
   29    31     1     1     1
SMALL
USER_CHARGES


@<TRIPOS>ATOM
      1 C1         -1.5901   -0.7774   -0.3746 C.ar       1 <1>        0.000
      2 C2         -1.3353    0.5334   -0.3938 C.ar       1 <1>        0.000
      3 C3         -2.7559   -1.5613   -0.4835 C.ar       1 <1>        0.000
      4 N1         -0.3712   -1.3983   -0.3283 N.ar       1 <1>        0.000
      5 C4         -2.3963    1.5396   -0.4770 C.ar       1 <1>        0.000
      6 N2          0.0198    0.6626   -0.3502 N.ar       1 <1>        0.000
      7 C5         -2.8507   -2.7836    0.2060 C.ar       1 <1>        0.000
      8 C6         -3.6505   -1.3390   -1.5197 C.ar       1 <1>        0.000
      9 C14        -5.0103   -3.1317   -0.7352 C.ar       1 <1>        0.000
     10 C7          0.6512   -0.4803   -0.3280 C.ar       1 <1>        0.000
     11 C8         -2.1710    2.7939   -1.0650 C.ar       1 <1>        0.000
     12 C9         -3.6525    1.4368    0.1534 C.ar       1 <1>        0.000
     13 C10        -4.0052   -3.5333    0.1356 C.ar       1 <1>        0.000
     14 C11        -4.8490   -2.0080   -1.5374 C.ar       1 <1>        0.000
     15 S1          2.2413   -0.9639   -0.3340 S.3        1 <1>        0.000
     16 C12        -3.1883    3.7364   -1.2705 C.ar       1 <1>        0.000
     17 C13        -4.7226    2.2842   -0.1529 C.ar       1 <1>        0.000
     18 C16        -4.4754    3.4612   -0.8365 C.ar       1 <1>        0.000
     19 H          -2.0078   -3.1394    0.7984 H.spc      1 <1>        0.000
     20 H          -3.4032   -0.6368   -2.3158 H.spc      1 <1>        0.000
     21 H          -5.9361   -3.7044   -0.7901 H.spc      1 <1>        0.000
     22 H          -1.1576    3.0471   -1.3765 H.spc      1 <1>        0.000
     23 H          -3.7962    0.6658    0.9103 H.spc      1 <1>        0.000
     24 H          -4.1272   -4.4243    0.7515 H.spc      1 <1>        0.000
     25 H          -5.6644   -1.6623   -2.1728 H.spc      1 <1>        0.000
     26 H           2.2992   -2.2922   -0.3003 H.spc      1 <1>        0.000
     27 H          -2.9682    4.6805   -1.7689 H.spc      1 <1>        0.000
     28 H          -5.7379    2.0205    0.1432 H.spc      1 <1>        0.000
     29 H          -5.2846    4.1649   -1.0318 H.spc      1 <1>        0.000
@<TRIPOS>BOND
     1    5   11 ar 
     2    3    8 ar 
     3    2    6 ar 
     4    3    7 ar 
     5   13    9 ar 
     6   14    9 ar 
     7    5   12 ar 
     8    8   14 ar 
     9    7   13 ar 
    10    6   10 ar 
    11   11   16 ar 
    12   12   17 ar 
    13    4   10 ar 
    14    1    2 ar 
    15    2    5 1  
    16   10   15 1  
    17   16   18 ar 
    18   17   18 ar 
    19    1    4 ar 
    20    1    3 1  
    21    7   19 1  
    22    8   20 1  
    23    9   21 1  
    24   11   22 1  
    25   12   23 1  
    26   13   24 1  
    27   14   25 1  
    28   15   26 1  
    29   16   27 1  
    30   17   28 1  
    31   18   29 1  
# Name:          frag5-644-77/138278 -- energy: -3.083308
# Creation time: Sat Jun  5 12:53:50 2010


@<TRIPOS>MOLECULE
frag5-644-77/138278 -- energy: -3.083308
   29    31     1     1     1
SMALL
USER_CHARGES


@<TRIPOS>ATOM
      1 C1         -1.5802   -0.7602   -0.5635 C.ar       1 <1>        0.000
      2 C2         -1.3305    0.5347   -0.5480 C.ar       1 <1>        0.000
      3 C3         -2.7538   -1.5390   -0.5755 C.ar       1 <1>        0.000
      4 N1         -0.3780   -1.4107   -0.5472 N.ar       1 <1>        0.000
      5 C4         -2.3735    1.5504   -0.5293 C.ar       1 <1>        0.000
      6 N2          0.0340    0.6651   -0.5492 N.ar       1 <1>        0.000
      7 C5         -3.0589   -2.3556   -1.6781 C.ar       1 <1>        0.000
      8 C6         -3.4864   -1.6678    0.5996 C.ar       1 <1>        0.000
      9 C14        -4.9935   -3.1462   -0.5204 C.ar       1 <1>        0.000
     10 C7          0.6319   -0.4643   -0.5461 C.ar       1 <1>        0.000
     11 C8         -3.5576    1.4004   -1.2737 C.ar       1 <1>        0.000
     12 C9         -2.2182    2.8126    0.0754 C.ar       1 <1>        0.000
     13 C10        -4.2257   -3.0925   -1.6783 C.ar       1 <1>        0.000
     14 C11        -4.6229   -2.4439    0.6205 C.ar       1 <1>        0.000
     15 S1          2.2166   -1.0097   -0.6354 S.3        1 <1>        0.000
     16 C12        -4.6185    2.2934   -1.1947 C.ar       1 <1>        0.000
     17 C13        -3.2991    3.6792    0.2549 C.ar       1 <1>        0.000
     18 C16        -4.4975    3.4250   -0.4029 C.ar       1 <1>        0.000
     19 H          -2.3781   -2.4065   -2.5278 H.spc      1 <1>        0.000
     20 H          -3.1605   -1.1541    1.5041 H.spc      1 <1>        0.000
     21 H          -5.9014   -3.7492   -0.5071 H.spc      1 <1>        0.000
     22 H          -3.6466    0.5446   -1.9428 H.spc      1 <1>        0.000
     23 H          -1.2287    3.1215    0.4123 H.spc      1 <1>        0.000
     24 H          -4.5414   -3.6258   -2.5750 H.spc      1 <1>        0.000
     25 H          -5.2279   -2.5073    1.5250 H.spc      1 <1>        0.000
     26 H           2.2300   -2.3386   -0.5834 H.spc      1 <1>        0.000
     27 H          -5.5376    2.1063   -1.7500 H.spc      1 <1>        0.000
     28 H          -3.2038    4.5483    0.9058 H.spc      1 <1>        0.000
     29 H          -5.3373    4.1117   -0.2966 H.spc      1 <1>        0.000
@<TRIPOS>BOND
     1    5   11 ar 
     2    3    8 ar 
     3    2    6 ar 
     4    3    7 ar 
     5   13    9 ar 
     6   14    9 ar 
     7    5   12 ar 
     8    8   14 ar 
     9    7   13 ar 
    10    6   10 ar 
    11   11   16 ar 
    12   12   17 ar 
    13    4   10 ar 
    14    1    2 ar 
    15    2    5 1  
    16   10   15 1  
    17   16   18 ar 
    18   17   18 ar 
    19    1    4 ar 
    20    1    3 1  
    21    7   19 1  
    22    8   20 1  
    23    9   21 1  
    24   11   22 1  
    25   12   23 1  
    26   13   24 1  
    27   14   25 1  
    28   15   26 1  
    29   16   27 1  
    30   17   28 1  
    31   18   29 1  
# Name:          frag5-644-77/138278 -- energy: -2.918338
# Creation time: Sat Jun  5 12:53:50 2010


@<TRIPOS>MOLECULE
frag5-644-77/138278 -- energy: -2.918338
   29    31     1     1     1
SMALL
USER_CHARGES


@<TRIPOS>ATOM
      1 C1         -1.5721   -0.7419   -0.4366 C.ar       1 <1>        0.000
      2 C2         -1.3335    0.5422   -0.3367 C.ar       1 <1>        0.000
      3 C3         -2.7310   -1.5235   -0.6134 C.ar       1 <1>        0.000
      4 N1         -0.3975   -1.3898   -0.3857 N.ar       1 <1>        0.000
      5 C4         -2.4011    1.5429   -0.3848 C.ar       1 <1>        0.000
      6 N2          0.0203    0.6734   -0.2346 N.ar       1 <1>        0.000
      7 C5         -3.1915   -2.3322    0.4372 C.ar       1 <1>        0.000
      8 C6         -3.2111   -1.7389   -1.9076 C.ar       1 <1>        0.000
      9 C14        -4.9678   -3.0681   -0.9818 C.ar       1 <1>        0.000
     10 C7          0.6059   -0.4682   -0.2980 C.ar       1 <1>        0.000
     11 C8         -2.5931    2.3383   -1.5251 C.ar       1 <1>        0.000
     12 C9         -3.1992    1.8694    0.7248 C.ar       1 <1>        0.000
     13 C10        -4.3608   -3.0399    0.2705 C.ar       1 <1>        0.000
     14 C11        -4.4038   -2.4042   -2.0674 C.ar       1 <1>        0.000
     15 S1          2.1734   -1.0646   -0.3258 S.3        1 <1>        0.000
     16 C12        -3.6633    3.2255   -1.6427 C.ar       1 <1>        0.000
     17 C13        -4.3308    2.6781    0.6007 C.ar       1 <1>        0.000
     18 C16        -4.5549    3.3726   -0.5847 C.ar       1 <1>        0.000
     19 H          -2.6323   -2.3990    1.3704 H.spc      1 <1>        0.000
     20 H          -2.6511   -1.3864   -2.7738 H.spc      1 <1>        0.000
     21 H          -5.8992   -3.6186   -1.1144 H.spc      1 <1>        0.000
     22 H          -1.8816    2.2602   -2.3471 H.spc      1 <1>        0.000
     23 H          -2.9282    1.4817    1.7068 H.spc      1 <1>        0.000
     24 H          -4.8065   -3.5726    1.1105 H.spc      1 <1>        0.000
     25 H          -4.9034   -2.4116   -3.0361 H.spc      1 <1>        0.000
     26 H           2.1397   -2.3920   -0.4025 H.spc      1 <1>        0.000
     27 H          -3.8003    3.8004   -2.5586 H.spc      1 <1>        0.000
     28 H          -5.0352    2.7651    1.4280 H.spc      1 <1>        0.000
     29 H          -5.4216    4.0262   -0.6833 H.spc      1 <1>        0.000
@<TRIPOS>BOND
     1    5   11 ar 
     2    3    8 ar 
     3    2    6 ar 
     4    3    7 ar 
     5   13    9 ar 
     6   14    9 ar 
     7    5   12 ar 
     8    8   14 ar 
     9    7   13 ar 
    10    6   10 ar 
    11   11   16 ar 
    12   12   17 ar 
    13    4   10 ar 
    14    1    2 ar 
    15    2    5 1  
    16   10   15 1  
    17   16   18 ar 
    18   17   18 ar 
    19    1    4 ar 
    20    1    3 1  
    21    7   19 1  
    22    8   20 1  
    23    9   21 1  
    24   11   22 1  
    25   12   23 1  
    26   13   24 1  
    27   14   25 1  
    28   15   26 1  
    29   16   27 1  
    30   17   28 1  
    31   18   29 1  
# Name:          frag5-644-77/138278 -- energy: -3.066455
# Creation time: Sat Jun  5 12:53:50 2010


@<TRIPOS>MOLECULE
frag5-644-77/138278 -- energy: -3.066455
   29    31     1     1     1
SMALL
USER_CHARGES


@<TRIPOS>ATOM
      1 C1         -1.6214   -0.7941   -0.3548 C.ar       1 <1>        0.000
      2 C2         -1.4145    0.5104   -0.3417 C.ar       1 <1>        0.000
      3 C3         -2.7347   -1.6236   -0.5842 C.ar       1 <1>        0.000
      4 N1         -0.4170   -1.3943   -0.0930 N.ar       1 <1>        0.000
      5 C4         -2.4264    1.5276   -0.5578 C.ar       1 <1>        0.000
      6 N2         -0.0827    0.6948   -0.1069 N.ar       1 <1>        0.000
      7 C5         -3.8982   -1.3764    0.1211 C.ar       1 <1>        0.000
      8 C6         -2.6138   -2.8202   -1.3244 C.ar       1 <1>        0.000
      9 C14        -4.9459   -3.2073   -0.9930 C.ar       1 <1>        0.000
     10 C7          0.5566   -0.4025   -0.0072 C.ar       1 <1>        0.000
     11 C8         -3.0773    2.1395    0.5272 C.ar       1 <1>        0.000
     12 C9         -2.8817    1.9049   -1.8324 C.ar       1 <1>        0.000
     13 C10        -5.0202   -2.1254   -0.1254 C.ar       1 <1>        0.000
     14 C11        -3.7480   -3.5525   -1.6086 C.ar       1 <1>        0.000
     15 S1          2.1572   -0.8729    0.1647 S.3        1 <1>        0.000
     16 C12        -3.9801    3.1887    0.3617 C.ar       1 <1>        0.000
     17 C13        -3.6999    3.0212   -2.0202 C.ar       1 <1>        0.000
     18 C16        -4.2638    3.6535   -0.9170 C.ar       1 <1>        0.000
     19 H          -3.9235   -0.5870    0.8723 H.spc      1 <1>        0.000
     20 H          -1.6367   -3.1609   -1.6669 H.spc      1 <1>        0.000
     21 H          -5.8412   -3.7954   -1.1946 H.spc      1 <1>        0.000
     22 H          -2.8685    1.7805    1.5350 H.spc      1 <1>        0.000
     23 H          -2.5885    1.3105   -2.6978 H.spc      1 <1>        0.000
     24 H          -5.9647   -1.8731    0.3567 H.spc      1 <1>        0.000
     25 H          -3.7056   -4.3895   -2.3056 H.spc      1 <1>        0.000
     26 H           2.2245   -2.2002    0.2166 H.spc      1 <1>        0.000
     27 H          -4.4602    3.6415    1.2292 H.spc      1 <1>        0.000
     28 H          -3.8954    3.3947   -3.0254 H.spc      1 <1>        0.000
     29 H          -4.9248    4.5092   -1.0547 H.spc      1 <1>        0.000
@<TRIPOS>BOND
     1    5   11 ar 
     2    3    8 ar 
     3    2    6 ar 
     4    3    7 ar 
     5   13    9 ar 
     6   14    9 ar 
     7    5   12 ar 
     8    8   14 ar 
     9    7   13 ar 
    10    6   10 ar 
    11   11   16 ar 
    12   12   17 ar 
    13    4   10 ar 
    14    1    2 ar 
    15    2    5 1  
    16   10   15 1  
    17   16   18 ar 
    18   17   18 ar 
    19    1    4 ar 
    20    1    3 1  
    21    7   19 1  
    22    8   20 1  
    23    9   21 1  
    24   11   22 1  
    25   12   23 1  
    26   13   24 1  
    27   14   25 1  
    28   15   26 1  
    29   16   27 1  
    30   17   28 1  
    31   18   29 1  
# Name:          frag5-644-77/138278 -- energy: -2.780353
# Creation time: Sat Jun  5 12:53:50 2010


@<TRIPOS>MOLECULE
frag5-644-77/138278 -- energy: -2.780353
   29    31     1     1     1
SMALL
USER_CHARGES


@<TRIPOS>ATOM
      1 C1         -1.6004   -0.7885   -0.4758 C.ar       1 <1>        0.000
      2 C2         -1.3776    0.5201   -0.4098 C.ar       1 <1>        0.000
      3 C3         -2.7158   -1.6299   -0.5628 C.ar       1 <1>        0.000
      4 N1         -0.3778   -1.4066   -0.4676 N.ar       1 <1>        0.000
      5 C4         -2.4062    1.5209   -0.4191 C.ar       1 <1>        0.000
      6 N2         -0.0280    0.6734   -0.3887 N.ar       1 <1>        0.000
      7 C5         -3.3589   -2.0122    0.6007 C.ar       1 <1>        0.000
      8 C6         -3.0918   -2.1438   -1.7932 C.ar       1 <1>        0.000
      9 C14        -5.0094   -3.1217   -0.7355 C.ar       1 <1>        0.000
     10 C7          0.6055   -0.4326   -0.4997 C.ar       1 <1>        0.000
     11 C8         -2.0939    2.8767   -0.6535 C.ar       1 <1>        0.000
     12 C9         -3.7528    1.2689   -0.1102 C.ar       1 <1>        0.000
     13 C10        -4.5409   -2.7143    0.5109 C.ar       1 <1>        0.000
     14 C11        -4.2885   -2.8240   -1.8904 C.ar       1 <1>        0.000
     15 S1          2.1829   -0.8973   -0.6695 S.3        1 <1>        0.000
     16 C12        -3.0801    3.8633   -0.7786 C.ar       1 <1>        0.000
     17 C13        -4.7617    2.2071   -0.3139 C.ar       1 <1>        0.000
     18 C16        -4.4164    3.5116   -0.6352 C.ar       1 <1>        0.000
     19 H          -2.9368   -1.7617    1.5740 H.spc      1 <1>        0.000
     20 H          -2.4545   -2.0133   -2.6678 H.spc      1 <1>        0.000
     21 H          -5.9449   -3.6764   -0.8082 H.spc      1 <1>        0.000
     22 H          -1.0468    3.1669   -0.7404 H.spc      1 <1>        0.000
     23 H          -4.0197    0.2978    0.3067 H.spc      1 <1>        0.000
     24 H          -5.1071   -2.9499    1.4120 H.spc      1 <1>        0.000
     25 H          -4.6682   -3.1271   -2.8661 H.spc      1 <1>        0.000
     26 H           2.2478   -2.2240   -0.7374 H.spc      1 <1>        0.000
     27 H          -2.8020    4.8965   -0.9864 H.spc      1 <1>        0.000
     28 H          -5.8092    1.9200   -0.2220 H.spc      1 <1>        0.000
     29 H          -5.1947    4.2618   -0.7754 H.spc      1 <1>        0.000
@<TRIPOS>BOND
     1    5   11 ar 
     2    3    8 ar 
     3    2    6 ar 
     4    3    7 ar 
     5   13    9 ar 
     6   14    9 ar 
     7    5   12 ar 
     8    8   14 ar 
     9    7   13 ar 
    10    6   10 ar 
    11   11   16 ar 
    12   12   17 ar 
    13    4   10 ar 
    14    1    2 ar 
    15    2    5 1  
    16   10   15 1  
    17   16   18 ar 
    18   17   18 ar 
    19    1    4 ar 
    20    1    3 1  
    21    7   19 1  
    22    8   20 1  
    23    9   21 1  
    24   11   22 1  
    25   12   23 1  
    26   13   24 1  
    27   14   25 1  
    28   15   26 1  
    29   16   27 1  
    30   17   28 1  
    31   18   29 1  
# Name:          frag5-644-77/138278 -- energy: -2.673074
# Creation time: Sat Jun  5 12:53:50 2010


@<TRIPOS>MOLECULE
frag5-644-77/138278 -- energy: -2.673074
   29    31     1     1     1
SMALL
USER_CHARGES


@<TRIPOS>ATOM
      1 C1         -1.5759   -0.7629   -0.3358 C.ar       1 <1>        0.000
      2 C2         -1.3346    0.5521   -0.2972 C.ar       1 <1>        0.000
      3 C3         -2.7054   -1.5883   -0.5317 C.ar       1 <1>        0.000
      4 N1         -0.3824   -1.3797   -0.2073 N.ar       1 <1>        0.000
      5 C4         -2.3541    1.5822   -0.4529 C.ar       1 <1>        0.000
      6 N2          0.0178    0.6726   -0.1540 N.ar       1 <1>        0.000
      7 C5         -2.6524   -3.0028   -0.4212 C.ar       1 <1>        0.000
      8 C6         -3.8858   -1.0409   -0.9695 C.ar       1 <1>        0.000
      9 C14        -4.9841   -3.1304   -0.8908 C.ar       1 <1>        0.000
     10 C7          0.6202   -0.4636   -0.1438 C.ar       1 <1>        0.000
     11 C8         -2.4811    2.3325   -1.6429 C.ar       1 <1>        0.000
     12 C9         -3.2750    1.9359    0.5592 C.ar       1 <1>        0.000
     13 C10        -3.7930   -3.7672   -0.5858 C.ar       1 <1>        0.000
     14 C11        -5.0469   -1.7632   -1.0541 C.ar       1 <1>        0.000
     15 S1          2.1916   -1.0091   -0.0786 S.3        1 <1>        0.000
     16 C12        -3.5432    3.2075   -1.8803 C.ar       1 <1>        0.000
     17 C13        -4.4047    2.7183    0.3058 C.ar       1 <1>        0.000
     18 C16        -4.5228    3.3780   -0.9108 C.ar       1 <1>        0.000
     19 H          -1.7025   -3.4915   -0.2043 H.spc      1 <1>        0.000
     20 H          -3.8998    0.0093   -1.2612 H.spc      1 <1>        0.000
     21 H          -5.8918   -3.7232   -1.0042 H.spc      1 <1>        0.000
     22 H          -1.7152    2.2235   -2.4108 H.spc      1 <1>        0.000
     23 H          -3.0973    1.5851    1.5758 H.spc      1 <1>        0.000
     24 H          -3.7551   -4.8511   -0.4774 H.spc      1 <1>        0.000
     25 H          -5.9987   -1.2679   -1.2462 H.spc      1 <1>        0.000
     26 H           2.1988   -2.3389   -0.0995 H.spc      1 <1>        0.000
     27 H          -3.6030    3.7538   -2.8216 H.spc      1 <1>        0.000
     28 H          -5.1882    2.8103    1.0580 H.spc      1 <1>        0.000
     29 H          -5.3785    4.0251   -1.1033 H.spc      1 <1>        0.000
@<TRIPOS>BOND
     1    5   11 ar 
     2    3    8 ar 
     3    2    6 ar 
     4    3    7 ar 
     5   13    9 ar 
     6   14    9 ar 
     7    5   12 ar 
     8    8   14 ar 
     9    7   13 ar 
    10    6   10 ar 
    11   11   16 ar 
    12   12   17 ar 
    13    4   10 ar 
    14    1    2 ar 
    15    2    5 1  
    16   10   15 1  
    17   16   18 ar 
    18   17   18 ar 
    19    1    4 ar 
    20    1    3 1  
    21    7   19 1  
    22    8   20 1  
    23    9   21 1  
    24   11   22 1  
    25   12   23 1  
    26   13   24 1  
    27   14   25 1  
    28   15   26 1  
    29   16   27 1  
    30   17   28 1  
    31   18   29 1  
