#      Rotatable Fragment
#      Build by yxyuan
#
# Name:          frag3-118-48/31924
# Creation time: Sat Jun  5 12:52:02 2010


@<TRIPOS>MOLECULE
frag3-118-48/31924
    6     5     1     1     1
SMALL
USER_CHARGES


@<TRIPOS>ATOM
      1 O3         -2.2890   -0.7455    0.5672 O.3        1 <1>        0.000
      2 S1         -3.6389    0.0101    0.8632 S.o2       1 <1>        0.000
      3 O4         -4.7803   -0.8405    0.6015 O.2        1 <1>        0.000
      4 O5         -3.4467    1.4322    0.6517 O.2        1 <1>        0.000
      5 H          -1.5497   -0.1605    0.7484 H.spc      1 <1>        0.000
      6 H          -4.1168    0.2171    2.0870 H.spc      1 <1>        0.000
@<TRIPOS>BOND
     1    1    2 1  
     2    2    3 2  
     3    2    4 2  
     4    1    5 1  
     5    2    6 1  
# Name:          frag3-118-48/31924 -- energy: -0.044791
# Creation time: Sat Jun  5 12:52:02 2010


@<TRIPOS>MOLECULE
frag3-118-48/31924 -- energy: -0.044791
    6     5     1     1     1
SMALL
USER_CHARGES


@<TRIPOS>ATOM
      1 O3         -2.2890   -0.7455    0.5672 O.3        1 <1>        0.000
      2 S1         -3.6389    0.0101    0.8632 S.o2       1 <1>        0.000
      3 O4         -4.7803   -0.8405    0.6015 O.2        1 <1>        0.000
      4 O5         -3.4467    1.4322    0.6517 O.2        1 <1>        0.000
      5 H          -1.5497   -0.1605    0.7484 H.spc      1 <1>        0.000
      6 H          -4.1168    0.2171    2.0870 H.spc      1 <1>        0.000
@<TRIPOS>BOND
     1    1    2 1  
     2    2    3 2  
     3    2    4 2  
     4    1    5 1  
     5    2    6 1  
