#      Rotatable Fragment
#      Build by yxyuan
#
# Name:          frag4-414-53/48856
# Creation time: Sat Jun  5 12:51:59 2010


@<TRIPOS>MOLECULE
frag4-414-53/48856
   40    40     1     1     1
SMALL
USER_CHARGES


@<TRIPOS>ATOM
      1 C7         -0.5159    2.8835    0.9082 C.3        1 <1>        0.000
      2 C8         -0.7261    1.8562   -0.1685 C.3        1 <1>        0.000
      3 C9          0.2220    1.6661   -1.3229 C.3        1 <1>        0.000
      4 C10         0.5710    2.8139   -2.2149 C.3        1 <1>        0.000
      5 C11         1.3713    2.3782   -3.3922 C.3        1 <1>        0.000
      6 C12         2.7811    1.9048   -3.4283 C.3        1 <1>        0.000
      7 C13         3.6804    3.0357   -3.0265 C.3        1 <1>        0.000
      8 C14         5.0181    2.8030   -2.3744 C.3        1 <1>        0.000
      9 C15         5.0293    1.8882   -1.1736 C.3        1 <1>        0.000
     10 O3          4.0311    2.1904   -0.2210 O.3        1 <1>        0.000
     11 C16         3.9717    1.5399    0.9105 C.3        1 <1>        0.000
     12 C17         3.0942    1.7717    2.0889 C.3        1 <1>        0.000
     13 C18         1.6208    1.7670    1.8234 C.3        1 <1>        0.000
     14 C19         0.8997    3.0397    1.4127 C.3        1 <1>        0.000
     15 H          -0.7914    3.8434    0.4714 H.spc      1 <1>        0.000
     16 H          -1.1092    2.5559    1.7619 H.spc      1 <1>        0.000
     17 H          -0.6487    0.9129    0.3721 H.spc      1 <1>        0.000
     18 H          -1.6422    2.1921   -0.6544 H.spc      1 <1>        0.000
     19 H           1.1670    1.3949   -0.8523 H.spc      1 <1>        0.000
     20 H          -0.2912    0.9628   -1.9787 H.spc      1 <1>        0.000
     21 H          -0.3555    3.2594   -2.5772 H.spc      1 <1>        0.000
     22 H           1.1660    3.5243   -1.6410 H.spc      1 <1>        0.000
     23 H           0.8413    1.4692   -3.6768 H.spc      1 <1>        0.000
     24 H           1.4543    3.3150   -3.9432 H.spc      1 <1>        0.000
     25 H           3.0335    1.5716   -4.4350 H.spc      1 <1>        0.000
     26 H           2.9081    1.0691   -2.7401 H.spc      1 <1>        0.000
     27 H           3.1087    3.5553   -2.2575 H.spc      1 <1>        0.000
     28 H           3.9377    3.5065   -3.9753 H.spc      1 <1>        0.000
     29 H           5.3538    3.7763   -2.0166 H.spc      1 <1>        0.000
     30 H           5.6423    2.3218   -3.1274 H.spc      1 <1>        0.000
     31 H           4.8418    0.8763   -1.5327 H.spc      1 <1>        0.000
     32 H           5.9952    2.0064   -0.6825 H.spc      1 <1>        0.000
     33 H           3.5927    0.5775    0.5668 H.spc      1 <1>        0.000
     34 H           4.9442    1.7898    1.3347 H.spc      1 <1>        0.000
     35 H           3.2831    0.9479    2.7771 H.spc      1 <1>        0.000
     36 H           3.3349    2.7688    2.4575 H.spc      1 <1>        0.000
     37 H           1.5080    1.1080    0.9625 H.spc      1 <1>        0.000
     38 H           1.1782    1.5095    2.7856 H.spc      1 <1>        0.000
     39 H           0.8324    3.6509    2.3127 H.spc      1 <1>        0.000
     40 H           1.4709    3.4542    0.5820 H.spc      1 <1>        0.000
@<TRIPOS>BOND
     1    5    6 1  
     2    6    7 1  
     3    7    8 1  
     4    1   14 1  
     5    4    5 1  
     6    3    4 1  
     7    2    3 1  
     8    1    2 1  
     9   13   14 1  
    10   12   13 1  
    11   11   12 1  
    12   10   11 1  
    13    9   10 1  
    14    8    9 1  
    15    1   15 1  
    16    1   16 1  
    17    2   17 1  
    18    2   18 1  
    19    3   19 1  
    20    3   20 1  
    21    4   21 1  
    22    4   22 1  
    23    5   23 1  
    24    5   24 1  
    25    6   25 1  
    26    6   26 1  
    27    7   27 1  
    28    7   28 1  
    29    8   29 1  
    30    8   30 1  
    31    9   31 1  
    32    9   32 1  
    33   11   33 1  
    34   11   34 1  
    35   12   35 1  
    36   12   36 1  
    37   13   37 1  
    38   13   38 1  
    39   14   39 1  
    40   14   40 1  
# Name:          frag4-414-53/48856
# Creation time: Sat Jun  5 12:51:59 2010


@<TRIPOS>MOLECULE
frag4-414-53/48856
   40    40     1     1     1
SMALL
USER_CHARGES


@<TRIPOS>ATOM
      1 C7          0.1183    2.8453    0.5821 C.3        1 <1>        0.000
      2 C8         -0.8610    2.2940   -0.4255 C.3        1 <1>        0.000
      3 C9         -0.3176    1.8396   -1.7634 C.3        1 <1>        0.000
      4 C10         0.0668    2.8783   -2.7830 C.3        1 <1>        0.000
      5 C11         1.1198    2.5043   -3.7728 C.3        1 <1>        0.000
      6 C12         2.5344    2.0389   -3.6580 C.3        1 <1>        0.000
      7 C13         3.3107    2.6356   -2.5169 C.3        1 <1>        0.000
      8 C14         4.5734    1.9550   -2.0438 C.3        1 <1>        0.000
      9 C15         5.2368    2.5460   -0.8181 C.3        1 <1>        0.000
     10 O3          4.4210    2.7251    0.3158 O.3        1 <1>        0.000
     11 C16         4.2989    1.7126    1.1389 C.3        1 <1>        0.000
     12 C17         3.3503    1.4379    2.2355 C.3        1 <1>        0.000
     13 C18         2.1047    2.2771    2.1794 C.3        1 <1>        0.000
     14 C19         1.0920    1.8488    1.1514 C.3        1 <1>        0.000
     15 H           0.7118    3.5956    0.0597 H.spc      1 <1>        0.000
     16 H          -0.4732    3.2148    1.4198 H.spc      1 <1>        0.000
     17 H          -1.2810    1.4004    0.0363 H.spc      1 <1>        0.000
     18 H          -1.5394    3.1166   -0.6516 H.spc      1 <1>        0.000
     19 H           0.6105    1.3187   -1.5282 H.spc      1 <1>        0.000
     20 H          -1.1328    1.2813   -2.2236 H.spc      1 <1>        0.000
     21 H          -0.8341    3.0685   -3.3664 H.spc      1 <1>        0.000
     22 H           0.4771    3.7133   -2.2151 H.spc      1 <1>        0.000
     23 H           0.6728    1.5852   -4.1516 H.spc      1 <1>        0.000
     24 H           1.3034    3.4899   -4.2005 H.spc      1 <1>        0.000
     25 H           3.0402    2.3422   -4.5746 H.spc      1 <1>        0.000
     26 H           2.4981    0.9634   -3.4848 H.spc      1 <1>        0.000
     27 H           2.6330    2.5870   -1.6646 H.spc      1 <1>        0.000
     28 H           3.6399    3.6079   -2.8834 H.spc      1 <1>        0.000
     29 H           5.2937    2.0544   -2.8558 H.spc      1 <1>        0.000
     30 H           4.2867    0.9389   -1.7729 H.spc      1 <1>        0.000
     31 H           6.0105    1.8371   -0.5233 H.spc      1 <1>        0.000
     32 H           5.5721    3.5418   -1.1080 H.spc      1 <1>        0.000
     33 H           3.9847    0.9440    0.4328 H.spc      1 <1>        0.000
     34 H           5.2122    1.8420    1.7196 H.spc      1 <1>        0.000
     35 H           3.0454    0.3949    2.1497 H.spc      1 <1>        0.000
     36 H           3.8579    1.6693    3.1719 H.spc      1 <1>        0.000
     37 H           1.6216    2.1871    3.1523 H.spc      1 <1>        0.000
     38 H           2.4178    3.2859    1.9102 H.spc      1 <1>        0.000
     39 H           1.6913    1.5382    0.2956 H.spc      1 <1>        0.000
     40 H           0.4645    1.1276    1.6751 H.spc      1 <1>        0.000
@<TRIPOS>BOND
     1    5    6 1  
     2    6    7 1  
     3    7    8 1  
     4    1   14 1  
     5    4    5 1  
     6    3    4 1  
     7    2    3 1  
     8    1    2 1  
     9   13   14 1  
    10   12   13 1  
    11   11   12 1  
    12   10   11 1  
    13    9   10 1  
    14    8    9 1  
    15    1   15 1  
    16    1   16 1  
    17    2   17 1  
    18    2   18 1  
    19    3   19 1  
    20    3   20 1  
    21    4   21 1  
    22    4   22 1  
    23    5   23 1  
    24    5   24 1  
    25    6   25 1  
    26    6   26 1  
    27    7   27 1  
    28    7   28 1  
    29    8   29 1  
    30    8   30 1  
    31    9   31 1  
    32    9   32 1  
    33   11   33 1  
    34   11   34 1  
    35   12   35 1  
    36   12   36 1  
    37   13   37 1  
    38   13   38 1  
    39   14   39 1  
    40   14   40 1  
# Name:          frag4-414-53/48856
# Creation time: Sat Jun  5 12:51:59 2010


@<TRIPOS>MOLECULE
frag4-414-53/48856
   40    40     1     1     1
SMALL
USER_CHARGES


@<TRIPOS>ATOM
      1 C7         -0.2999    2.2829    0.8276 C.3        1 <1>        0.000
      2 C8         -0.1164    2.8249   -0.5798 C.3        1 <1>        0.000
      3 C9         -0.3272    1.8862   -1.7615 C.3        1 <1>        0.000
      4 C10        -0.1646    2.4455   -3.1617 C.3        1 <1>        0.000
      5 C11         1.2030    2.3552   -3.7517 C.3        1 <1>        0.000
      6 C12         2.4696    3.0377   -3.3793 C.3        1 <1>        0.000
      7 C13         3.2701    2.2370   -2.4081 C.3        1 <1>        0.000
      8 C14         4.6365    2.6747   -1.9601 C.3        1 <1>        0.000
      9 C15         5.2545    1.7481   -0.9564 C.3        1 <1>        0.000
     10 O3          4.4333    1.3261    0.0919 O.3        1 <1>        0.000
     11 C16         4.3403    2.1379    1.1136 C.3        1 <1>        0.000
     12 C17         3.4041    2.1316    2.2402 C.3        1 <1>        0.000
     13 C18         2.0491    2.6954    1.9202 C.3        1 <1>        0.000
     14 C19         0.8962    1.7550    1.5867 C.3        1 <1>        0.000
     15 H          -0.6405    3.1387    1.4104 H.spc      1 <1>        0.000
     16 H          -0.9533    1.4188    0.7072 H.spc      1 <1>        0.000
     17 H          -0.8825    3.5926   -0.6889 H.spc      1 <1>        0.000
     18 H           0.9321    3.1175   -0.6352 H.spc      1 <1>        0.000
     19 H           0.4473    1.1254   -1.6650 H.spc      1 <1>        0.000
     20 H          -1.3694    1.5736   -1.6969 H.spc      1 <1>        0.000
     21 H          -0.8136    1.8508   -3.8046 H.spc      1 <1>        0.000
     22 H          -0.3977    3.5081   -3.0943 H.spc      1 <1>        0.000
     23 H           1.4562    1.3292   -3.4845 H.spc      1 <1>        0.000
     24 H           1.0199    2.8146   -4.7230 H.spc      1 <1>        0.000
     25 H           2.2193    3.9901   -2.9119 H.spc      1 <1>        0.000
     26 H           3.0639    3.1710   -4.2833 H.spc      1 <1>        0.000
     27 H           3.4583    1.3024   -2.9366 H.spc      1 <1>        0.000
     28 H           2.6760    2.2691   -1.4948 H.spc      1 <1>        0.000
     29 H           4.5318    3.6512   -1.4873 H.spc      1 <1>        0.000
     30 H           5.2828    2.6892   -2.8377 H.spc      1 <1>        0.000
     31 H           5.5285    0.8476   -1.5060 H.spc      1 <1>        0.000
     32 H           6.0706    2.3042   -0.4950 H.spc      1 <1>        0.000
     33 H           5.2702    1.9048    1.6323 H.spc      1 <1>        0.000
     34 H           4.0296    3.0521    0.6078 H.spc      1 <1>        0.000
     35 H           3.2584    1.0912    2.5306 H.spc      1 <1>        0.000
     36 H           3.8364    2.7582    3.0203 H.spc      1 <1>        0.000
     37 H           1.7375    3.1967    2.8365 H.spc      1 <1>        0.000
     38 H           2.2016    3.2755    1.0101 H.spc      1 <1>        0.000
     39 H           1.3331    1.0050    0.9274 H.spc      1 <1>        0.000
     40 H           0.4975    1.4521    2.5549 H.spc      1 <1>        0.000
@<TRIPOS>BOND
     1    5    6 1  
     2    6    7 1  
     3    7    8 1  
     4    1   14 1  
     5    4    5 1  
     6    3    4 1  
     7    2    3 1  
     8    1    2 1  
     9   13   14 1  
    10   12   13 1  
    11   11   12 1  
    12   10   11 1  
    13    9   10 1  
    14    8    9 1  
    15    1   15 1  
    16    1   16 1  
    17    2   17 1  
    18    2   18 1  
    19    3   19 1  
    20    3   20 1  
    21    4   21 1  
    22    4   22 1  
    23    5   23 1  
    24    5   24 1  
    25    6   25 1  
    26    6   26 1  
    27    7   27 1  
    28    7   28 1  
    29    8   29 1  
    30    8   30 1  
    31    9   31 1  
    32    9   32 1  
    33   11   33 1  
    34   11   34 1  
    35   12   35 1  
    36   12   36 1  
    37   13   37 1  
    38   13   38 1  
    39   14   39 1  
    40   14   40 1  
# Name:          frag4-414-53/48856
# Creation time: Sat Jun  5 12:51:59 2010


@<TRIPOS>MOLECULE
frag4-414-53/48856
   40    40     1     1     1
SMALL
USER_CHARGES


@<TRIPOS>ATOM
      1 C7         -0.3959    1.8054    0.9616 C.3        1 <1>        0.000
      2 C8         -0.7914    2.3454   -0.3948 C.3        1 <1>        0.000
      3 C9          0.1568    2.1064   -1.5360 C.3        1 <1>        0.000
      4 C10        -0.0001    2.8417   -2.8326 C.3        1 <1>        0.000
      5 C11         1.2175    2.7083   -3.6752 C.3        1 <1>        0.000
      6 C12         2.6333    3.0586   -3.3801 C.3        1 <1>        0.000
      7 C13         3.5080    1.9147   -2.9314 C.3        1 <1>        0.000
      8 C14         4.8262    2.2641   -2.2788 C.3        1 <1>        0.000
      9 C15         5.1450    1.6681   -0.9313 C.3        1 <1>        0.000
     10 O3          4.3085    2.2471    0.0682 O.3        1 <1>        0.000
     11 C16         4.1265    1.7282    1.2525 C.3        1 <1>        0.000
     12 C17         3.3022    2.3522    2.3185 C.3        1 <1>        0.000
     13 C18         1.9669    2.8115    1.7904 C.3        1 <1>        0.000
     14 C19         1.0451    1.6867    1.3906 C.3        1 <1>        0.000
     15 H          -0.8091    2.5362    1.6568 H.spc      1 <1>        0.000
     16 H          -0.7392    0.7712    0.9338 H.spc      1 <1>        0.000
     17 H          -1.7114    1.8255   -0.6622 H.spc      1 <1>        0.000
     18 H          -0.8442    3.4278   -0.2772 H.spc      1 <1>        0.000
     19 H           1.1210    2.4429   -1.1550 H.spc      1 <1>        0.000
     20 H          -0.0056    1.0619   -1.8018 H.spc      1 <1>        0.000
     21 H          -0.8463    2.4179   -3.3734 H.spc      1 <1>        0.000
     22 H          -0.1607    3.8980   -2.6170 H.spc      1 <1>        0.000
     23 H           1.2950    1.6225   -3.7320 H.spc      1 <1>        0.000
     24 H           0.9956    3.4397   -4.4524 H.spc      1 <1>        0.000
     25 H           2.6103    3.7721   -2.5564 H.spc      1 <1>        0.000
     26 H           3.0613    3.4283   -4.3119 H.spc      1 <1>        0.000
     27 H           3.7639    1.3659   -3.8378 H.spc      1 <1>        0.000
     28 H           2.9338    1.3849   -2.1713 H.spc      1 <1>        0.000
     29 H           4.7834    3.3402   -2.1105 H.spc      1 <1>        0.000
     30 H           5.5889    1.8709   -2.9509 H.spc      1 <1>        0.000
     31 H           4.9719    0.5925   -0.9648 H.spc      1 <1>        0.000
     32 H           6.1879    1.8703   -0.6874 H.spc      1 <1>        0.000
     33 H           3.5774    0.8131    1.0307 H.spc      1 <1>        0.000
     34 H           5.1287    1.7521    1.6805 H.spc      1 <1>        0.000
     35 H           3.1276    1.6101    3.0975 H.spc      1 <1>        0.000
     36 H           3.8372    3.2202    2.7037 H.spc      1 <1>        0.000
     37 H           1.4750    3.3633    2.5914 H.spc      1 <1>        0.000
     38 H           2.1596    3.4047    0.8965 H.spc      1 <1>        0.000
     39 H           1.5169    1.3342    0.4734 H.spc      1 <1>        0.000
     40 H           0.9485    1.1405    2.3289 H.spc      1 <1>        0.000
@<TRIPOS>BOND
     1    5    6 1  
     2    6    7 1  
     3    7    8 1  
     4    1   14 1  
     5    4    5 1  
     6    3    4 1  
     7    2    3 1  
     8    1    2 1  
     9   13   14 1  
    10   12   13 1  
    11   11   12 1  
    12   10   11 1  
    13    9   10 1  
    14    8    9 1  
    15    1   15 1  
    16    1   16 1  
    17    2   17 1  
    18    2   18 1  
    19    3   19 1  
    20    3   20 1  
    21    4   21 1  
    22    4   22 1  
    23    5   23 1  
    24    5   24 1  
    25    6   25 1  
    26    6   26 1  
    27    7   27 1  
    28    7   28 1  
    29    8   29 1  
    30    8   30 1  
    31    9   31 1  
    32    9   32 1  
    33   11   33 1  
    34   11   34 1  
    35   12   35 1  
    36   12   36 1  
    37   13   37 1  
    38   13   38 1  
    39   14   39 1  
    40   14   40 1  
# Name:          frag4-414-53/48856
# Creation time: Sat Jun  5 12:51:59 2010


@<TRIPOS>MOLECULE
frag4-414-53/48856
   40    40     1     1     1
SMALL
USER_CHARGES


@<TRIPOS>ATOM
      1 C7         -0.1462    2.8261    0.7235 C.3        1 <1>        0.000
      2 C8         -0.1621    3.0415   -0.7753 C.3        1 <1>        0.000
      3 C9         -0.2820    1.7958   -1.6269 C.3        1 <1>        0.000
      4 C10        -0.0756    1.8224   -3.1136 C.3        1 <1>        0.000
      5 C11         1.3375    1.9339   -3.5312 C.3        1 <1>        0.000
      6 C12         2.3232    3.0379   -3.4805 C.3        1 <1>        0.000
      7 C13         3.2357    3.0880   -2.2719 C.3        1 <1>        0.000
      8 C14         4.1595    1.9167   -1.9900 C.3        1 <1>        0.000
      9 C15         5.2441    2.1966   -0.9762 C.3        1 <1>        0.000
     10 O3          4.9059    2.3886    0.3901 O.3        1 <1>        0.000
     11 C16         4.1615    1.4793    0.9807 C.3        1 <1>        0.000
     12 C17         3.3170    1.5887    2.1863 C.3        1 <1>        0.000
     13 C18         2.1338    2.5062    1.9721 C.3        1 <1>        0.000
     14 C19         0.8960    1.9167    1.3345 C.3        1 <1>        0.000
     15 H           0.0659    3.8100    1.1420 H.spc      1 <1>        0.000
     16 H          -1.0981    2.3427    0.9435 H.spc      1 <1>        0.000
     17 H          -1.0465    3.6422   -0.9876 H.spc      1 <1>        0.000
     18 H           0.7972    3.4928   -1.0286 H.spc      1 <1>        0.000
     19 H           0.5290    1.1622   -1.2679 H.spc      1 <1>        0.000
     20 H          -1.3292    1.5131   -1.5196 H.spc      1 <1>        0.000
     21 H          -0.4517    0.8776   -3.5059 H.spc      1 <1>        0.000
     22 H          -0.5919    2.7043   -3.4927 H.spc      1 <1>        0.000
     23 H           1.7879    1.2664   -2.7966 H.spc      1 <1>        0.000
     24 H           1.2039    1.8711   -4.6112 H.spc      1 <1>        0.000
     25 H           1.7393    3.9579   -3.4517 H.spc      1 <1>        0.000
     26 H           2.9762    2.8945   -4.3414 H.spc      1 <1>        0.000
     27 H           2.5621    3.1237   -1.4157 H.spc      1 <1>        0.000
     28 H           3.9025    3.9293   -2.4611 H.spc      1 <1>        0.000
     29 H           4.6579    1.6732   -2.9283 H.spc      1 <1>        0.000
     30 H           3.5418    1.1173   -1.5807 H.spc      1 <1>        0.000
     31 H           5.8604    1.2976   -0.9809 H.spc      1 <1>        0.000
     32 H           5.6698    3.1502   -1.2884 H.spc      1 <1>        0.000
     33 H           3.3973    1.3257    0.2187 H.spc      1 <1>        0.000
     34 H           4.9324    0.7985    1.3418 H.spc      1 <1>        0.000
     35 H           2.9375    0.5955    2.4264 H.spc      1 <1>        0.000
     36 H           3.9255    2.0015    2.9909 H.spc      1 <1>        0.000
     37 H           1.8263    2.8241    2.9683 H.spc      1 <1>        0.000
     38 H           2.4809    3.2744    1.2811 H.spc      1 <1>        0.000
     39 H           1.2737    1.3327    0.4952 H.spc      1 <1>        0.000
     40 H           0.3773    1.4202    2.1546 H.spc      1 <1>        0.000
@<TRIPOS>BOND
     1    5    6 1  
     2    6    7 1  
     3    7    8 1  
     4    1   14 1  
     5    4    5 1  
     6    3    4 1  
     7    2    3 1  
     8    1    2 1  
     9   13   14 1  
    10   12   13 1  
    11   11   12 1  
    12   10   11 1  
    13    9   10 1  
    14    8    9 1  
    15    1   15 1  
    16    1   16 1  
    17    2   17 1  
    18    2   18 1  
    19    3   19 1  
    20    3   20 1  
    21    4   21 1  
    22    4   22 1  
    23    5   23 1  
    24    5   24 1  
    25    6   25 1  
    26    6   26 1  
    27    7   27 1  
    28    7   28 1  
    29    8   29 1  
    30    8   30 1  
    31    9   31 1  
    32    9   32 1  
    33   11   33 1  
    34   11   34 1  
    35   12   35 1  
    36   12   36 1  
    37   13   37 1  
    38   13   38 1  
    39   14   39 1  
    40   14   40 1  
# Name:          frag4-414-53/48856
# Creation time: Sat Jun  5 12:51:59 2010


@<TRIPOS>MOLECULE
frag4-414-53/48856
   40    40     1     1     1
SMALL
USER_CHARGES


@<TRIPOS>ATOM
      1 C7         -0.3988    2.1102    1.1594 C.3        1 <1>        0.000
      2 C8         -0.0201    2.9340   -0.0471 C.3        1 <1>        0.000
      3 C9          0.2633    2.2000   -1.3366 C.3        1 <1>        0.000
      4 C10         0.5443    3.0337   -2.5605 C.3        1 <1>        0.000
      5 C11         1.9678    3.1252   -2.9704 C.3        1 <1>        0.000
      6 C12         2.7897    2.2731   -3.8660 C.3        1 <1>        0.000
      7 C13         3.6812    1.2857   -3.1661 C.3        1 <1>        0.000
      8 C14         4.9036    1.7402   -2.3962 C.3        1 <1>        0.000
      9 C15         4.7300    2.6729   -1.2113 C.3        1 <1>        0.000
     10 O3          3.7866    2.2340   -0.2702 O.3        1 <1>        0.000
     11 C16         3.5135    2.9535    0.7967 C.3        1 <1>        0.000
     12 C17         2.7075    2.6137    1.9818 C.3        1 <1>        0.000
     13 C18         2.0396    1.2636    1.9232 C.3        1 <1>        0.000
     14 C19         0.5402    1.0987    1.7851 C.3        1 <1>        0.000
     15 H          -0.5234    2.8564    1.9441 H.spc      1 <1>        0.000
     16 H          -1.2231    1.4966    0.7960 H.spc      1 <1>        0.000
     17 H          -0.8853    3.5639   -0.2538 H.spc      1 <1>        0.000
     18 H           0.9141    3.4287    0.2187 H.spc      1 <1>        0.000
     19 H           1.1724    1.6266   -1.1556 H.spc      1 <1>        0.000
     20 H          -0.6446    1.6409   -1.5630 H.spc      1 <1>        0.000
     21 H           0.0177    2.5543   -3.3857 H.spc      1 <1>        0.000
     22 H           0.2287    4.0487   -2.3193 H.spc      1 <1>        0.000
     23 H           1.9292    4.0363   -3.5675 H.spc      1 <1>        0.000
     24 H           2.4484    2.9070   -2.0167 H.spc      1 <1>        0.000
     25 H           3.4424    2.9437   -4.4249 H.spc      1 <1>        0.000
     26 H           2.0941    1.6928   -4.4722 H.spc      1 <1>        0.000
     27 H           4.0905    0.6816   -3.9758 H.spc      1 <1>        0.000
     28 H           3.0385    0.8467   -2.4030 H.spc      1 <1>        0.000
     29 H           5.4900    2.3109   -3.1163 H.spc      1 <1>        0.000
     30 H           5.3216    0.8269   -1.9729 H.spc      1 <1>        0.000
     31 H           5.6918    2.7292   -0.7016 H.spc      1 <1>        0.000
     32 H           4.3765    3.6274   -1.6013 H.spc      1 <1>        0.000
     33 H           4.5042    3.0218    1.2462 H.spc      1 <1>        0.000
     34 H           2.8930    3.7328    0.3543 H.spc      1 <1>        0.000
     35 H           3.3877    2.5945    2.8333 H.spc      1 <1>        0.000
     36 H           1.9138    3.3577    2.0497 H.spc      1 <1>        0.000
     37 H           2.4256    0.8326    0.9994 H.spc      1 <1>        0.000
     38 H           2.2497    0.8370    2.9040 H.spc      1 <1>        0.000
     39 H           0.4640    0.2575    1.0961 H.spc      1 <1>        0.000
     40 H           0.2128    1.0937    2.8248 H.spc      1 <1>        0.000
@<TRIPOS>BOND
     1    5    6 1  
     2    6    7 1  
     3    7    8 1  
     4    1   14 1  
     5    4    5 1  
     6    3    4 1  
     7    2    3 1  
     8    1    2 1  
     9   13   14 1  
    10   12   13 1  
    11   11   12 1  
    12   10   11 1  
    13    9   10 1  
    14    8    9 1  
    15    1   15 1  
    16    1   16 1  
    17    2   17 1  
    18    2   18 1  
    19    3   19 1  
    20    3   20 1  
    21    4   21 1  
    22    4   22 1  
    23    5   23 1  
    24    5   24 1  
    25    6   25 1  
    26    6   26 1  
    27    7   27 1  
    28    7   28 1  
    29    8   29 1  
    30    8   30 1  
    31    9   31 1  
    32    9   32 1  
    33   11   33 1  
    34   11   34 1  
    35   12   35 1  
    36   12   36 1  
    37   13   37 1  
    38   13   38 1  
    39   14   39 1  
    40   14   40 1  
# Name:          frag4-414-53/48856
# Creation time: Sat Jun  5 12:51:59 2010


@<TRIPOS>MOLECULE
frag4-414-53/48856
   40    40     1     1     1
SMALL
USER_CHARGES


@<TRIPOS>ATOM
      1 C7         -0.2829    2.0423    0.6509 C.3        1 <1>        0.000
      2 C8         -0.7230    3.0406   -0.3903 C.3        1 <1>        0.000
      3 C9          0.0707    3.1348   -1.6647 C.3        1 <1>        0.000
      4 C10         0.2860    1.8823   -2.4701 C.3        1 <1>        0.000
      5 C11         1.1051    2.1261   -3.6884 C.3        1 <1>        0.000
      6 C12         2.5392    2.5324   -3.7947 C.3        1 <1>        0.000
      7 C13         3.3005    2.1365   -2.5573 C.3        1 <1>        0.000
      8 C14         4.7766    2.3363   -2.3222 C.3        1 <1>        0.000
      9 C15         5.1637    2.5909   -0.8694 C.3        1 <1>        0.000
     10 O3          4.3653    1.8934    0.0630 O.3        1 <1>        0.000
     11 C16         4.2624    2.2543    1.3148 C.3        1 <1>        0.000
     12 C17         3.2789    1.8189    2.3370 C.3        1 <1>        0.000
     13 C18         1.9738    1.3476    1.7454 C.3        1 <1>        0.000
     14 C19         0.9323    2.4019    1.4676 C.3        1 <1>        0.000
     15 H          -1.1076    1.9661    1.3595 H.spc      1 <1>        0.000
     16 H          -0.0187    1.1370    0.1043 H.spc      1 <1>        0.000
     17 H          -1.7188    2.7184   -0.6948 H.spc      1 <1>        0.000
     18 H          -0.6204    4.0161    0.0851 H.spc      1 <1>        0.000
     19 H          -0.5070    3.7944   -2.3123 H.spc      1 <1>        0.000
     20 H           1.0675    3.4508   -1.3571 H.spc      1 <1>        0.000
     21 H           0.8173    1.1655   -1.8440 H.spc      1 <1>        0.000
     22 H          -0.6893    1.5131   -2.7873 H.spc      1 <1>        0.000
     23 H           1.1497    1.1200   -4.1054 H.spc      1 <1>        0.000
     24 H           0.6144    3.0144   -4.0862 H.spc      1 <1>        0.000
     25 H           2.5902    3.6154   -3.9072 H.spc      1 <1>        0.000
     26 H           2.9832    2.0324   -4.6555 H.spc      1 <1>        0.000
     27 H           3.2226    1.0496   -2.5839 H.spc      1 <1>        0.000
     28 H           2.8626    2.7924   -1.8049 H.spc      1 <1>        0.000
     29 H           5.0704    3.2206   -2.8877 H.spc      1 <1>        0.000
     30 H           5.2731    1.4144   -2.6252 H.spc      1 <1>        0.000
     31 H           6.1898    2.2464   -0.7410 H.spc      1 <1>        0.000
     32 H           5.0307    3.6559   -0.6792 H.spc      1 <1>        0.000
     33 H           5.1788    1.8280    1.7230 H.spc      1 <1>        0.000
     34 H           3.9827    3.3015    1.1998 H.spc      1 <1>        0.000
     35 H           3.7165    0.9811    2.8798 H.spc      1 <1>        0.000
     36 H           3.0619    2.6774    2.9726 H.spc      1 <1>        0.000
     37 H           2.2240    0.9123    0.7779 H.spc      1 <1>        0.000
     38 H           1.5334    0.6802    2.4862 H.spc      1 <1>        0.000
     39 H           0.5390    2.6695    2.4483 H.spc      1 <1>        0.000
     40 H           1.4513    3.1565    0.8765 H.spc      1 <1>        0.000
@<TRIPOS>BOND
     1    5    6 1  
     2    6    7 1  
     3    7    8 1  
     4    1   14 1  
     5    4    5 1  
     6    3    4 1  
     7    2    3 1  
     8    1    2 1  
     9   13   14 1  
    10   12   13 1  
    11   11   12 1  
    12   10   11 1  
    13    9   10 1  
    14    8    9 1  
    15    1   15 1  
    16    1   16 1  
    17    2   17 1  
    18    2   18 1  
    19    3   19 1  
    20    3   20 1  
    21    4   21 1  
    22    4   22 1  
    23    5   23 1  
    24    5   24 1  
    25    6   25 1  
    26    6   26 1  
    27    7   27 1  
    28    7   28 1  
    29    8   29 1  
    30    8   30 1  
    31    9   31 1  
    32    9   32 1  
    33   11   33 1  
    34   11   34 1  
    35   12   35 1  
    36   12   36 1  
    37   13   37 1  
    38   13   38 1  
    39   14   39 1  
    40   14   40 1  
# Name:          frag4-414-53/48856
# Creation time: Sat Jun  5 12:51:59 2010


@<TRIPOS>MOLECULE
frag4-414-53/48856
   40    40     1     1     1
SMALL
USER_CHARGES


@<TRIPOS>ATOM
      1 C7         -0.5497    2.3067    0.9962 C.3        1 <1>        0.000
      2 C8         -0.3624    1.6156   -0.3418 C.3        1 <1>        0.000
      3 C9          0.6452    2.2331   -1.2897 C.3        1 <1>        0.000
      4 C10         0.6237    1.9029   -2.7564 C.3        1 <1>        0.000
      5 C11         1.3275    2.9103   -3.6068 C.3        1 <1>        0.000
      6 C12         2.7614    3.2835   -3.7810 C.3        1 <1>        0.000
      7 C13         3.6726    3.0982   -2.5994 C.3        1 <1>        0.000
      8 C14         4.2817    1.7279   -2.4203 C.3        1 <1>        0.000
      9 C15         4.8819    1.3438   -1.0690 C.3        1 <1>        0.000
     10 O3          3.9700    1.2800    0.0109 O.3        1 <1>        0.000
     11 C16         4.1179    2.2085    0.9377 C.3        1 <1>        0.000
     12 C17         3.1973    2.6627    2.0089 C.3        1 <1>        0.000
     13 C18         1.8237    2.0396    2.0592 C.3        1 <1>        0.000
     14 C19         0.6578    2.9257    1.6729 C.3        1 <1>        0.000
     15 H          -1.2186    3.1426    0.7915 H.spc      1 <1>        0.000
     16 H          -0.8833    1.5222    1.6754 H.spc      1 <1>        0.000
     17 H           0.0109    0.6170   -0.1149 H.spc      1 <1>        0.000
     18 H          -1.3261    1.6735   -0.8478 H.spc      1 <1>        0.000
     19 H           0.4256    3.3001   -1.2537 H.spc      1 <1>        0.000
     20 H           1.6054    1.8497   -0.9444 H.spc      1 <1>        0.000
     21 H           1.1381    0.9505   -2.8846 H.spc      1 <1>        0.000
     22 H          -0.4196    1.8812   -3.0713 H.spc      1 <1>        0.000
     23 H           1.1481    2.4629   -4.5844 H.spc      1 <1>        0.000
     24 H           0.9726    3.8198   -3.1222 H.spc      1 <1>        0.000
     25 H           2.7639    4.3533   -3.9897 H.spc      1 <1>        0.000
     26 H           3.1460    2.6207   -4.5561 H.spc      1 <1>        0.000
     27 H           3.0576    3.2710   -1.7162 H.spc      1 <1>        0.000
     28 H           4.5085    3.7801   -2.7553 H.spc      1 <1>        0.000
     29 H           5.1226    1.7057   -3.1134 H.spc      1 <1>        0.000
     30 H           3.4521    1.0352   -2.5620 H.spc      1 <1>        0.000
     31 H           5.2916    0.3407   -1.1869 H.spc      1 <1>        0.000
     32 H           5.6029    2.1220   -0.8189 H.spc      1 <1>        0.000
     33 H           4.9001    1.7495    1.5423 H.spc      1 <1>        0.000
     34 H           4.1341    3.1004    0.3113 H.spc      1 <1>        0.000
     35 H           3.6793    2.3855    2.9464 H.spc      1 <1>        0.000
     36 H           3.0311    3.7236    1.8220 H.spc      1 <1>        0.000
     37 H           1.8364    1.2276    1.3321 H.spc      1 <1>        0.000
     38 H           1.6580    1.7638    3.1006 H.spc      1 <1>        0.000
     39 H           0.2788    3.3158    2.6175 H.spc      1 <1>        0.000
     40 H           1.0657    3.6183    0.9367 H.spc      1 <1>        0.000
@<TRIPOS>BOND
     1    5    6 1  
     2    6    7 1  
     3    7    8 1  
     4    1   14 1  
     5    4    5 1  
     6    3    4 1  
     7    2    3 1  
     8    1    2 1  
     9   13   14 1  
    10   12   13 1  
    11   11   12 1  
    12   10   11 1  
    13    9   10 1  
    14    8    9 1  
    15    1   15 1  
    16    1   16 1  
    17    2   17 1  
    18    2   18 1  
    19    3   19 1  
    20    3   20 1  
    21    4   21 1  
    22    4   22 1  
    23    5   23 1  
    24    5   24 1  
    25    6   25 1  
    26    6   26 1  
    27    7   27 1  
    28    7   28 1  
    29    8   29 1  
    30    8   30 1  
    31    9   31 1  
    32    9   32 1  
    33   11   33 1  
    34   11   34 1  
    35   12   35 1  
    36   12   36 1  
    37   13   37 1  
    38   13   38 1  
    39   14   39 1  
    40   14   40 1  
# Name:          frag4-414-53/48856
# Creation time: Sat Jun  5 12:51:59 2010


@<TRIPOS>MOLECULE
frag4-414-53/48856
   40    40     1     1     1
SMALL
USER_CHARGES


@<TRIPOS>ATOM
      1 C7         -0.4044    3.0624    1.0508 C.3        1 <1>        0.000
      2 C8         -0.5286    2.2731   -0.2372 C.3        1 <1>        0.000
      3 C9          0.6855    2.1163   -1.1103 C.3        1 <1>        0.000
      4 C10         0.5500    1.8582   -2.5848 C.3        1 <1>        0.000
      5 C11         1.8586    1.5891   -3.2483 C.3        1 <1>        0.000
      6 C12         2.8739    2.4699   -3.8940 C.3        1 <1>        0.000
      7 C13         3.6042    3.4274   -2.9854 C.3        1 <1>        0.000
      8 C14         4.8697    2.9721   -2.2777 C.3        1 <1>        0.000
      9 C15         4.7801    1.8349   -1.2790 C.3        1 <1>        0.000
     10 O3          3.7280    1.9816   -0.3624 O.3        1 <1>        0.000
     11 C16         3.7027    1.2644    0.7298 C.3        1 <1>        0.000
     12 C17         2.7625    1.3496    1.8624 C.3        1 <1>        0.000
     13 C18         2.0373    2.6752    1.9748 C.3        1 <1>        0.000
     14 C19         0.5290    2.6642    2.1828 C.3        1 <1>        0.000
     15 H           0.0043    4.0163    0.7176 H.spc      1 <1>        0.000
     16 H          -1.3930    2.9616    1.4987 H.spc      1 <1>        0.000
     17 H          -0.7845    1.2607    0.0754 H.spc      1 <1>        0.000
     18 H          -1.2421    2.8315   -0.8431 H.spc      1 <1>        0.000
     19 H           1.1776    3.0874   -1.0559 H.spc      1 <1>        0.000
     20 H           1.1718    1.2187   -0.7283 H.spc      1 <1>        0.000
     21 H          -0.0764    0.9753   -2.7126 H.spc      1 <1>        0.000
     22 H           0.1219    2.7505   -3.0415 H.spc      1 <1>        0.000
     23 H           2.4325    1.2744   -2.3767 H.spc      1 <1>        0.000
     24 H           1.4988    1.0634   -4.1327 H.spc      1 <1>        0.000
     25 H           2.3295    3.0863   -4.6093 H.spc      1 <1>        0.000
     26 H           3.6328    1.8055   -4.3072 H.spc      1 <1>        0.000
     27 H           2.8987    3.6376   -2.1815 H.spc      1 <1>        0.000
     28 H           3.9297    4.2356   -3.6404 H.spc      1 <1>        0.000
     29 H           5.1930    3.8346   -1.6949 H.spc      1 <1>        0.000
     30 H           5.5185    2.6006   -3.0709 H.spc      1 <1>        0.000
     31 H           4.6022    0.9175   -1.8401 H.spc      1 <1>        0.000
     32 H           5.7109    1.8208   -0.7120 H.spc      1 <1>        0.000
     33 H           3.4502    0.2839    0.3262 H.spc      1 <1>        0.000
     34 H           4.6291    1.5838    1.2071 H.spc      1 <1>        0.000
     35 H           2.0042    0.5821    1.7073 H.spc      1 <1>        0.000
     36 H           3.3474    1.2265    2.7739 H.spc      1 <1>        0.000
     37 H           2.4444    3.1473    2.8689 H.spc      1 <1>        0.000
     38 H           2.1883    3.1646    1.0126 H.spc      1 <1>        0.000
     39 H           0.2904    1.6180    2.3741 H.spc      1 <1>        0.000
     40 H           0.3570    3.4171    2.9520 H.spc      1 <1>        0.000
@<TRIPOS>BOND
     1    5    6 1  
     2    6    7 1  
     3    7    8 1  
     4    1   14 1  
     5    4    5 1  
     6    3    4 1  
     7    2    3 1  
     8    1    2 1  
     9   13   14 1  
    10   12   13 1  
    11   11   12 1  
    12   10   11 1  
    13    9   10 1  
    14    8    9 1  
    15    1   15 1  
    16    1   16 1  
    17    2   17 1  
    18    2   18 1  
    19    3   19 1  
    20    3   20 1  
    21    4   21 1  
    22    4   22 1  
    23    5   23 1  
    24    5   24 1  
    25    6   25 1  
    26    6   26 1  
    27    7   27 1  
    28    7   28 1  
    29    8   29 1  
    30    8   30 1  
    31    9   31 1  
    32    9   32 1  
    33   11   33 1  
    34   11   34 1  
    35   12   35 1  
    36   12   36 1  
    37   13   37 1  
    38   13   38 1  
    39   14   39 1  
    40   14   40 1  
# Name:          frag4-414-53/48856
# Creation time: Sat Jun  5 12:51:59 2010


@<TRIPOS>MOLECULE
frag4-414-53/48856
   40    40     1     1     1
SMALL
USER_CHARGES


@<TRIPOS>ATOM
      1 C7         -0.2487    1.7047    0.9822 C.3        1 <1>        0.000
      2 C8         -0.5106    2.6310   -0.2002 C.3        1 <1>        0.000
      3 C9         -0.3906    2.0738   -1.6175 C.3        1 <1>        0.000
      4 C10         0.9670    1.8641   -2.2647 C.3        1 <1>        0.000
      5 C11         1.8667    3.0103   -2.6718 C.3        1 <1>        0.000
      6 C12         2.9617    2.9872   -3.6932 C.3        1 <1>        0.000
      7 C13         3.8892    1.8055   -3.5279 C.3        1 <1>        0.000
      8 C14         5.0492    1.8843   -2.5552 C.3        1 <1>        0.000
      9 C15         4.8610    2.5843   -1.2225 C.3        1 <1>        0.000
     10 O3          3.7356    2.2168   -0.4596 O.3        1 <1>        0.000
     11 C16         3.8406    2.0617    0.8286 C.3        1 <1>        0.000
     12 C17         2.8470    1.6766    1.8437 C.3        1 <1>        0.000
     13 C18         1.8154    2.7297    2.1493 C.3        1 <1>        0.000
     14 C19         0.3649    2.3083    2.2304 C.3        1 <1>        0.000
     15 H          -1.2289    1.3385    1.2877 H.spc      1 <1>        0.000
     16 H           0.4776    0.9747    0.6247 H.spc      1 <1>        0.000
     17 H          -1.5557    2.9244   -0.1012 H.spc      1 <1>        0.000
     18 H           0.2616    3.3973   -0.1332 H.spc      1 <1>        0.000
     19 H          -0.8047    1.0684   -1.5416 H.spc      1 <1>        0.000
     20 H          -0.8653    2.8321   -2.2401 H.spc      1 <1>        0.000
     21 H           1.5401    1.3613   -1.4857 H.spc      1 <1>        0.000
     22 H           0.7202    1.3906   -3.2150 H.spc      1 <1>        0.000
     23 H           1.1522    3.6882   -3.1387 H.spc      1 <1>        0.000
     24 H           2.4324    3.1750   -1.7547 H.spc      1 <1>        0.000
     25 H           3.5520    3.8954   -3.5714 H.spc      1 <1>        0.000
     26 H           2.4994    2.9145   -4.6776 H.spc      1 <1>        0.000
     27 H           4.3592    1.6888   -4.5044 H.spc      1 <1>        0.000
     28 H           3.2540    1.0133   -3.1316 H.spc      1 <1>        0.000
     29 H           5.8048    2.4748   -3.0733 H.spc      1 <1>        0.000
     30 H           5.2629    0.8476   -2.2952 H.spc      1 <1>        0.000
     31 H           5.7289    2.3155   -0.6204 H.spc      1 <1>        0.000
     32 H           4.7288    3.6404   -1.4575 H.spc      1 <1>        0.000
     33 H           4.4859    1.1837    0.8579 H.spc      1 <1>        0.000
     34 H           4.0191    3.0950    1.1261 H.spc      1 <1>        0.000
     35 H           2.3107    0.8133    1.4498 H.spc      1 <1>        0.000
     36 H           3.3943    1.4923    2.7681 H.spc      1 <1>        0.000
     37 H           2.0644    3.0951    3.1456 H.spc      1 <1>        0.000
     38 H           1.8647    3.4304    1.3158 H.spc      1 <1>        0.000
     39 H           0.3245    1.5267    2.9891 H.spc      1 <1>        0.000
     40 H          -0.1988    3.2201    2.4275 H.spc      1 <1>        0.000
@<TRIPOS>BOND
     1    5    6 1  
     2    6    7 1  
     3    7    8 1  
     4    1   14 1  
     5    4    5 1  
     6    3    4 1  
     7    2    3 1  
     8    1    2 1  
     9   13   14 1  
    10   12   13 1  
    11   11   12 1  
    12   10   11 1  
    13    9   10 1  
    14    8    9 1  
    15    1   15 1  
    16    1   16 1  
    17    2   17 1  
    18    2   18 1  
    19    3   19 1  
    20    3   20 1  
    21    4   21 1  
    22    4   22 1  
    23    5   23 1  
    24    5   24 1  
    25    6   25 1  
    26    6   26 1  
    27    7   27 1  
    28    7   28 1  
    29    8   29 1  
    30    8   30 1  
    31    9   31 1  
    32    9   32 1  
    33   11   33 1  
    34   11   34 1  
    35   12   35 1  
    36   12   36 1  
    37   13   37 1  
    38   13   38 1  
    39   14   39 1  
    40   14   40 1  
# Name:          frag4-414-53/48856
# Creation time: Sat Jun  5 12:51:59 2010


@<TRIPOS>MOLECULE
frag4-414-53/48856
   40    40     1     1     1
SMALL
USER_CHARGES


@<TRIPOS>ATOM
      1 C7         -0.4451    1.2914    0.8020 C.3        1 <1>        0.000
      2 C8         -0.5997    2.0930   -0.4737 C.3        1 <1>        0.000
      3 C9          0.5953    2.8545   -0.9683 C.3        1 <1>        0.000
      4 C10         0.5775    3.5563   -2.2934 C.3        1 <1>        0.000
      5 C11         1.4071    2.9029   -3.3406 C.3        1 <1>        0.000
      6 C12         2.8792    2.7194   -3.4556 C.3        1 <1>        0.000
      7 C13         3.4006    1.3925   -2.9908 C.3        1 <1>        0.000
      8 C14         4.7866    1.3600   -2.3880 C.3        1 <1>        0.000
      9 C15         5.1177    2.1535   -1.1400 C.3        1 <1>        0.000
     10 O3          4.2242    1.9409   -0.0869 O.3        1 <1>        0.000
     11 C16         3.8952    2.9046    0.7323 C.3        1 <1>        0.000
     12 C17         2.8078    2.9174    1.7280 C.3        1 <1>        0.000
     13 C18         1.9539    1.6647    1.7702 C.3        1 <1>        0.000
     14 C19         0.4483    1.7874    1.9264 C.3        1 <1>        0.000
     15 H          -1.4444    1.2875    1.2373 H.spc      1 <1>        0.000
     16 H           0.0245    0.3626    0.4781 H.spc      1 <1>        0.000
     17 H          -0.8228    1.3629   -1.2517 H.spc      1 <1>        0.000
     18 H          -1.3558    2.8470   -0.2546 H.spc      1 <1>        0.000
     19 H           0.7088    3.6624   -0.2454 H.spc      1 <1>        0.000
     20 H           1.3626    2.0895   -1.0872 H.spc      1 <1>        0.000
     21 H          -0.4532    3.5478   -2.6480 H.spc      1 <1>        0.000
     22 H           0.9872    4.5538   -2.1345 H.spc      1 <1>        0.000
     23 H           1.1020    1.8662   -3.1983 H.spc      1 <1>        0.000
     24 H           1.2419    3.5951   -4.1662 H.spc      1 <1>        0.000
     25 H           3.3377    3.4747   -2.8173 H.spc      1 <1>        0.000
     26 H           3.1201    2.7942   -4.5160 H.spc      1 <1>        0.000
     27 H           3.4540    0.7691   -3.8833 H.spc      1 <1>        0.000
     28 H           2.7269    1.0748   -2.1950 H.spc      1 <1>        0.000
     29 H           5.4185    1.8039   -3.1573 H.spc      1 <1>        0.000
     30 H           4.9159    0.3219   -2.0817 H.spc      1 <1>        0.000
     31 H           6.1031    1.8333   -0.8016 H.spc      1 <1>        0.000
     32 H           5.0674    3.2103   -1.4023 H.spc      1 <1>        0.000
     33 H           4.7720    2.9385    1.3790 H.spc      1 <1>        0.000
     34 H           3.5479    3.6650    0.0328 H.spc      1 <1>        0.000
     35 H           3.2808    3.0061    2.7060 H.spc      1 <1>        0.000
     36 H           2.1446    3.7385    1.4557 H.spc      1 <1>        0.000
     37 H           2.0929    1.2034    0.7925 H.spc      1 <1>        0.000
     38 H           2.2819    1.1376    2.6662 H.spc      1 <1>        0.000
     39 H           0.2004    1.1601    2.7827 H.spc      1 <1>        0.000
     40 H           0.2565    2.8586    1.9889 H.spc      1 <1>        0.000
@<TRIPOS>BOND
     1    5    6 1  
     2    6    7 1  
     3    7    8 1  
     4    1   14 1  
     5    4    5 1  
     6    3    4 1  
     7    2    3 1  
     8    1    2 1  
     9   13   14 1  
    10   12   13 1  
    11   11   12 1  
    12   10   11 1  
    13    9   10 1  
    14    8    9 1  
    15    1   15 1  
    16    1   16 1  
    17    2   17 1  
    18    2   18 1  
    19    3   19 1  
    20    3   20 1  
    21    4   21 1  
    22    4   22 1  
    23    5   23 1  
    24    5   24 1  
    25    6   25 1  
    26    6   26 1  
    27    7   27 1  
    28    7   28 1  
    29    8   29 1  
    30    8   30 1  
    31    9   31 1  
    32    9   32 1  
    33   11   33 1  
    34   11   34 1  
    35   12   35 1  
    36   12   36 1  
    37   13   37 1  
    38   13   38 1  
    39   14   39 1  
    40   14   40 1  
# Name:          frag4-414-53/48856
# Creation time: Sat Jun  5 12:51:59 2010


@<TRIPOS>MOLECULE
frag4-414-53/48856
   40    40     1     1     1
SMALL
USER_CHARGES


@<TRIPOS>ATOM
      1 C7         -0.6559    2.2337    1.0730 C.3        1 <1>        0.000
      2 C8         -0.5706    2.8624   -0.3013 C.3        1 <1>        0.000
      3 C9         -0.0390    1.9884   -1.4164 C.3        1 <1>        0.000
      4 C10         0.1976    2.5785   -2.7845 C.3        1 <1>        0.000
      5 C11         1.4046    1.9924   -3.4282 C.3        1 <1>        0.000
      6 C12         2.7021    2.6008   -3.8525 C.3        1 <1>        0.000
      7 C13         3.6290    2.9468   -2.7137 C.3        1 <1>        0.000
      8 C14         4.7529    1.9754   -2.4005 C.3        1 <1>        0.000
      9 C15         5.3234    1.9772   -0.9998 C.3        1 <1>        0.000
     10 O3          4.5082    2.4511    0.0429 O.3        1 <1>        0.000
     11 C16         4.0913    1.6455    0.9737 C.3        1 <1>        0.000
     12 C17         3.1953    1.9010    2.1216 C.3        1 <1>        0.000
     13 C18         1.8949    2.6048    1.7390 C.3        1 <1>        0.000
     14 C19         0.6147    1.7805    1.7683 C.3        1 <1>        0.000
     15 H          -1.0554    3.0207    1.7127 H.spc      1 <1>        0.000
     16 H          -1.2304    1.3195    0.9236 H.spc      1 <1>        0.000
     17 H          -1.5936    3.1155   -0.5798 H.spc      1 <1>        0.000
     18 H           0.1309    3.6916   -0.2092 H.spc      1 <1>        0.000
     19 H           0.9498    1.6812   -1.0759 H.spc      1 <1>        0.000
     20 H          -0.8159    1.2397   -1.5716 H.spc      1 <1>        0.000
     21 H          -0.6682    2.3603   -3.4097 H.spc      1 <1>        0.000
     22 H           0.3503    3.6523   -2.6763 H.spc      1 <1>        0.000
     23 H           1.7578    1.3620   -2.6121 H.spc      1 <1>        0.000
     24 H           0.9892    1.7498   -4.4063 H.spc      1 <1>        0.000
     25 H           2.4659    3.5321   -4.3674 H.spc      1 <1>        0.000
     26 H           3.2149    1.8633   -4.4699 H.spc      1 <1>        0.000
     27 H           3.0022    2.9657   -1.8222 H.spc      1 <1>        0.000
     28 H           4.1186    3.8753   -3.0073 H.spc      1 <1>        0.000
     29 H           5.5781    2.2692   -3.0492 H.spc      1 <1>        0.000
     30 H           4.3234    0.9828   -2.5365 H.spc      1 <1>        0.000
     31 H           5.5159    0.9305   -0.7641 H.spc      1 <1>        0.000
     32 H           6.1742    2.6577   -1.0345 H.spc      1 <1>        0.000
     33 H           3.4659    0.9748    0.3845 H.spc      1 <1>        0.000
     34 H           5.0276    1.4522    1.4972 H.spc      1 <1>        0.000
     35 H           2.9296    0.9344    2.5497 H.spc      1 <1>        0.000
     36 H           3.7285    2.5537    2.8129 H.spc      1 <1>        0.000
     37 H           1.7559    3.3893    2.4829 H.spc      1 <1>        0.000
     38 H           2.0221    2.9126    0.7011 H.spc      1 <1>        0.000
     39 H           0.8861    0.8701    1.2340 H.spc      1 <1>        0.000
     40 H           0.3395    1.7755    2.8230 H.spc      1 <1>        0.000
@<TRIPOS>BOND
     1    5    6 1  
     2    6    7 1  
     3    7    8 1  
     4    1   14 1  
     5    4    5 1  
     6    3    4 1  
     7    2    3 1  
     8    1    2 1  
     9   13   14 1  
    10   12   13 1  
    11   11   12 1  
    12   10   11 1  
    13    9   10 1  
    14    8    9 1  
    15    1   15 1  
    16    1   16 1  
    17    2   17 1  
    18    2   18 1  
    19    3   19 1  
    20    3   20 1  
    21    4   21 1  
    22    4   22 1  
    23    5   23 1  
    24    5   24 1  
    25    6   25 1  
    26    6   26 1  
    27    7   27 1  
    28    7   28 1  
    29    8   29 1  
    30    8   30 1  
    31    9   31 1  
    32    9   32 1  
    33   11   33 1  
    34   11   34 1  
    35   12   35 1  
    36   12   36 1  
    37   13   37 1  
    38   13   38 1  
    39   14   39 1  
    40   14   40 1  
# Name:          frag4-414-53/48856
# Creation time: Sat Jun  5 12:51:59 2010


@<TRIPOS>MOLECULE
frag4-414-53/48856
   40    40     1     1     1
SMALL
USER_CHARGES


@<TRIPOS>ATOM
      1 C7         -0.4409    2.7759    1.0260 C.3        1 <1>        0.000
      2 C8         -0.5716    2.0244   -0.2821 C.3        1 <1>        0.000
      3 C9          0.5478    2.2090   -1.2752 C.3        1 <1>        0.000
      4 C10         0.2912    2.6632   -2.6785 C.3        1 <1>        0.000
      5 C11         1.5653    2.8851   -3.4101 C.3        1 <1>        0.000
      6 C12         2.5871    1.9506   -3.9551 C.3        1 <1>        0.000
      7 C13         3.7508    1.6375   -3.0393 C.3        1 <1>        0.000
      8 C14         4.5763    2.7287   -2.3916 C.3        1 <1>        0.000
      9 C15         5.0043    2.5104   -0.9523 C.3        1 <1>        0.000
     10 O3          3.9755    2.5846    0.0102 O.3        1 <1>        0.000
     11 C16         4.0672    1.8138    1.0805 C.3        1 <1>        0.000
     12 C17         3.1220    1.4656    2.1607 C.3        1 <1>        0.000
     13 C18         1.6596    1.4894    1.8250 C.3        1 <1>        0.000
     14 C19         0.9140    2.8003    1.7033 C.3        1 <1>        0.000
     15 H          -0.6608    3.8157    0.7841 H.spc      1 <1>        0.000
     16 H          -1.1017    2.2595    1.7222 H.spc      1 <1>        0.000
     17 H          -0.5760    0.9654   -0.0240 H.spc      1 <1>        0.000
     18 H          -1.4705    2.4090   -0.7639 H.spc      1 <1>        0.000
     19 H           1.1412    3.0170   -0.8473 H.spc      1 <1>        0.000
     20 H           0.9505    1.2037   -1.3993 H.spc      1 <1>        0.000
     21 H          -0.2786    1.8916   -3.1963 H.spc      1 <1>        0.000
     22 H          -0.2605    3.6027   -2.6457 H.spc      1 <1>        0.000
     23 H           1.1662    3.2762   -4.3459 H.spc      1 <1>        0.000
     24 H           2.1506    3.3413   -2.6117 H.spc      1 <1>        0.000
     25 H           3.0101    2.4366   -4.8343 H.spc      1 <1>        0.000
     26 H           2.0745    1.0056   -4.1346 H.spc      1 <1>        0.000
     27 H           4.4618    1.1308   -3.6918 H.spc      1 <1>        0.000
     28 H           3.2834    1.1330   -2.1936 H.spc      1 <1>        0.000
     29 H           3.9410    3.6143   -2.3809 H.spc      1 <1>        0.000
     30 H           5.4985    2.7856   -2.9698 H.spc      1 <1>        0.000
     31 H           5.4038    1.4976   -0.8994 H.spc      1 <1>        0.000
     32 H           5.7071    3.3090   -0.7149 H.spc      1 <1>        0.000
     33 H           4.1303    0.8434    0.5882 H.spc      1 <1>        0.000
     34 H           4.7773    2.4058    1.6580 H.spc      1 <1>        0.000
     35 H           3.3473    0.4338    2.4305 H.spc      1 <1>        0.000
     36 H           3.2613    2.2231    2.9320 H.spc      1 <1>        0.000
     37 H           1.6095    1.0610    0.8240 H.spc      1 <1>        0.000
     38 H           1.1846    0.9907    2.6699 H.spc      1 <1>        0.000
     39 H           0.7242    3.1253    2.7263 H.spc      1 <1>        0.000
     40 H           1.5415    3.4373    1.0800 H.spc      1 <1>        0.000
@<TRIPOS>BOND
     1    5    6 1  
     2    6    7 1  
     3    7    8 1  
     4    1   14 1  
     5    4    5 1  
     6    3    4 1  
     7    2    3 1  
     8    1    2 1  
     9   13   14 1  
    10   12   13 1  
    11   11   12 1  
    12   10   11 1  
    13    9   10 1  
    14    8    9 1  
    15    1   15 1  
    16    1   16 1  
    17    2   17 1  
    18    2   18 1  
    19    3   19 1  
    20    3   20 1  
    21    4   21 1  
    22    4   22 1  
    23    5   23 1  
    24    5   24 1  
    25    6   25 1  
    26    6   26 1  
    27    7   27 1  
    28    7   28 1  
    29    8   29 1  
    30    8   30 1  
    31    9   31 1  
    32    9   32 1  
    33   11   33 1  
    34   11   34 1  
    35   12   35 1  
    36   12   36 1  
    37   13   37 1  
    38   13   38 1  
    39   14   39 1  
    40   14   40 1  
# Name:          frag4-414-53/48856
# Creation time: Sat Jun  5 12:51:59 2010


@<TRIPOS>MOLECULE
frag4-414-53/48856
   40    40     1     1     1
SMALL
USER_CHARGES


@<TRIPOS>ATOM
      1 C7         -0.3130    1.6079    1.1707 C.3        1 <1>        0.000
      2 C8         -0.6672    1.9295   -0.2718 C.3        1 <1>        0.000
      3 C9          0.3533    2.5171   -1.2081 C.3        1 <1>        0.000
      4 C10         0.1787    2.5402   -2.6972 C.3        1 <1>        0.000
      5 C11         1.4339    2.7746   -3.4635 C.3        1 <1>        0.000
      6 C12         2.7272    2.0519   -3.4176 C.3        1 <1>        0.000
      7 C13         3.9346    2.8942   -3.1139 C.3        1 <1>        0.000
      8 C14         5.1200    2.1685   -2.5357 C.3        1 <1>        0.000
      9 C15         5.1171    1.7799   -1.0666 C.3        1 <1>        0.000
     10 O3          4.0749    2.2495   -0.2483 O.3        1 <1>        0.000
     11 C16         3.9052    1.6699    0.9177 C.3        1 <1>        0.000
     12 C17         2.8717    1.8091    1.9543 C.3        1 <1>        0.000
     13 C18         1.8824    2.9258    1.7759 C.3        1 <1>        0.000
     14 C19         0.4297    2.6202    2.0255 C.3        1 <1>        0.000
     15 H          -1.2777    1.4949    1.6654 H.spc      1 <1>        0.000
     16 H           0.3727    0.7638    1.0972 H.spc      1 <1>        0.000
     17 H          -0.8993    0.9586   -0.7096 H.spc      1 <1>        0.000
     18 H          -1.4285    2.7053   -0.1902 H.spc      1 <1>        0.000
     19 H           0.3542    3.5742   -0.9421 H.spc      1 <1>        0.000
     20 H           1.2187    1.8690   -1.0700 H.spc      1 <1>        0.000
     21 H          -0.1946    1.5587   -2.9895 H.spc      1 <1>        0.000
     22 H          -0.4937    3.3669   -2.9264 H.spc      1 <1>        0.000
     23 H           1.1005    2.5135   -4.4679 H.spc      1 <1>        0.000
     24 H           1.7350    3.7387   -3.0538 H.spc      1 <1>        0.000
     25 H           2.8837    1.6359   -4.4129 H.spc      1 <1>        0.000
     26 H           2.6463    1.3257   -2.6088 H.spc      1 <1>        0.000
     27 H           3.6212    3.6162   -2.3599 H.spc      1 <1>        0.000
     28 H           4.2652    3.3084   -4.0664 H.spc      1 <1>        0.000
     29 H           5.9484    2.8700   -2.6343 H.spc      1 <1>        0.000
     30 H           5.1520    1.2202   -3.0722 H.spc      1 <1>        0.000
     31 H           5.0165    0.6946   -1.0600 H.spc      1 <1>        0.000
     32 H           6.0237    2.2224   -0.6539 H.spc      1 <1>        0.000
     33 H           3.6834    0.6571    0.5814 H.spc      1 <1>        0.000
     34 H           4.7522    2.0984    1.4534 H.spc      1 <1>        0.000
     35 H           2.2915    0.8868    1.9253 H.spc      1 <1>        0.000
     36 H           3.4034    2.0245    2.8811 H.spc      1 <1>        0.000
     37 H           2.1539    3.6772    2.5173 H.spc      1 <1>        0.000
     38 H           1.9451    3.2057    0.7243 H.spc      1 <1>        0.000
     39 H           0.4187    2.1828    3.0238 H.spc      1 <1>        0.000
     40 H          -0.0782    3.5628    1.8213 H.spc      1 <1>        0.000
@<TRIPOS>BOND
     1    5    6 1  
     2    6    7 1  
     3    7    8 1  
     4    1   14 1  
     5    4    5 1  
     6    3    4 1  
     7    2    3 1  
     8    1    2 1  
     9   13   14 1  
    10   12   13 1  
    11   11   12 1  
    12   10   11 1  
    13    9   10 1  
    14    8    9 1  
    15    1   15 1  
    16    1   16 1  
    17    2   17 1  
    18    2   18 1  
    19    3   19 1  
    20    3   20 1  
    21    4   21 1  
    22    4   22 1  
    23    5   23 1  
    24    5   24 1  
    25    6   25 1  
    26    6   26 1  
    27    7   27 1  
    28    7   28 1  
    29    8   29 1  
    30    8   30 1  
    31    9   31 1  
    32    9   32 1  
    33   11   33 1  
    34   11   34 1  
    35   12   35 1  
    36   12   36 1  
    37   13   37 1  
    38   13   38 1  
    39   14   39 1  
    40   14   40 1  
# Name:          frag4-414-53/48856
# Creation time: Sat Jun  5 12:51:59 2010


@<TRIPOS>MOLECULE
frag4-414-53/48856
   40    40     1     1     1
SMALL
USER_CHARGES


@<TRIPOS>ATOM
      1 C7         -0.0869    2.2895    0.7967 C.3        1 <1>        0.000
      2 C8         -0.7750    1.8736   -0.4872 C.3        1 <1>        0.000
      3 C9          0.0896    1.8865   -1.7299 C.3        1 <1>        0.000
      4 C10         0.1725    3.1578   -2.5261 C.3        1 <1>        0.000
      5 C11         1.4530    3.2892   -3.2770 C.3        1 <1>        0.000
      6 C12         2.8600    3.1754   -2.8316 C.3        1 <1>        0.000
      7 C13         3.4178    1.7956   -3.0640 C.3        1 <1>        0.000
      8 C14         4.6163    1.2865   -2.3092 C.3        1 <1>        0.000
      9 C15         5.0948    1.9609   -1.0575 C.3        1 <1>        0.000
     10 O3          4.1968    1.8053    0.0397 O.3        1 <1>        0.000
     11 C16         3.9677    2.8415    0.8160 C.3        1 <1>        0.000
     12 C17         2.9599    3.0236    1.8948 C.3        1 <1>        0.000
     13 C18         2.1164    1.8062    2.2128 C.3        1 <1>        0.000
     14 C19         0.9655    1.3470    1.3442 C.3        1 <1>        0.000
     15 H           0.4337    3.2198    0.5694 H.spc      1 <1>        0.000
     16 H          -0.8695    2.3365    1.5539 H.spc      1 <1>        0.000
     17 H          -1.0955    0.8415   -0.3451 H.spc      1 <1>        0.000
     18 H          -1.5721    2.5971   -0.6584 H.spc      1 <1>        0.000
     19 H           1.1040    1.7034   -1.3755 H.spc      1 <1>        0.000
     20 H          -0.3624    1.1565   -2.4014 H.spc      1 <1>        0.000
     21 H          -0.6401    3.1493   -3.2525 H.spc      1 <1>        0.000
     22 H           0.1087    3.9926   -1.8281 H.spc      1 <1>        0.000
     23 H           1.3872    2.4066   -3.9132 H.spc      1 <1>        0.000
     24 H           1.4193    4.3517   -3.5180 H.spc      1 <1>        0.000
     25 H           2.8957    3.3809   -1.7617 H.spc      1 <1>        0.000
     26 H           3.4567    3.8845   -3.4053 H.spc      1 <1>        0.000
     27 H           3.7591    1.8266   -4.0987 H.spc      1 <1>        0.000
     28 H           2.6121    1.1348   -2.7441 H.spc      1 <1>        0.000
     29 H           5.4414    1.4185   -3.0091 H.spc      1 <1>        0.000
     30 H           4.3115    0.2958   -1.9722 H.spc      1 <1>        0.000
     31 H           6.0435    1.5036   -0.7766 H.spc      1 <1>        0.000
     32 H           5.1800    3.0271   -1.2674 H.spc      1 <1>        0.000
     33 H           4.8858    2.8514    1.4035 H.spc      1 <1>        0.000
     34 H           3.5982    3.5571    0.0815 H.spc      1 <1>        0.000
     35 H           3.5160    3.2610    2.8017 H.spc      1 <1>        0.000
     36 H           2.2723    3.7957    1.5496 H.spc      1 <1>        0.000
     37 H           2.8286    0.9848    2.1337 H.spc      1 <1>        0.000
     38 H           1.6263    2.0824    3.1464 H.spc      1 <1>        0.000
     39 H           1.4640    0.9844    0.4452 H.spc      1 <1>        0.000
     40 H           0.3951    0.7008    2.0114 H.spc      1 <1>        0.000
@<TRIPOS>BOND
     1    5    6 1  
     2    6    7 1  
     3    7    8 1  
     4    1   14 1  
     5    4    5 1  
     6    3    4 1  
     7    2    3 1  
     8    1    2 1  
     9   13   14 1  
    10   12   13 1  
    11   11   12 1  
    12   10   11 1  
    13    9   10 1  
    14    8    9 1  
    15    1   15 1  
    16    1   16 1  
    17    2   17 1  
    18    2   18 1  
    19    3   19 1  
    20    3   20 1  
    21    4   21 1  
    22    4   22 1  
    23    5   23 1  
    24    5   24 1  
    25    6   25 1  
    26    6   26 1  
    27    7   27 1  
    28    7   28 1  
    29    8   29 1  
    30    8   30 1  
    31    9   31 1  
    32    9   32 1  
    33   11   33 1  
    34   11   34 1  
    35   12   35 1  
    36   12   36 1  
    37   13   37 1  
    38   13   38 1  
    39   14   39 1  
    40   14   40 1  
# Name:          frag4-414-53/48856
# Creation time: Sat Jun  5 12:51:59 2010


@<TRIPOS>MOLECULE
frag4-414-53/48856
   40    40     1     1     1
SMALL
USER_CHARGES


@<TRIPOS>ATOM
      1 C7          0.4588    2.9121    0.5130 C.3        1 <1>        0.000
      2 C8         -0.5182    3.0475   -0.6356 C.3        1 <1>        0.000
      3 C9         -0.6959    1.8833   -1.6219 C.3        1 <1>        0.000
      4 C10         0.2435    1.5071   -2.7436 C.3        1 <1>        0.000
      5 C11         1.1362    2.5995   -3.1739 C.3        1 <1>        0.000
      6 C12         2.3660    3.1909   -2.5834 C.3        1 <1>        0.000
      7 C13         3.6739    2.6118   -3.0066 C.3        1 <1>        0.000
      8 C14         4.4514    1.6889   -2.1178 C.3        1 <1>        0.000
      9 C15         5.2698    2.2444   -0.9733 C.3        1 <1>        0.000
     10 O3          4.5650    2.8069    0.1093 O.3        1 <1>        0.000
     11 C16         4.0778    1.9670    0.9754 C.3        1 <1>        0.000
     12 C17         3.1756    2.1680    2.1253 C.3        1 <1>        0.000
     13 C18         1.8910    1.3729    2.0611 C.3        1 <1>        0.000
     14 C19         0.9537    1.5382    0.8938 C.3        1 <1>        0.000
     15 H           1.3490    3.4518    0.1898 H.spc      1 <1>        0.000
     16 H          -0.0854    3.2672    1.3881 H.spc      1 <1>        0.000
     17 H          -1.4920    3.1554   -0.1580 H.spc      1 <1>        0.000
     18 H          -0.1217    3.8631   -1.2403 H.spc      1 <1>        0.000
     19 H          -0.6108    1.0195   -0.9626 H.spc      1 <1>        0.000
     20 H          -1.5848    2.1925   -2.1717 H.spc      1 <1>        0.000
     21 H           0.8765    0.6992   -2.3766 H.spc      1 <1>        0.000
     22 H          -0.3714    1.2363   -3.6019 H.spc      1 <1>        0.000
     23 H           1.5736    2.1308   -4.0555 H.spc      1 <1>        0.000
     24 H           0.4570    3.4420   -3.0432 H.spc      1 <1>        0.000
     25 H           2.2956    3.0090   -1.5110 H.spc      1 <1>        0.000
     26 H           2.3822    4.2295   -2.9137 H.spc      1 <1>        0.000
     27 H           4.3222    3.4824   -3.1056 H.spc      1 <1>        0.000
     28 H           3.4159    1.9892   -3.8633 H.spc      1 <1>        0.000
     29 H           5.1869    1.2315   -2.7796 H.spc      1 <1>        0.000
     30 H           3.6917    1.0748   -1.6343 H.spc      1 <1>        0.000
     31 H           5.8165    1.3960   -0.5615 H.spc      1 <1>        0.000
     32 H           5.8581    3.0579   -1.3979 H.spc      1 <1>        0.000
     33 H           3.4223    1.3887    0.3243 H.spc      1 <1>        0.000
     34 H           4.9918    1.6932    1.5025 H.spc      1 <1>        0.000
     35 H           3.7124    1.8355    3.0138 H.spc      1 <1>        0.000
     36 H           2.8982    3.2221    2.1326 H.spc      1 <1>        0.000
     37 H           2.2182    0.3350    2.0003 H.spc      1 <1>        0.000
     38 H           1.3161    1.7181    2.9204 H.spc      1 <1>        0.000
     39 H           1.5318    1.2077    0.0309 H.spc      1 <1>        0.000
     40 H           0.0547    0.9960    1.1870 H.spc      1 <1>        0.000
@<TRIPOS>BOND
     1    5    6 1  
     2    6    7 1  
     3    7    8 1  
     4    1   14 1  
     5    4    5 1  
     6    3    4 1  
     7    2    3 1  
     8    1    2 1  
     9   13   14 1  
    10   12   13 1  
    11   11   12 1  
    12   10   11 1  
    13    9   10 1  
    14    8    9 1  
    15    1   15 1  
    16    1   16 1  
    17    2   17 1  
    18    2   18 1  
    19    3   19 1  
    20    3   20 1  
    21    4   21 1  
    22    4   22 1  
    23    5   23 1  
    24    5   24 1  
    25    6   25 1  
    26    6   26 1  
    27    7   27 1  
    28    7   28 1  
    29    8   29 1  
    30    8   30 1  
    31    9   31 1  
    32    9   32 1  
    33   11   33 1  
    34   11   34 1  
    35   12   35 1  
    36   12   36 1  
    37   13   37 1  
    38   13   38 1  
    39   14   39 1  
    40   14   40 1  
# Name:          frag4-414-53/48856
# Creation time: Sat Jun  5 12:51:59 2010


@<TRIPOS>MOLECULE
frag4-414-53/48856
   40    40     1     1     1
SMALL
USER_CHARGES


@<TRIPOS>ATOM
      1 C7         -0.5714    2.2518    0.9387 C.3        1 <1>        0.000
      2 C8         -0.5636    2.7206   -0.4886 C.3        1 <1>        0.000
      3 C9         -0.2250    1.7232   -1.5753 C.3        1 <1>        0.000
      4 C10         0.0281    2.2869   -2.9515 C.3        1 <1>        0.000
      5 C11         1.3077    3.0397   -3.1003 C.3        1 <1>        0.000
      6 C12         2.6109    2.9298   -2.3916 C.3        1 <1>        0.000
      7 C13         3.6511    2.1222   -3.1100 C.3        1 <1>        0.000
      8 C14         4.9787    1.7625   -2.4677 C.3        1 <1>        0.000
      9 C15         5.3876    2.1874   -1.0661 C.3        1 <1>        0.000
     10 O3          4.3736    2.5322   -0.1542 O.3        1 <1>        0.000
     11 C16         4.2197    1.8386    0.9572 C.3        1 <1>        0.000
     12 C17         3.2309    1.9294    2.0493 C.3        1 <1>        0.000
     13 C18         1.9115    2.5581    1.6875 C.3        1 <1>        0.000
     14 C19         0.7087    1.6560    1.4943 C.3        1 <1>        0.000
     15 H          -0.7611    3.1431    1.5367 H.spc      1 <1>        0.000
     16 H          -1.3070    1.4483    0.9771 H.spc      1 <1>        0.000
     17 H          -1.5894    3.0271   -0.6931 H.spc      1 <1>        0.000
     18 H           0.2240    3.4726   -0.5369 H.spc      1 <1>        0.000
     19 H           0.7062    1.2470   -1.2683 H.spc      1 <1>        0.000
     20 H          -1.0952    1.0737   -1.6706 H.spc      1 <1>        0.000
     21 H           0.0815    1.4384   -3.6337 H.spc      1 <1>        0.000
     22 H          -0.7772    2.9927   -3.1550 H.spc      1 <1>        0.000
     23 H           1.6086    2.6929   -4.0889 H.spc      1 <1>        0.000
     24 H           0.9866    4.0169   -2.7397 H.spc      1 <1>        0.000
     25 H           2.4153    2.4246   -1.4458 H.spc      1 <1>        0.000
     26 H           3.0056    3.9413   -2.2961 H.spc      1 <1>        0.000
     27 H           3.9366    2.7598   -3.9467 H.spc      1 <1>        0.000
     28 H           3.1682    1.1561   -3.2565 H.spc      1 <1>        0.000
     29 H           5.6995    2.2846   -3.0970 H.spc      1 <1>        0.000
     30 H           4.9181    0.6776   -2.3819 H.spc      1 <1>        0.000
     31 H           5.8795    1.3162   -0.6334 H.spc      1 <1>        0.000
     32 H           5.9745    3.0960   -1.2007 H.spc      1 <1>        0.000
     33 H           3.9304    0.8778    0.5315 H.spc      1 <1>        0.000
     34 H           5.1120    2.1592    1.4948 H.spc      1 <1>        0.000
     35 H           3.0115    0.9055    2.3520 H.spc      1 <1>        0.000
     36 H           3.6753    2.5652    2.8150 H.spc      1 <1>        0.000
     37 H           1.6571    3.1942    2.5353 H.spc      1 <1>        0.000
     38 H           2.0756    3.0258    0.7167 H.spc      1 <1>        0.000
     39 H           1.0231    0.9216    0.7527 H.spc      1 <1>        0.000
     40 H           0.4490    1.3137    2.4960 H.spc      1 <1>        0.000
@<TRIPOS>BOND
     1    5    6 1  
     2    6    7 1  
     3    7    8 1  
     4    1   14 1  
     5    4    5 1  
     6    3    4 1  
     7    2    3 1  
     8    1    2 1  
     9   13   14 1  
    10   12   13 1  
    11   11   12 1  
    12   10   11 1  
    13    9   10 1  
    14    8    9 1  
    15    1   15 1  
    16    1   16 1  
    17    2   17 1  
    18    2   18 1  
    19    3   19 1  
    20    3   20 1  
    21    4   21 1  
    22    4   22 1  
    23    5   23 1  
    24    5   24 1  
    25    6   25 1  
    26    6   26 1  
    27    7   27 1  
    28    7   28 1  
    29    8   29 1  
    30    8   30 1  
    31    9   31 1  
    32    9   32 1  
    33   11   33 1  
    34   11   34 1  
    35   12   35 1  
    36   12   36 1  
    37   13   37 1  
    38   13   38 1  
    39   14   39 1  
    40   14   40 1  
# Name:          frag4-414-53/48856
# Creation time: Sat Jun  5 12:51:59 2010


@<TRIPOS>MOLECULE
frag4-414-53/48856
   40    40     1     1     1
SMALL
USER_CHARGES


@<TRIPOS>ATOM
      1 C7         -0.2213    2.1200    0.9150 C.3        1 <1>        0.000
      2 C8          0.2981    2.4828   -0.4560 C.3        1 <1>        0.000
      3 C9         -0.4305    2.1552   -1.7350 C.3        1 <1>        0.000
      4 C10         0.0755    2.8412   -2.9778 C.3        1 <1>        0.000
      5 C11         1.1407    2.1292   -3.7360 C.3        1 <1>        0.000
      6 C12         2.6307    2.2345   -3.7492 C.3        1 <1>        0.000
      7 C13         3.2778    2.2308   -2.3908 C.3        1 <1>        0.000
      8 C14         4.7796    2.3054   -2.2400 C.3        1 <1>        0.000
      9 C15         5.3646    2.4501   -0.8371 C.3        1 <1>        0.000
     10 O3          4.4823    2.5574    0.2569 O.3        1 <1>        0.000
     11 C16         4.0302    1.4794    0.8530 C.3        1 <1>        0.000
     12 C17         2.9049    1.3392    1.8171 C.3        1 <1>        0.000
     13 C18         2.1144    2.6182    1.9981 C.3        1 <1>        0.000
     14 C19         0.6017    2.5949    2.1033 C.3        1 <1>        0.000
     15 H          -1.1921    2.6070    1.0075 H.spc      1 <1>        0.000
     16 H          -0.2150    1.0310    0.9606 H.spc      1 <1>        0.000
     17 H           0.2874    3.5726   -0.4409 H.spc      1 <1>        0.000
     18 H           1.2103    1.8916   -0.5361 H.spc      1 <1>        0.000
     19 H          -0.2955    1.0861   -1.8990 H.spc      1 <1>        0.000
     20 H          -1.4581    2.4914   -1.5966 H.spc      1 <1>        0.000
     21 H          -0.7779    2.9174   -3.6516 H.spc      1 <1>        0.000
     22 H           0.5150    3.7825   -2.6477 H.spc      1 <1>        0.000
     23 H           1.0421    1.1418   -3.2850 H.spc      1 <1>        0.000
     24 H           0.9320    2.5185   -4.7325 H.spc      1 <1>        0.000
     25 H           2.8755    3.1901   -4.2129 H.spc      1 <1>        0.000
     26 H           3.0044    1.3584   -4.2792 H.spc      1 <1>        0.000
     27 H           3.0203    1.2548   -1.9794 H.spc      1 <1>        0.000
     28 H           2.9209    3.1503   -1.9269 H.spc      1 <1>        0.000
     29 H           5.0741    3.2132   -2.7666 H.spc      1 <1>        0.000
     30 H           5.1507    1.3481   -2.6061 H.spc      1 <1>        0.000
     31 H           5.9184    1.5272   -0.6647 H.spc      1 <1>        0.000
     32 H           5.9107    3.3933   -0.8540 H.spc      1 <1>        0.000
     33 H           3.6326    0.9302   -0.0004 H.spc      1 <1>        0.000
     34 H           4.8763    1.2358    1.4956 H.spc      1 <1>        0.000
     35 H           2.2253    0.5826    1.4250 H.spc      1 <1>        0.000
     36 H           3.3294    1.0726    2.7850 H.spc      1 <1>        0.000
     37 H           2.4405    2.9949    2.9676 H.spc      1 <1>        0.000
     38 H           2.3066    3.1788    1.0833 H.spc      1 <1>        0.000
     39 H           0.3892    1.8752    2.8939 H.spc      1 <1>        0.000
     40 H           0.3166    3.6381    2.2397 H.spc      1 <1>        0.000
@<TRIPOS>BOND
     1    5    6 1  
     2    6    7 1  
     3    7    8 1  
     4    1   14 1  
     5    4    5 1  
     6    3    4 1  
     7    2    3 1  
     8    1    2 1  
     9   13   14 1  
    10   12   13 1  
    11   11   12 1  
    12   10   11 1  
    13    9   10 1  
    14    8    9 1  
    15    1   15 1  
    16    1   16 1  
    17    2   17 1  
    18    2   18 1  
    19    3   19 1  
    20    3   20 1  
    21    4   21 1  
    22    4   22 1  
    23    5   23 1  
    24    5   24 1  
    25    6   25 1  
    26    6   26 1  
    27    7   27 1  
    28    7   28 1  
    29    8   29 1  
    30    8   30 1  
    31    9   31 1  
    32    9   32 1  
    33   11   33 1  
    34   11   34 1  
    35   12   35 1  
    36   12   36 1  
    37   13   37 1  
    38   13   38 1  
    39   14   39 1  
    40   14   40 1  
# Name:          frag4-414-53/48856
# Creation time: Sat Jun  5 12:51:59 2010


@<TRIPOS>MOLECULE
frag4-414-53/48856
   40    40     1     1     1
SMALL
USER_CHARGES


@<TRIPOS>ATOM
      1 C7         -0.4075    1.5681    0.7219 C.3        1 <1>        0.000
      2 C8         -0.7927    2.6828   -0.2577 C.3        1 <1>        0.000
      3 C9         -0.6453    2.4902   -1.7557 C.3        1 <1>        0.000
      4 C10         0.3519    3.4009   -2.4417 C.3        1 <1>        0.000
      5 C11         1.4360    2.7040   -3.1841 C.3        1 <1>        0.000
      6 C12         2.4582    1.7071   -2.7343 C.3        1 <1>        0.000
      7 C13         3.8752    1.9763   -3.1769 C.3        1 <1>        0.000
      8 C14         4.9936    1.7574   -2.1706 C.3        1 <1>        0.000
      9 C15         5.1835    2.7848   -1.0743 C.3        1 <1>        0.000
     10 O3          4.2077    2.9192   -0.0848 O.3        1 <1>        0.000
     11 C16         4.1346    1.9852    0.8294 C.3        1 <1>        0.000
     12 C17         3.3467    1.9284    2.0763 C.3        1 <1>        0.000
     13 C18         1.8894    2.3273    1.8904 C.3        1 <1>        0.000
     14 C19         1.0170    1.3066    1.1837 C.3        1 <1>        0.000
     15 H          -0.9094    1.8689    1.6415 H.spc      1 <1>        0.000
     16 H          -0.6531    0.6623    0.1676 H.spc      1 <1>        0.000
     17 H          -1.8658    2.8054   -0.1108 H.spc      1 <1>        0.000
     18 H          -0.0994    3.4911   -0.0251 H.spc      1 <1>        0.000
     19 H          -0.2838    1.4723   -1.9013 H.spc      1 <1>        0.000
     20 H          -1.6185    2.7145   -2.1924 H.spc      1 <1>        0.000
     21 H          -0.2069    3.9824   -3.1749 H.spc      1 <1>        0.000
     22 H           0.8338    3.9855   -1.6580 H.spc      1 <1>        0.000
     23 H           0.8359    2.0718   -3.8385 H.spc      1 <1>        0.000
     24 H           2.0864    3.5513   -3.4013 H.spc      1 <1>        0.000
     25 H           2.1732    0.7524   -3.1765 H.spc      1 <1>        0.000
     26 H           2.4637    1.7414   -1.6449 H.spc      1 <1>        0.000
     27 H           3.9057    3.0395   -3.4151 H.spc      1 <1>        0.000
     28 H           4.0665    1.2645   -3.9799 H.spc      1 <1>        0.000
     29 H           5.9140    1.7868   -2.7538 H.spc      1 <1>        0.000
     30 H           4.7384    0.8316   -1.6550 H.spc      1 <1>        0.000
     31 H           6.0767    2.4597   -0.5409 H.spc      1 <1>        0.000
     32 H           5.1887    3.7445   -1.5911 H.spc      1 <1>        0.000
     33 H           3.6478    1.1947    0.2582 H.spc      1 <1>        0.000
     34 H           5.1424    2.0399    1.2411 H.spc      1 <1>        0.000
     35 H           3.3623    0.8967    2.4277 H.spc      1 <1>        0.000
     36 H           3.7927    2.6325    2.7787 H.spc      1 <1>        0.000
     37 H           1.4724    2.4529    2.8896 H.spc      1 <1>        0.000
     38 H           1.8897    3.2206    1.2657 H.spc      1 <1>        0.000
     39 H           1.5466    1.1520    0.2436 H.spc      1 <1>        0.000
     40 H           0.8821    0.5405    1.9472 H.spc      1 <1>        0.000
@<TRIPOS>BOND
     1    5    6 1  
     2    6    7 1  
     3    7    8 1  
     4    1   14 1  
     5    4    5 1  
     6    3    4 1  
     7    2    3 1  
     8    1    2 1  
     9   13   14 1  
    10   12   13 1  
    11   11   12 1  
    12   10   11 1  
    13    9   10 1  
    14    8    9 1  
    15    1   15 1  
    16    1   16 1  
    17    2   17 1  
    18    2   18 1  
    19    3   19 1  
    20    3   20 1  
    21    4   21 1  
    22    4   22 1  
    23    5   23 1  
    24    5   24 1  
    25    6   25 1  
    26    6   26 1  
    27    7   27 1  
    28    7   28 1  
    29    8   29 1  
    30    8   30 1  
    31    9   31 1  
    32    9   32 1  
    33   11   33 1  
    34   11   34 1  
    35   12   35 1  
    36   12   36 1  
    37   13   37 1  
    38   13   38 1  
    39   14   39 1  
    40   14   40 1  
# Name:          frag4-414-53/48856
# Creation time: Sat Jun  5 12:51:59 2010


@<TRIPOS>MOLECULE
frag4-414-53/48856
   40    40     1     1     1
SMALL
USER_CHARGES


@<TRIPOS>ATOM
      1 C7         -0.4782    2.8120    1.0951 C.3        1 <1>        0.000
      2 C8         -0.3341    3.1505   -0.3820 C.3        1 <1>        0.000
      3 C9         -0.5210    2.0632   -1.4212 C.3        1 <1>        0.000
      4 C10         0.0261    2.2987   -2.8033 C.3        1 <1>        0.000
      5 C11         1.4979    2.5565   -2.8578 C.3        1 <1>        0.000
      6 C12         2.6696    1.6364   -2.7912 C.3        1 <1>        0.000
      7 C13         3.9769    2.1631   -3.3126 C.3        1 <1>        0.000
      8 C14         4.9176    2.9692   -2.4333 C.3        1 <1>        0.000
      9 C15         5.2927    2.5132   -1.0272 C.3        1 <1>        0.000
     10 O3          4.2667    2.5182   -0.0616 O.3        1 <1>        0.000
     11 C16         4.2752    1.7568    0.9965 C.3        1 <1>        0.000
     12 C17         3.1320    1.4842    1.9099 C.3        1 <1>        0.000
     13 C18         1.8632    1.8320    1.1895 C.3        1 <1>        0.000
     14 C19         0.4639    1.7844    1.7207 C.3        1 <1>        0.000
     15 H          -0.2607    3.7438    1.6172 H.spc      1 <1>        0.000
     16 H          -1.4709    2.3708    1.1845 H.spc      1 <1>        0.000
     17 H          -1.1349    3.8627   -0.5810 H.spc      1 <1>        0.000
     18 H           0.7043    3.4627   -0.4933 H.spc      1 <1>        0.000
     19 H           0.0267    1.2022   -1.0381 H.spc      1 <1>        0.000
     20 H          -1.5994    1.9717   -1.5507 H.spc      1 <1>        0.000
     21 H          -0.1580    1.3899   -3.3763 H.spc      1 <1>        0.000
     22 H          -0.4665    3.1901   -3.1916 H.spc      1 <1>        0.000
     23 H           1.5865    2.8900   -3.8917 H.spc      1 <1>        0.000
     24 H           1.6259    3.0835   -1.9123 H.spc      1 <1>        0.000
     25 H           2.4172    0.7849   -3.4231 H.spc      1 <1>        0.000
     26 H           2.8302    1.4333   -1.7324 H.spc      1 <1>        0.000
     27 H           3.6813    2.8673   -4.0903 H.spc      1 <1>        0.000
     28 H           4.5458    1.2626   -3.5440 H.spc      1 <1>        0.000
     29 H           4.3786    3.9018   -2.2665 H.spc      1 <1>        0.000
     30 H           5.8635    2.9409   -2.9742 H.spc      1 <1>        0.000
     31 H           5.6069    1.4740   -1.1240 H.spc      1 <1>        0.000
     32 H           6.0403    3.2226   -0.6725 H.spc      1 <1>        0.000
     33 H           4.4417    0.7737    0.5563 H.spc      1 <1>        0.000
     34 H           4.9530    2.3029    1.6526 H.spc      1 <1>        0.000
     35 H           3.1239    0.4326    2.1965 H.spc      1 <1>        0.000
     36 H           3.2249    2.0834    2.8157 H.spc      1 <1>        0.000
     37 H           1.9944    2.9031    1.0361 H.spc      1 <1>        0.000
     38 H           1.8285    1.0483    0.4328 H.spc      1 <1>        0.000
     39 H           0.0644    0.7975    1.4872 H.spc      1 <1>        0.000
     40 H           0.5169    2.0036    2.7871 H.spc      1 <1>        0.000
@<TRIPOS>BOND
     1    5    6 1  
     2    6    7 1  
     3    7    8 1  
     4    1   14 1  
     5    4    5 1  
     6    3    4 1  
     7    2    3 1  
     8    1    2 1  
     9   13   14 1  
    10   12   13 1  
    11   11   12 1  
    12   10   11 1  
    13    9   10 1  
    14    8    9 1  
    15    1   15 1  
    16    1   16 1  
    17    2   17 1  
    18    2   18 1  
    19    3   19 1  
    20    3   20 1  
    21    4   21 1  
    22    4   22 1  
    23    5   23 1  
    24    5   24 1  
    25    6   25 1  
    26    6   26 1  
    27    7   27 1  
    28    7   28 1  
    29    8   29 1  
    30    8   30 1  
    31    9   31 1  
    32    9   32 1  
    33   11   33 1  
    34   11   34 1  
    35   12   35 1  
    36   12   36 1  
    37   13   37 1  
    38   13   38 1  
    39   14   39 1  
    40   14   40 1  
# Name:          frag4-414-53/48856
# Creation time: Sat Jun  5 12:51:59 2010


@<TRIPOS>MOLECULE
frag4-414-53/48856
   40    40     1     1     1
SMALL
USER_CHARGES


@<TRIPOS>ATOM
      1 C7         -0.6001    1.5021    1.0359 C.3        1 <1>        0.000
      2 C8         -0.9088    2.0633   -0.3357 C.3        1 <1>        0.000
      3 C9          0.1060    1.9776   -1.4402 C.3        1 <1>        0.000
      4 C10         0.2155    3.1133   -2.4063 C.3        1 <1>        0.000
      5 C11         1.4371    3.1034   -3.2732 C.3        1 <1>        0.000
      6 C12         2.8778    3.1666   -2.9503 C.3        1 <1>        0.000
      7 C13         3.4351    1.7755   -2.7794 C.3        1 <1>        0.000
      8 C14         4.8850    1.5296   -2.4798 C.3        1 <1>        0.000
      9 C15         5.3369    1.5156   -1.0341 C.3        1 <1>        0.000
     10 O3          4.7708    2.4691   -0.1605 O.3        1 <1>        0.000
     11 C16         3.9696    2.0642    0.7840 C.3        1 <1>        0.000
     12 C17         3.1294    2.8384    1.7199 C.3        1 <1>        0.000
     13 C18         1.6126    2.8382    1.4848 C.3        1 <1>        0.000
     14 C19         0.7818    1.5815    1.6565 C.3        1 <1>        0.000
     15 H          -1.2110    2.1120    1.7014 H.spc      1 <1>        0.000
     16 H          -0.7599    0.4310    0.9121 H.spc      1 <1>        0.000
     17 H          -1.7441    1.4598   -0.6910 H.spc      1 <1>        0.000
     18 H          -1.0321    3.1330   -0.1667 H.spc      1 <1>        0.000
     19 H           1.0713    1.9420   -0.9351 H.spc      1 <1>        0.000
     20 H          -0.2028    1.1230   -2.0422 H.spc      1 <1>        0.000
     21 H          -0.6417    3.0368   -3.0753 H.spc      1 <1>        0.000
     22 H           0.2636    4.0250   -1.8109 H.spc      1 <1>        0.000
     23 H           1.3814    2.0830   -3.6524 H.spc      1 <1>        0.000
     24 H           1.3190    4.0700   -3.7630 H.spc      1 <1>        0.000
     25 H           3.0111    3.7209   -2.0213 H.spc      1 <1>        0.000
     26 H           3.4044    3.6642   -3.7647 H.spc      1 <1>        0.000
     27 H           3.2962    1.3220   -3.7608 H.spc      1 <1>        0.000
     28 H           2.9237    1.4023   -1.8921 H.spc      1 <1>        0.000
     29 H           5.4141    2.3674   -2.9339 H.spc      1 <1>        0.000
     30 H           5.0837    0.5233   -2.8484 H.spc      1 <1>        0.000
     31 H           5.0329    0.5447   -0.6428 H.spc      1 <1>        0.000
     32 H           6.4032    1.7402   -1.0596 H.spc      1 <1>        0.000
     33 H           3.1970    1.5797    0.1869 H.spc      1 <1>        0.000
     34 H           4.6921    1.6386    1.4804 H.spc      1 <1>        0.000
     35 H           3.2734    2.3724    2.6947 H.spc      1 <1>        0.000
     36 H           3.4424    3.8759    1.6028 H.spc      1 <1>        0.000
     37 H           1.2308    3.5087    2.2547 H.spc      1 <1>        0.000
     38 H           1.5145    3.0710    0.4245 H.spc      1 <1>        0.000
     39 H           1.3543    0.8029    1.1524 H.spc      1 <1>        0.000
     40 H           0.6050    1.5138    2.7299 H.spc      1 <1>        0.000
@<TRIPOS>BOND
     1    5    6 1  
     2    6    7 1  
     3    7    8 1  
     4    1   14 1  
     5    4    5 1  
     6    3    4 1  
     7    2    3 1  
     8    1    2 1  
     9   13   14 1  
    10   12   13 1  
    11   11   12 1  
    12   10   11 1  
    13    9   10 1  
    14    8    9 1  
    15    1   15 1  
    16    1   16 1  
    17    2   17 1  
    18    2   18 1  
    19    3   19 1  
    20    3   20 1  
    21    4   21 1  
    22    4   22 1  
    23    5   23 1  
    24    5   24 1  
    25    6   25 1  
    26    6   26 1  
    27    7   27 1  
    28    7   28 1  
    29    8   29 1  
    30    8   30 1  
    31    9   31 1  
    32    9   32 1  
    33   11   33 1  
    34   11   34 1  
    35   12   35 1  
    36   12   36 1  
    37   13   37 1  
    38   13   38 1  
    39   14   39 1  
    40   14   40 1  
# Name:          frag4-414-53/48856
# Creation time: Sat Jun  5 12:51:59 2010


@<TRIPOS>MOLECULE
frag4-414-53/48856
   40    40     1     1     1
SMALL
USER_CHARGES


@<TRIPOS>ATOM
      1 C7         -0.4685    1.7406    0.9653 C.3        1 <1>        0.000
      2 C8         -0.8878    2.2604   -0.3902 C.3        1 <1>        0.000
      3 C9          0.0755    2.0165   -1.5260 C.3        1 <1>        0.000
      4 C10         0.8208    3.1830   -2.1211 C.3        1 <1>        0.000
      5 C11         1.3338    2.8647   -3.4798 C.3        1 <1>        0.000
      6 C12         2.6681    2.4691   -3.9973 C.3        1 <1>        0.000
      7 C13         3.5549    1.8182   -2.9689 C.3        1 <1>        0.000
      8 C14         4.7244    2.4803   -2.2659 C.3        1 <1>        0.000
      9 C15         5.1560    1.7419   -1.0143 C.3        1 <1>        0.000
     10 O3          4.2045    1.6299    0.0252 O.3        1 <1>        0.000
     11 C16         4.0787    2.5355    0.9570 C.3        1 <1>        0.000
     12 C17         3.1699    2.5757    2.1319 C.3        1 <1>        0.000
     13 C18         1.9265    1.7269    1.9439 C.3        1 <1>        0.000
     14 C19         0.6916    2.4957    1.5618 C.3        1 <1>        0.000
     15 H          -1.3176    1.8560    1.6390 H.spc      1 <1>        0.000
     16 H          -0.1559    0.7042    0.8380 H.spc      1 <1>        0.000
     17 H          -1.8038    1.7294   -0.6493 H.spc      1 <1>        0.000
     18 H          -0.9700    3.3425   -0.2886 H.spc      1 <1>        0.000
     19 H           0.8501    1.3771   -1.1026 H.spc      1 <1>        0.000
     20 H          -0.5425    1.6359   -2.3392 H.spc      1 <1>        0.000
     21 H           0.1357    4.0272   -2.1993 H.spc      1 <1>        0.000
     22 H           1.6689    3.4160   -1.4773 H.spc      1 <1>        0.000
     23 H           0.8000    1.9297   -3.6498 H.spc      1 <1>        0.000
     24 H           1.2642    3.8568   -3.9260 H.spc      1 <1>        0.000
     25 H           3.1696    3.3787   -4.3278 H.spc      1 <1>        0.000
     26 H           2.5042    1.7403   -4.7910 H.spc      1 <1>        0.000
     27 H           4.0498    1.0424   -3.5531 H.spc      1 <1>        0.000
     28 H           2.8614    1.6471   -2.1456 H.spc      1 <1>        0.000
     29 H           4.4112    3.4816   -1.9701 H.spc      1 <1>        0.000
     30 H           5.5678    2.4858   -2.9564 H.spc      1 <1>        0.000
     31 H           5.3726    0.7215   -1.3306 H.spc      1 <1>        0.000
     32 H           5.9834    2.3177   -0.5996 H.spc      1 <1>        0.000
     33 H           5.0413    2.4346    1.4583 H.spc      1 <1>        0.000
     34 H           3.6777    3.3631    0.3718 H.spc      1 <1>        0.000
     35 H           3.7158    2.1822    2.9894 H.spc      1 <1>        0.000
     36 H           2.8507    3.6085    2.2714 H.spc      1 <1>        0.000
     37 H           2.1350    1.0358    1.1272 H.spc      1 <1>        0.000
     38 H           1.7197    1.2510    2.9025 H.spc      1 <1>        0.000
     39 H           0.3125    2.9095    2.4962 H.spc      1 <1>        0.000
     40 H           1.0146    3.1852    0.7818 H.spc      1 <1>        0.000
@<TRIPOS>BOND
     1    5    6 1  
     2    6    7 1  
     3    7    8 1  
     4    1   14 1  
     5    4    5 1  
     6    3    4 1  
     7    2    3 1  
     8    1    2 1  
     9   13   14 1  
    10   12   13 1  
    11   11   12 1  
    12   10   11 1  
    13    9   10 1  
    14    8    9 1  
    15    1   15 1  
    16    1   16 1  
    17    2   17 1  
    18    2   18 1  
    19    3   19 1  
    20    3   20 1  
    21    4   21 1  
    22    4   22 1  
    23    5   23 1  
    24    5   24 1  
    25    6   25 1  
    26    6   26 1  
    27    7   27 1  
    28    7   28 1  
    29    8   29 1  
    30    8   30 1  
    31    9   31 1  
    32    9   32 1  
    33   11   33 1  
    34   11   34 1  
    35   12   35 1  
    36   12   36 1  
    37   13   37 1  
    38   13   38 1  
    39   14   39 1  
    40   14   40 1  
# Name:          frag4-414-53/48856
# Creation time: Sat Jun  5 12:51:59 2010


@<TRIPOS>MOLECULE
frag4-414-53/48856
   40    40     1     1     1
SMALL
USER_CHARGES


@<TRIPOS>ATOM
      1 C7         -0.5915    1.5730    0.8104 C.3        1 <1>        0.000
      2 C8         -0.7931    2.6524   -0.2455 C.3        1 <1>        0.000
      3 C9          0.3788    3.2680   -0.9946 C.3        1 <1>        0.000
      4 C10         0.5044    2.9517   -2.4653 C.3        1 <1>        0.000
      5 C11         1.9082    2.9449   -2.9461 C.3        1 <1>        0.000
      6 C12         2.7151    1.8610   -3.5718 C.3        1 <1>        0.000
      7 C13         3.5618    1.0374   -2.6367 C.3        1 <1>        0.000
      8 C14         4.8769    1.5780   -2.1169 C.3        1 <1>        0.000
      9 C15         4.9167    2.9017   -1.3842 C.3        1 <1>        0.000
     10 O3          3.9586    3.1144   -0.3792 O.3        1 <1>        0.000
     11 C16         4.0520    2.3813    0.6918 C.3        1 <1>        0.000
     12 C17         3.0996    2.2067    1.7992 C.3        1 <1>        0.000
     13 C18         1.9326    1.3233    1.4398 C.3        1 <1>        0.000
     14 C19         0.5285    1.7445    1.8208 C.3        1 <1>        0.000
     15 H          -1.5086    1.5772    1.3995 H.spc      1 <1>        0.000
     16 H          -0.3343    0.6733    0.2513 H.spc      1 <1>        0.000
     17 H          -1.3618    2.1470   -1.0261 H.spc      1 <1>        0.000
     18 H          -1.2085    3.4889    0.3164 H.spc      1 <1>        0.000
     19 H           0.2320    4.3465   -0.9365 H.spc      1 <1>        0.000
     20 H           1.2748    2.8590   -0.5276 H.spc      1 <1>        0.000
     21 H           0.0970    1.9532   -2.6236 H.spc      1 <1>        0.000
     22 H          -0.0287    3.7269   -3.0158 H.spc      1 <1>        0.000
     23 H           1.8228    3.6291   -3.7903 H.spc      1 <1>        0.000
     24 H           2.4342    3.0491   -1.9971 H.spc      1 <1>        0.000
     25 H           3.4071    2.3528   -4.2555 H.spc      1 <1>        0.000
     26 H           2.0012    1.1717   -4.0227 H.spc      1 <1>        0.000
     27 H           3.8436    0.1651   -3.2265 H.spc      1 <1>        0.000
     28 H           2.9457    0.9245   -1.7446 H.spc      1 <1>        0.000
     29 H           5.4751    1.7451   -3.0126 H.spc      1 <1>        0.000
     30 H           5.1969    0.8468   -1.3746 H.spc      1 <1>        0.000
     31 H           5.8826    2.9295   -0.8799 H.spc      1 <1>        0.000
     32 H           4.7229    3.6622   -2.1406 H.spc      1 <1>        0.000
     33 H           4.0246    1.3850    0.2506 H.spc      1 <1>        0.000
     34 H           4.8633    2.8929    1.2096 H.spc      1 <1>        0.000
     35 H           3.6327    1.7330    2.6236 H.spc      1 <1>        0.000
     36 H           2.7048    3.1899    2.0553 H.spc      1 <1>        0.000
     37 H           1.9279    1.3032    0.3500 H.spc      1 <1>        0.000
     38 H           2.1038    0.4013    1.9955 H.spc      1 <1>        0.000
     39 H           0.2571    1.0956    2.6535 H.spc      1 <1>        0.000
     40 H           0.5936    2.8197    1.9878 H.spc      1 <1>        0.000
@<TRIPOS>BOND
     1    5    6 1  
     2    6    7 1  
     3    7    8 1  
     4    1   14 1  
     5    4    5 1  
     6    3    4 1  
     7    2    3 1  
     8    1    2 1  
     9   13   14 1  
    10   12   13 1  
    11   11   12 1  
    12   10   11 1  
    13    9   10 1  
    14    8    9 1  
    15    1   15 1  
    16    1   16 1  
    17    2   17 1  
    18    2   18 1  
    19    3   19 1  
    20    3   20 1  
    21    4   21 1  
    22    4   22 1  
    23    5   23 1  
    24    5   24 1  
    25    6   25 1  
    26    6   26 1  
    27    7   27 1  
    28    7   28 1  
    29    8   29 1  
    30    8   30 1  
    31    9   31 1  
    32    9   32 1  
    33   11   33 1  
    34   11   34 1  
    35   12   35 1  
    36   12   36 1  
    37   13   37 1  
    38   13   38 1  
    39   14   39 1  
    40   14   40 1  
# Name:          frag4-414-53/48856
# Creation time: Sat Jun  5 12:51:59 2010


@<TRIPOS>MOLECULE
frag4-414-53/48856
   40    40     1     1     1
SMALL
USER_CHARGES


@<TRIPOS>ATOM
      1 C7         -0.4354    2.5638    1.2494 C.3        1 <1>        0.000
      2 C8         -0.8545    2.8046   -0.2016 C.3        1 <1>        0.000
      3 C9          0.2467    3.1171   -1.2417 C.3        1 <1>        0.000
      4 C10         0.0707    2.3997   -2.5567 C.3        1 <1>        0.000
      5 C11         1.3131    2.1373   -3.3050 C.3        1 <1>        0.000
      6 C12         2.7125    2.5936   -3.1176 C.3        1 <1>        0.000
      7 C13         3.6593    1.5096   -2.6605 C.3        1 <1>        0.000
      8 C14         5.0907    1.9210   -2.3480 C.3        1 <1>        0.000
      9 C15         5.3705    2.8053   -1.1405 C.3        1 <1>        0.000
     10 O3          4.9522    2.2888    0.1147 O.3        1 <1>        0.000
     11 C16         3.7638    2.6453    0.5299 C.3        1 <1>        0.000
     12 C17         2.8823    2.2140    1.6594 C.3        1 <1>        0.000
     13 C18         1.8636    1.1876    1.2102 C.3        1 <1>        0.000
     14 C19         0.4130    1.3506    1.6295 C.3        1 <1>        0.000
     15 H           0.1999    3.4170    1.4872 H.spc      1 <1>        0.000
     16 H          -1.3771    2.4042    1.7746 H.spc      1 <1>        0.000
     17 H          -1.3006    1.8660   -0.5303 H.spc      1 <1>        0.000
     18 H          -1.4831    3.6946   -0.1741 H.spc      1 <1>        0.000
     19 H           0.2018    4.1864   -1.4484 H.spc      1 <1>        0.000
     20 H           1.1949    2.7865   -0.8176 H.spc      1 <1>        0.000
     21 H          -0.3643    1.4275   -2.3250 H.spc      1 <1>        0.000
     22 H          -0.5403    3.0475   -3.1853 H.spc      1 <1>        0.000
     23 H           1.4395    1.0800   -3.0721 H.spc      1 <1>        0.000
     24 H           1.0775    2.6653   -4.2290 H.spc      1 <1>        0.000
     25 H           2.7006    3.3592   -2.3418 H.spc      1 <1>        0.000
     26 H           3.0690    2.9456   -4.0856 H.spc      1 <1>        0.000
     27 H           3.7283    0.8078   -3.4916 H.spc      1 <1>        0.000
     28 H           3.2484    1.1343   -1.7233 H.spc      1 <1>        0.000
     29 H           5.4002    2.5182   -3.2057 H.spc      1 <1>        0.000
     30 H           5.6061    0.9854   -2.1309 H.spc      1 <1>        0.000
     31 H           6.4536    2.9138   -1.0830 H.spc      1 <1>        0.000
     32 H           4.8088    3.7262   -1.2969 H.spc      1 <1>        0.000
     33 H           4.0053    3.6482    0.8820 H.spc      1 <1>        0.000
     34 H           3.1743    2.2536   -0.2991 H.spc      1 <1>        0.000
     35 H           3.5067    1.7647    2.4316 H.spc      1 <1>        0.000
     36 H           2.3490    3.0880    2.0334 H.spc      1 <1>        0.000
     37 H           1.8502    1.2649    0.1230 H.spc      1 <1>        0.000
     38 H           2.1848    0.2545    1.6731 H.spc      1 <1>        0.000
     39 H          -0.0864    0.5292    1.1158 H.spc      1 <1>        0.000
     40 H           0.4764    1.4238    2.7152 H.spc      1 <1>        0.000
@<TRIPOS>BOND
     1    5    6 1  
     2    6    7 1  
     3    7    8 1  
     4    1   14 1  
     5    4    5 1  
     6    3    4 1  
     7    2    3 1  
     8    1    2 1  
     9   13   14 1  
    10   12   13 1  
    11   11   12 1  
    12   10   11 1  
    13    9   10 1  
    14    8    9 1  
    15    1   15 1  
    16    1   16 1  
    17    2   17 1  
    18    2   18 1  
    19    3   19 1  
    20    3   20 1  
    21    4   21 1  
    22    4   22 1  
    23    5   23 1  
    24    5   24 1  
    25    6   25 1  
    26    6   26 1  
    27    7   27 1  
    28    7   28 1  
    29    8   29 1  
    30    8   30 1  
    31    9   31 1  
    32    9   32 1  
    33   11   33 1  
    34   11   34 1  
    35   12   35 1  
    36   12   36 1  
    37   13   37 1  
    38   13   38 1  
    39   14   39 1  
    40   14   40 1  
# Name:          frag4-414-53/48856
# Creation time: Sat Jun  5 12:51:59 2010


@<TRIPOS>MOLECULE
frag4-414-53/48856
   40    40     1     1     1
SMALL
USER_CHARGES


@<TRIPOS>ATOM
      1 C7         -0.4392    1.7516    0.7871 C.3        1 <1>        0.000
      2 C8         -0.9127    2.7312   -0.2710 C.3        1 <1>        0.000
      3 C9         -0.0466    3.1242   -1.4547 C.3        1 <1>        0.000
      4 C10         0.4152    2.0671   -2.4321 C.3        1 <1>        0.000
      5 C11         1.2912    2.5533   -3.5436 C.3        1 <1>        0.000
      6 C12         2.6776    2.2248   -3.9787 C.3        1 <1>        0.000
      7 C13         3.7579    2.6318   -3.0228 C.3        1 <1>        0.000
      8 C14         4.3164    1.5983   -2.0801 C.3        1 <1>        0.000
      9 C15         5.2224    2.0841   -0.9442 C.3        1 <1>        0.000
     10 O3          4.5922    2.7881    0.1116 O.3        1 <1>        0.000
     11 C16         4.3147    2.0881    1.1789 C.3        1 <1>        0.000
     12 C17         3.2105    2.1845    2.1494 C.3        1 <1>        0.000
     13 C18         1.9879    1.5087    1.5972 C.3        1 <1>        0.000
     14 C19         0.6612    2.2026    1.7247 C.3        1 <1>        0.000
     15 H          -1.3057    1.5681    1.4224 H.spc      1 <1>        0.000
     16 H          -0.0246    0.9069    0.2369 H.spc      1 <1>        0.000
     17 H          -1.7574    2.2194   -0.7322 H.spc      1 <1>        0.000
     18 H          -1.0298    3.6644    0.2800 H.spc      1 <1>        0.000
     19 H          -0.6765    3.7883   -2.0466 H.spc      1 <1>        0.000
     20 H           0.8721    3.5043   -1.0079 H.spc      1 <1>        0.000
     21 H           1.0084    1.3540   -1.8596 H.spc      1 <1>        0.000
     22 H          -0.4832    1.6640   -2.8996 H.spc      1 <1>        0.000
     23 H           0.7449    2.1302   -4.3866 H.spc      1 <1>        0.000
     24 H           1.4612    3.5709   -3.1919 H.spc      1 <1>        0.000
     25 H           2.8543    2.7736   -4.9037 H.spc      1 <1>        0.000
     26 H           2.7297    1.1396   -4.0672 H.spc      1 <1>        0.000
     27 H           3.2992    3.3832   -2.3800 H.spc      1 <1>        0.000
     28 H           4.5981    2.9243   -3.6526 H.spc      1 <1>        0.000
     29 H           4.9419    0.9511   -2.6949 H.spc      1 <1>        0.000
     30 H           3.4505    1.1519   -1.5912 H.spc      1 <1>        0.000
     31 H           5.6502    1.1876   -0.4955 H.spc      1 <1>        0.000
     32 H           5.9240    2.7847   -1.3970 H.spc      1 <1>        0.000
     33 H           4.0681    1.1336    0.7139 H.spc      1 <1>        0.000
     34 H           5.1467    2.3871    1.8165 H.spc      1 <1>        0.000
     35 H           3.5036    1.6962    3.0788 H.spc      1 <1>        0.000
     36 H           2.9876    3.2345    2.3388 H.spc      1 <1>        0.000
     37 H           2.1661    1.4324    0.5246 H.spc      1 <1>        0.000
     38 H           1.8849    0.5912    2.1766 H.spc      1 <1>        0.000
     39 H           0.3048    1.9835    2.7312 H.spc      1 <1>        0.000
     40 H           0.8473    3.2496    1.4855 H.spc      1 <1>        0.000
@<TRIPOS>BOND
     1    5    6 1  
     2    6    7 1  
     3    7    8 1  
     4    1   14 1  
     5    4    5 1  
     6    3    4 1  
     7    2    3 1  
     8    1    2 1  
     9   13   14 1  
    10   12   13 1  
    11   11   12 1  
    12   10   11 1  
    13    9   10 1  
    14    8    9 1  
    15    1   15 1  
    16    1   16 1  
    17    2   17 1  
    18    2   18 1  
    19    3   19 1  
    20    3   20 1  
    21    4   21 1  
    22    4   22 1  
    23    5   23 1  
    24    5   24 1  
    25    6   25 1  
    26    6   26 1  
    27    7   27 1  
    28    7   28 1  
    29    8   29 1  
    30    8   30 1  
    31    9   31 1  
    32    9   32 1  
    33   11   33 1  
    34   11   34 1  
    35   12   35 1  
    36   12   36 1  
    37   13   37 1  
    38   13   38 1  
    39   14   39 1  
    40   14   40 1  
# Name:          frag4-414-53/48856
# Creation time: Sat Jun  5 12:51:59 2010


@<TRIPOS>MOLECULE
frag4-414-53/48856
   40    40     1     1     1
SMALL
USER_CHARGES


@<TRIPOS>ATOM
      1 C7          0.4236    3.2638    0.8901 C.3        1 <1>        0.000
      2 C8         -0.1258    3.0671   -0.5154 C.3        1 <1>        0.000
      3 C9          0.3695    1.8519   -1.2567 C.3        1 <1>        0.000
      4 C10         0.2307    1.7426   -2.7735 C.3        1 <1>        0.000
      5 C11         1.1580    2.6152   -3.5713 C.3        1 <1>        0.000
      6 C12         2.5910    2.4847   -4.0240 C.3        1 <1>        0.000
      7 C13         3.6783    1.9219   -3.1121 C.3        1 <1>        0.000
      8 C14         4.4899    2.8719   -2.2406 C.3        1 <1>        0.000
      9 C15         4.9687    2.3798   -0.8800 C.3        1 <1>        0.000
     10 O3          3.9868    2.4987    0.1204 O.3        1 <1>        0.000
     11 C16         4.0431    1.8151    1.2313 C.3        1 <1>        0.000
     12 C17         3.0301    1.7416    2.2895 C.3        1 <1>        0.000
     13 C18         1.7070    1.1947    1.8295 C.3        1 <1>        0.000
     14 C19         0.4975    2.0895    1.8345 C.3        1 <1>        0.000
     15 H           1.4612    3.5624    0.7406 H.spc      1 <1>        0.000
     16 H          -0.2739    3.9545    1.3640 H.spc      1 <1>        0.000
     17 H          -1.2030    2.9407   -0.4072 H.spc      1 <1>        0.000
     18 H           0.1997    3.9315   -1.0942 H.spc      1 <1>        0.000
     19 H           1.4467    1.8628   -1.0907 H.spc      1 <1>        0.000
     20 H          -0.2505    1.0402   -0.8761 H.spc      1 <1>        0.000
     21 H           0.4723    0.7122   -3.0343 H.spc      1 <1>        0.000
     22 H          -0.7827    2.0620   -3.0167 H.spc      1 <1>        0.000
     23 H           0.6691    2.5331   -4.5420 H.spc      1 <1>        0.000
     24 H           1.2841    3.4246   -2.8522 H.spc      1 <1>        0.000
     25 H           2.9029    3.5160   -4.1889 H.spc      1 <1>        0.000
     26 H           2.5382    1.7609   -4.8373 H.spc      1 <1>        0.000
     27 H           4.4066    1.4775   -3.7905 H.spc      1 <1>        0.000
     28 H           3.1457    1.2847   -2.4061 H.spc      1 <1>        0.000
     29 H           3.8190    3.7030   -2.0233 H.spc      1 <1>        0.000
     30 H           5.3991    3.0725   -2.8074 H.spc      1 <1>        0.000
     31 H           5.2197    1.3235   -0.9769 H.spc      1 <1>        0.000
     32 H           5.8210    2.9920   -0.5851 H.spc      1 <1>        0.000
     33 H           4.0292    0.7931    0.8527 H.spc      1 <1>        0.000
     34 H           4.8568    2.3210    1.7510 H.spc      1 <1>        0.000
     35 H           3.4108    1.0670    3.0564 H.spc      1 <1>        0.000
     36 H           2.8557    2.7580    2.6425 H.spc      1 <1>        0.000
     37 H           1.8607    0.9409    0.7806 H.spc      1 <1>        0.000
     38 H           1.4706    0.4038    2.5413 H.spc      1 <1>        0.000
     39 H          -0.3226    1.4407    1.5271 H.spc      1 <1>        0.000
     40 H           0.4947    2.5382    2.8278 H.spc      1 <1>        0.000
@<TRIPOS>BOND
     1    5    6 1  
     2    6    7 1  
     3    7    8 1  
     4    1   14 1  
     5    4    5 1  
     6    3    4 1  
     7    2    3 1  
     8    1    2 1  
     9   13   14 1  
    10   12   13 1  
    11   11   12 1  
    12   10   11 1  
    13    9   10 1  
    14    8    9 1  
    15    1   15 1  
    16    1   16 1  
    17    2   17 1  
    18    2   18 1  
    19    3   19 1  
    20    3   20 1  
    21    4   21 1  
    22    4   22 1  
    23    5   23 1  
    24    5   24 1  
    25    6   25 1  
    26    6   26 1  
    27    7   27 1  
    28    7   28 1  
    29    8   29 1  
    30    8   30 1  
    31    9   31 1  
    32    9   32 1  
    33   11   33 1  
    34   11   34 1  
    35   12   35 1  
    36   12   36 1  
    37   13   37 1  
    38   13   38 1  
    39   14   39 1  
    40   14   40 1  
# Name:          frag4-414-53/48856
# Creation time: Sat Jun  5 12:51:59 2010


@<TRIPOS>MOLECULE
frag4-414-53/48856
   40    40     1     1     1
SMALL
USER_CHARGES


@<TRIPOS>ATOM
      1 C7         -0.5705    2.4175    0.8533 C.3        1 <1>        0.000
      2 C8         -0.2878    3.4529   -0.1968 C.3        1 <1>        0.000
      3 C9          0.6732    3.1210   -1.3015 C.3        1 <1>        0.000
      4 C10         0.2108    2.1635   -2.3745 C.3        1 <1>        0.000
      5 C11         1.2872    1.8309   -3.3394 C.3        1 <1>        0.000
      6 C12         2.7268    1.4795   -3.1267 C.3        1 <1>        0.000
      7 C13         3.6075    2.6984   -3.2202 C.3        1 <1>        0.000
      8 C14         4.8485    2.9711   -2.4243 C.3        1 <1>        0.000
      9 C15         5.0903    2.5228   -0.9959 C.3        1 <1>        0.000
     10 O3          3.9904    2.4007   -0.1267 O.3        1 <1>        0.000
     11 C16         4.0880    1.6563    0.9475 C.3        1 <1>        0.000
     12 C17         3.0633    1.2759    1.9529 C.3        1 <1>        0.000
     13 C18         1.7692    2.0620    1.9289 C.3        1 <1>        0.000
     14 C19         0.5516    1.4861    1.2451 C.3        1 <1>        0.000
     15 H          -0.8116    2.9780    1.7565 H.spc      1 <1>        0.000
     16 H          -1.3446    1.7777    0.4295 H.spc      1 <1>        0.000
     17 H          -1.2434    3.6180   -0.6945 H.spc      1 <1>        0.000
     18 H           0.1753    4.2804    0.3406 H.spc      1 <1>        0.000
     19 H           0.8623    4.0636   -1.8151 H.spc      1 <1>        0.000
     20 H           1.5154    2.6283   -0.8157 H.spc      1 <1>        0.000
     21 H          -0.1034    1.2397   -1.8888 H.spc      1 <1>        0.000
     22 H          -0.5996    2.6409   -2.9254 H.spc      1 <1>        0.000
     23 H           0.9154    0.8763   -3.7117 H.spc      1 <1>        0.000
     24 H           1.4018    2.7969   -3.8310 H.spc      1 <1>        0.000
     25 H           3.0293    0.7728   -3.8995 H.spc      1 <1>        0.000
     26 H           2.8354    1.0485   -2.1314 H.spc      1 <1>        0.000
     27 H           2.9392    3.4798   -2.8585 H.spc      1 <1>        0.000
     28 H           4.0108    2.6005   -4.2281 H.spc      1 <1>        0.000
     29 H           4.8232    4.0561   -2.3235 H.spc      1 <1>        0.000
     30 H           5.6023    2.4065   -2.9731 H.spc      1 <1>        0.000
     31 H           5.4951    1.5144   -1.0817 H.spc      1 <1>        0.000
     32 H           5.7113    3.3036   -0.5567 H.spc      1 <1>        0.000
     33 H           4.2775    0.6850    0.4906 H.spc      1 <1>        0.000
     34 H           4.7318    2.2877    1.5599 H.spc      1 <1>        0.000
     35 H           2.7933    0.2430    1.7330 H.spc      1 <1>        0.000
     36 H           3.5127    1.4638    2.9280 H.spc      1 <1>        0.000
     37 H           1.4805    2.1457    2.9766 H.spc      1 <1>        0.000
     38 H           2.0050    2.9597    1.3573 H.spc      1 <1>        0.000
     39 H           0.9220    1.0783    0.3045 H.spc      1 <1>        0.000
     40 H           0.1126    0.8060    1.9751 H.spc      1 <1>        0.000
@<TRIPOS>BOND
     1    5    6 1  
     2    6    7 1  
     3    7    8 1  
     4    1   14 1  
     5    4    5 1  
     6    3    4 1  
     7    2    3 1  
     8    1    2 1  
     9   13   14 1  
    10   12   13 1  
    11   11   12 1  
    12   10   11 1  
    13    9   10 1  
    14    8    9 1  
    15    1   15 1  
    16    1   16 1  
    17    2   17 1  
    18    2   18 1  
    19    3   19 1  
    20    3   20 1  
    21    4   21 1  
    22    4   22 1  
    23    5   23 1  
    24    5   24 1  
    25    6   25 1  
    26    6   26 1  
    27    7   27 1  
    28    7   28 1  
    29    8   29 1  
    30    8   30 1  
    31    9   31 1  
    32    9   32 1  
    33   11   33 1  
    34   11   34 1  
    35   12   35 1  
    36   12   36 1  
    37   13   37 1  
    38   13   38 1  
    39   14   39 1  
    40   14   40 1  
# Name:          frag4-414-53/48856
# Creation time: Sat Jun  5 12:51:59 2010


@<TRIPOS>MOLECULE
frag4-414-53/48856
   40    40     1     1     1
SMALL
USER_CHARGES


@<TRIPOS>ATOM
      1 C7         -0.0266    2.2879    0.7251 C.3        1 <1>        0.000
      2 C8         -0.1265    3.3109   -0.3791 C.3        1 <1>        0.000
      3 C9         -0.5971    2.7122   -1.7122 C.3        1 <1>        0.000
      4 C10         0.3738    2.2294   -2.7926 C.3        1 <1>        0.000
      5 C11         1.7399    1.7585   -2.3635 C.3        1 <1>        0.000
      6 C12         2.9577    1.3625   -3.1482 C.3        1 <1>        0.000
      7 C13         3.9865    2.4439   -3.4030 C.3        1 <1>        0.000
      8 C14         4.3342    3.4275   -2.3100 C.3        1 <1>        0.000
      9 C15         4.9617    2.9415   -1.0093 C.3        1 <1>        0.000
     10 O3          4.3679    1.8378   -0.3659 O.3        1 <1>        0.000
     11 C16         3.6833    1.9940    0.7562 C.3        1 <1>        0.000
     12 C17         2.8106    1.0214    1.4293 C.3        1 <1>        0.000
     13 C18         1.8088    1.5945    2.4225 C.3        1 <1>        0.000
     14 C19         0.7743    2.6164    1.9722 C.3        1 <1>        0.000
     15 H          -1.0498    2.1583    1.0777 H.spc      1 <1>        0.000
     16 H           0.4938    1.4425    0.2749 H.spc      1 <1>        0.000
     17 H          -0.8593    4.0579   -0.0739 H.spc      1 <1>        0.000
     18 H           0.8682    3.7282   -0.5357 H.spc      1 <1>        0.000
     19 H          -1.1083    1.7984   -1.4092 H.spc      1 <1>        0.000
     20 H          -1.1114    3.5447   -2.1923 H.spc      1 <1>        0.000
     21 H          -0.1037    1.3573   -3.2394 H.spc      1 <1>        0.000
     22 H           0.5548    3.0982   -3.4255 H.spc      1 <1>        0.000
     23 H           2.1109    2.6748   -1.9044 H.spc      1 <1>        0.000
     24 H           1.4729    0.7890   -1.9428 H.spc      1 <1>        0.000
     25 H           2.5952    1.0568   -4.1297 H.spc      1 <1>        0.000
     26 H           3.4634    0.6023   -2.5528 H.spc      1 <1>        0.000
     27 H           3.5492    3.0560   -4.1918 H.spc      1 <1>        0.000
     28 H           4.9136    1.9007   -3.5861 H.spc      1 <1>        0.000
     29 H           3.3740    3.8450   -2.0070 H.spc      1 <1>        0.000
     30 H           5.0964    4.0672   -2.7549 H.spc      1 <1>        0.000
     31 H           5.9677    2.6167   -1.2751 H.spc      1 <1>        0.000
     32 H           4.8641    3.7726   -0.3108 H.spc      1 <1>        0.000
     33 H           4.4910    2.0870    1.4822 H.spc      1 <1>        0.000
     34 H           2.9590    2.7508    0.4551 H.spc      1 <1>        0.000
     35 H           2.2234    0.5442    0.6447 H.spc      1 <1>        0.000
     36 H           3.4678    0.3671    2.0021 H.spc      1 <1>        0.000
     37 H           1.2178    0.7336    2.7352 H.spc      1 <1>        0.000
     38 H           2.4234    2.1339    3.1432 H.spc      1 <1>        0.000
     39 H           0.0481    2.6798    2.7826 H.spc      1 <1>        0.000
     40 H           1.3348    3.5206    1.7348 H.spc      1 <1>        0.000
@<TRIPOS>BOND
     1    5    6 1  
     2    6    7 1  
     3    7    8 1  
     4    1   14 1  
     5    4    5 1  
     6    3    4 1  
     7    2    3 1  
     8    1    2 1  
     9   13   14 1  
    10   12   13 1  
    11   11   12 1  
    12   10   11 1  
    13    9   10 1  
    14    8    9 1  
    15    1   15 1  
    16    1   16 1  
    17    2   17 1  
    18    2   18 1  
    19    3   19 1  
    20    3   20 1  
    21    4   21 1  
    22    4   22 1  
    23    5   23 1  
    24    5   24 1  
    25    6   25 1  
    26    6   26 1  
    27    7   27 1  
    28    7   28 1  
    29    8   29 1  
    30    8   30 1  
    31    9   31 1  
    32    9   32 1  
    33   11   33 1  
    34   11   34 1  
    35   12   35 1  
    36   12   36 1  
    37   13   37 1  
    38   13   38 1  
    39   14   39 1  
    40   14   40 1  
# Name:          frag4-414-53/48856
# Creation time: Sat Jun  5 12:51:59 2010


@<TRIPOS>MOLECULE
frag4-414-53/48856
   40    40     1     1     1
SMALL
USER_CHARGES


@<TRIPOS>ATOM
      1 C7          0.1184    1.7818    0.6143 C.3        1 <1>        0.000
      2 C8         -0.8695    2.3187   -0.4278 C.3        1 <1>        0.000
      3 C9         -0.3364    2.7894   -1.7551 C.3        1 <1>        0.000
      4 C10         0.2504    1.7160   -2.6351 C.3        1 <1>        0.000
      5 C11         1.7253    1.7738   -2.7435 C.3        1 <1>        0.000
      6 C12         2.5887    2.7391   -3.4674 C.3        1 <1>        0.000
      7 C13         3.6624    3.3958   -2.6507 C.3        1 <1>        0.000
      8 C14         4.9175    2.5831   -2.3780 C.3        1 <1>        0.000
      9 C15         4.8278    1.5604   -1.2675 C.3        1 <1>        0.000
     10 O3          4.2956    2.0966   -0.0881 O.3        1 <1>        0.000
     11 C16         3.8579    1.3355    0.8899 C.3        1 <1>        0.000
     12 C17         3.1657    1.7719    2.1212 C.3        1 <1>        0.000
     13 C18         2.1524    2.8982    2.0106 C.3        1 <1>        0.000
     14 C19         0.6923    2.7782    1.5988 C.3        1 <1>        0.000
     15 H          -0.4425    1.0636    1.2123 H.spc      1 <1>        0.000
     16 H           0.9685    1.4008    0.0484 H.spc      1 <1>        0.000
     17 H          -1.5165    1.4744   -0.6659 H.spc      1 <1>        0.000
     18 H          -1.3108    3.2040    0.0301 H.spc      1 <1>        0.000
     19 H          -1.1829    3.2086   -2.2989 H.spc      1 <1>        0.000
     20 H           0.4716    3.4873   -1.5356 H.spc      1 <1>        0.000
     21 H          -0.0057    0.7545   -2.1902 H.spc      1 <1>        0.000
     22 H          -0.1553    1.8586   -3.6367 H.spc      1 <1>        0.000
     23 H           1.9881    2.0112   -1.7126 H.spc      1 <1>        0.000
     24 H           1.9145    0.8698   -3.3224 H.spc      1 <1>        0.000
     25 H           1.9334    3.5384   -3.8136 H.spc      1 <1>        0.000
     26 H           3.0983    2.1719   -4.2463 H.spc      1 <1>        0.000
     27 H           3.2167    3.5906   -1.6753 H.spc      1 <1>        0.000
     28 H           3.9881    4.2609   -3.2284 H.spc      1 <1>        0.000
     29 H           5.6804    3.2982   -2.0702 H.spc      1 <1>        0.000
     30 H           5.1194    2.0223   -3.2906 H.spc      1 <1>        0.000
     31 H           4.1687    0.7586   -1.6004 H.spc      1 <1>        0.000
     32 H           5.8364    1.2078   -1.0521 H.spc      1 <1>        0.000
     33 H           3.0710    0.7719    0.3886 H.spc      1 <1>        0.000
     34 H           4.7921    0.9461    1.2945 H.spc      1 <1>        0.000
     35 H           2.5972    0.9041    2.4556 H.spc      1 <1>        0.000
     36 H           3.9509    2.1533    2.7739 H.spc      1 <1>        0.000
     37 H           2.0599    3.2102    3.0509 H.spc      1 <1>        0.000
     38 H           2.5637    3.4803    1.1859 H.spc      1 <1>        0.000
     39 H           0.2230    2.4651    2.5315 H.spc      1 <1>        0.000
     40 H           0.5290    3.7229    1.0801 H.spc      1 <1>        0.000
@<TRIPOS>BOND
     1    5    6 1  
     2    6    7 1  
     3    7    8 1  
     4    1   14 1  
     5    4    5 1  
     6    3    4 1  
     7    2    3 1  
     8    1    2 1  
     9   13   14 1  
    10   12   13 1  
    11   11   12 1  
    12   10   11 1  
    13    9   10 1  
    14    8    9 1  
    15    1   15 1  
    16    1   16 1  
    17    2   17 1  
    18    2   18 1  
    19    3   19 1  
    20    3   20 1  
    21    4   21 1  
    22    4   22 1  
    23    5   23 1  
    24    5   24 1  
    25    6   25 1  
    26    6   26 1  
    27    7   27 1  
    28    7   28 1  
    29    8   29 1  
    30    8   30 1  
    31    9   31 1  
    32    9   32 1  
    33   11   33 1  
    34   11   34 1  
    35   12   35 1  
    36   12   36 1  
    37   13   37 1  
    38   13   38 1  
    39   14   39 1  
    40   14   40 1  
# Name:          frag4-414-53/48856
# Creation time: Sat Jun  5 12:51:59 2010


@<TRIPOS>MOLECULE
frag4-414-53/48856
   40    40     1     1     1
SMALL
USER_CHARGES


@<TRIPOS>ATOM
      1 C7         -0.1315    2.5034    1.0176 C.3        1 <1>        0.000
      2 C8         -0.0811    3.1436   -0.3515 C.3        1 <1>        0.000
      3 C9         -0.2467    2.2669   -1.5746 C.3        1 <1>        0.000
      4 C10         0.0693    2.8240   -2.9377 C.3        1 <1>        0.000
      5 C11         1.3620    2.3880   -3.5328 C.3        1 <1>        0.000
      6 C12         2.5737    1.7672   -2.9430 C.3        1 <1>        0.000
      7 C13         3.8941    2.3185   -3.4004 C.3        1 <1>        0.000
      8 C14         4.8384    2.8571   -2.3533 C.3        1 <1>        0.000
      9 C15         4.9927    2.0910   -1.0529 C.3        1 <1>        0.000
     10 O3          4.1523    2.5819   -0.0437 O.3        1 <1>        0.000
     11 C16         3.9628    1.9019    1.0815 C.3        1 <1>        0.000
     12 C17         3.0724    2.2316    2.1957 C.3        1 <1>        0.000
     13 C18         1.8538    1.3602    2.3683 C.3        1 <1>        0.000
     14 C19         0.7362    1.3030    1.3484 C.3        1 <1>        0.000
     15 H           0.2278    3.2835    1.6887 H.spc      1 <1>        0.000
     16 H          -1.1503    2.1240    1.0957 H.spc      1 <1>        0.000
     17 H          -0.9316    3.8249   -0.3757 H.spc      1 <1>        0.000
     18 H           0.9250    3.5550   -0.4336 H.spc      1 <1>        0.000
     19 H           0.4711    1.4588   -1.4338 H.spc      1 <1>        0.000
     20 H          -1.3124    2.0406   -1.6095 H.spc      1 <1>        0.000
     21 H          -0.7135    2.4648   -3.6058 H.spc      1 <1>        0.000
     22 H           0.1341    3.9057   -2.8204 H.spc      1 <1>        0.000
     23 H           1.0079    1.5511   -4.1347 H.spc      1 <1>        0.000
     24 H           1.7726    3.3617   -3.8000 H.spc      1 <1>        0.000
     25 H           2.5588    0.7214   -3.2499 H.spc      1 <1>        0.000
     26 H           2.5206    1.9569   -1.8710 H.spc      1 <1>        0.000
     27 H           3.6477    3.1710   -4.0334 H.spc      1 <1>        0.000
     28 H           4.4166    1.4771   -3.8555 H.spc      1 <1>        0.000
     29 H           4.4239    3.8236   -2.0666 H.spc      1 <1>        0.000
     30 H           5.8240    2.8300   -2.8181 H.spc      1 <1>        0.000
     31 H           4.7257    1.0508   -1.2393 H.spc      1 <1>        0.000
     32 H           6.0239    2.1992   -0.7168 H.spc      1 <1>        0.000
     33 H           3.4944    0.9942    0.7010 H.spc      1 <1>        0.000
     34 H           4.9387    2.0061    1.5557 H.spc      1 <1>        0.000
     35 H           3.6645    2.1032    3.1018 H.spc      1 <1>        0.000
     36 H           2.6981    3.2353    1.9945 H.spc      1 <1>        0.000
     37 H           2.2635    0.3504    2.3472 H.spc      1 <1>        0.000
     38 H           1.3678    1.7814    3.2484 H.spc      1 <1>        0.000
     39 H           1.2596    1.1059    0.4129 H.spc      1 <1>        0.000
     40 H           0.0314    0.5968    1.7873 H.spc      1 <1>        0.000
@<TRIPOS>BOND
     1    5    6 1  
     2    6    7 1  
     3    7    8 1  
     4    1   14 1  
     5    4    5 1  
     6    3    4 1  
     7    2    3 1  
     8    1    2 1  
     9   13   14 1  
    10   12   13 1  
    11   11   12 1  
    12   10   11 1  
    13    9   10 1  
    14    8    9 1  
    15    1   15 1  
    16    1   16 1  
    17    2   17 1  
    18    2   18 1  
    19    3   19 1  
    20    3   20 1  
    21    4   21 1  
    22    4   22 1  
    23    5   23 1  
    24    5   24 1  
    25    6   25 1  
    26    6   26 1  
    27    7   27 1  
    28    7   28 1  
    29    8   29 1  
    30    8   30 1  
    31    9   31 1  
    32    9   32 1  
    33   11   33 1  
    34   11   34 1  
    35   12   35 1  
    36   12   36 1  
    37   13   37 1  
    38   13   38 1  
    39   14   39 1  
    40   14   40 1  
# Name:          frag4-414-53/48856
# Creation time: Sat Jun  5 12:51:59 2010


@<TRIPOS>MOLECULE
frag4-414-53/48856
   40    40     1     1     1
SMALL
USER_CHARGES


@<TRIPOS>ATOM
      1 C7          0.3553    2.9830    0.2679 C.3        1 <1>        0.000
      2 C8          0.4797    1.6195   -0.4113 C.3        1 <1>        0.000
      3 C9         -0.3064    1.3859   -1.6840 C.3        1 <1>        0.000
      4 C10        -0.0049    2.0188   -3.0267 C.3        1 <1>        0.000
      5 C11         1.4042    2.1894   -3.4745 C.3        1 <1>        0.000
      6 C12         2.3341    3.3413   -3.3736 C.3        1 <1>        0.000
      7 C13         3.2375    3.2377   -2.1623 C.3        1 <1>        0.000
      8 C14         4.4862    2.4056   -2.2441 C.3        1 <1>        0.000
      9 C15         4.9045    1.5698   -1.0453 C.3        1 <1>        0.000
     10 O3          4.4232    1.9996    0.2135 O.3        1 <1>        0.000
     11 C16         3.7580    1.1769    0.9874 C.3        1 <1>        0.000
     12 C17         2.8344    1.5214    2.0856 C.3        1 <1>        0.000
     13 C18         2.3046    2.9295    2.0083 C.3        1 <1>        0.000
     14 C19         0.8380    3.1598    1.6808 C.3        1 <1>        0.000
     15 H           0.9897    3.6431   -0.3235 H.spc      1 <1>        0.000
     16 H          -0.7178    3.1671    0.3194 H.spc      1 <1>        0.000
     17 H           1.5277    1.5338   -0.6986 H.spc      1 <1>        0.000
     18 H           0.0864    0.9010    0.3078 H.spc      1 <1>        0.000
     19 H          -0.1193    0.3301   -1.8798 H.spc      1 <1>        0.000
     20 H          -1.2764    1.8181   -1.4382 H.spc      1 <1>        0.000
     21 H          -0.4388    1.3319   -3.7534 H.spc      1 <1>        0.000
     22 H          -0.3860    3.0362   -2.9383 H.spc      1 <1>        0.000
     23 H           1.8985    1.4936   -2.7966 H.spc      1 <1>        0.000
     24 H           1.2587    2.1640   -4.5545 H.spc      1 <1>        0.000
     25 H           1.7407    4.2508   -3.2792 H.spc      1 <1>        0.000
     26 H           2.9604    3.3526   -4.2656 H.spc      1 <1>        0.000
     27 H           2.6278    2.7500   -1.4017 H.spc      1 <1>        0.000
     28 H           3.5916    4.2544   -1.9919 H.spc      1 <1>        0.000
     29 H           5.2928    3.1270   -2.3749 H.spc      1 <1>        0.000
     30 H           4.2854    1.6800   -3.0323 H.spc      1 <1>        0.000
     31 H           4.4884    0.5754   -1.2072 H.spc      1 <1>        0.000
     32 H           5.9914    1.6337   -0.9938 H.spc      1 <1>        0.000
     33 H           3.0756    0.7177    0.2722 H.spc      1 <1>        0.000
     34 H           4.5695    0.6976    1.5350 H.spc      1 <1>        0.000
     35 H           1.9808    0.8468    2.0187 H.spc      1 <1>        0.000
     36 H           3.3891    1.4316    3.0196 H.spc      1 <1>        0.000
     37 H           2.4294    3.3280    3.0152 H.spc      1 <1>        0.000
     38 H           2.8480    3.3848    1.1803 H.spc      1 <1>        0.000
     39 H           0.3055    2.3988    2.2512 H.spc      1 <1>        0.000
     40 H           0.6690    4.2141    1.8999 H.spc      1 <1>        0.000
@<TRIPOS>BOND
     1    5    6 1  
     2    6    7 1  
     3    7    8 1  
     4    1   14 1  
     5    4    5 1  
     6    3    4 1  
     7    2    3 1  
     8    1    2 1  
     9   13   14 1  
    10   12   13 1  
    11   11   12 1  
    12   10   11 1  
    13    9   10 1  
    14    8    9 1  
    15    1   15 1  
    16    1   16 1  
    17    2   17 1  
    18    2   18 1  
    19    3   19 1  
    20    3   20 1  
    21    4   21 1  
    22    4   22 1  
    23    5   23 1  
    24    5   24 1  
    25    6   25 1  
    26    6   26 1  
    27    7   27 1  
    28    7   28 1  
    29    8   29 1  
    30    8   30 1  
    31    9   31 1  
    32    9   32 1  
    33   11   33 1  
    34   11   34 1  
    35   12   35 1  
    36   12   36 1  
    37   13   37 1  
    38   13   38 1  
    39   14   39 1  
    40   14   40 1  
# Name:          frag4-414-53/48856
# Creation time: Sat Jun  5 12:51:59 2010


@<TRIPOS>MOLECULE
frag4-414-53/48856
   40    40     1     1     1
SMALL
USER_CHARGES


@<TRIPOS>ATOM
      1 C7         -0.2181    2.1986    0.7164 C.3        1 <1>        0.000
      2 C8         -0.8868    3.0731   -0.3343 C.3        1 <1>        0.000
      3 C9         -0.2629    3.2964   -1.7033 C.3        1 <1>        0.000
      4 C10        -0.1419    2.1369   -2.6617 C.3        1 <1>        0.000
      5 C11         1.2051    1.7910   -3.1966 C.3        1 <1>        0.000
      6 C12         2.5513    2.4159   -3.1620 C.3        1 <1>        0.000
      7 C13         3.5603    1.6146   -2.3941 C.3        1 <1>        0.000
      8 C14         4.9007    2.2035   -2.0905 C.3        1 <1>        0.000
      9 C15         5.0730    3.1084   -0.8925 C.3        1 <1>        0.000
     10 O3          4.2186    2.9806    0.2130 O.3        1 <1>        0.000
     11 C16         4.3404    1.9390    0.9792 C.3        1 <1>        0.000
     12 C17         3.4234    1.3345    1.9659 C.3        1 <1>        0.000
     13 C18         2.0104    1.1307    1.4846 C.3        1 <1>        0.000
     14 C19         1.2749    2.3154    0.8975 C.3        1 <1>        0.000
     15 H          -0.6481    2.5129    1.6674 H.spc      1 <1>        0.000
     16 H          -0.3880    1.1735    0.3871 H.spc      1 <1>        0.000
     17 H          -1.8152    2.5468   -0.5560 H.spc      1 <1>        0.000
     18 H          -0.8845    4.0658    0.1159 H.spc      1 <1>        0.000
     19 H          -0.9314    3.9987   -2.2012 H.spc      1 <1>        0.000
     20 H           0.7654    3.5915   -1.4943 H.spc      1 <1>        0.000
     21 H          -0.4538    1.2625   -2.0905 H.spc      1 <1>        0.000
     22 H          -0.7280    2.4269   -3.5338 H.spc      1 <1>        0.000
     23 H           1.4134    0.9358   -2.5536 H.spc      1 <1>        0.000
     24 H           0.9937    1.9343   -4.2563 H.spc      1 <1>        0.000
     25 H           2.4526    3.3817   -2.6664 H.spc      1 <1>        0.000
     26 H           2.9051    2.4912   -4.1902 H.spc      1 <1>        0.000
     27 H           3.7752    0.7586   -3.0338 H.spc      1 <1>        0.000
     28 H           3.1015    1.4590   -1.4177 H.spc      1 <1>        0.000
     29 H           5.1195    2.8405   -2.9475 H.spc      1 <1>        0.000
     30 H           5.5347    1.3432   -1.8762 H.spc      1 <1>        0.000
     31 H           6.0604    2.8598   -0.5035 H.spc      1 <1>        0.000
     32 H           4.8736    4.1089   -1.2763 H.spc      1 <1>        0.000
     33 H           4.3383    1.1542    0.2227 H.spc      1 <1>        0.000
     34 H           5.1217    2.2959    1.6502 H.spc      1 <1>        0.000
     35 H           3.8208    0.3468    2.1995 H.spc      1 <1>        0.000
     36 H           3.3713    2.0234    2.8090 H.spc      1 <1>        0.000
     37 H           2.0858    0.4085    0.6717 H.spc      1 <1>        0.000
     38 H           1.4426    0.8519    2.3723 H.spc      1 <1>        0.000
     39 H           1.4184    3.1282    1.6094 H.spc      1 <1>        0.000
     40 H           1.6803    2.4405   -0.1065 H.spc      1 <1>        0.000
@<TRIPOS>BOND
     1    5    6 1  
     2    6    7 1  
     3    7    8 1  
     4    1   14 1  
     5    4    5 1  
     6    3    4 1  
     7    2    3 1  
     8    1    2 1  
     9   13   14 1  
    10   12   13 1  
    11   11   12 1  
    12   10   11 1  
    13    9   10 1  
    14    8    9 1  
    15    1   15 1  
    16    1   16 1  
    17    2   17 1  
    18    2   18 1  
    19    3   19 1  
    20    3   20 1  
    21    4   21 1  
    22    4   22 1  
    23    5   23 1  
    24    5   24 1  
    25    6   25 1  
    26    6   26 1  
    27    7   27 1  
    28    7   28 1  
    29    8   29 1  
    30    8   30 1  
    31    9   31 1  
    32    9   32 1  
    33   11   33 1  
    34   11   34 1  
    35   12   35 1  
    36   12   36 1  
    37   13   37 1  
    38   13   38 1  
    39   14   39 1  
    40   14   40 1  
# Name:          frag4-414-53/48856
# Creation time: Sat Jun  5 12:51:59 2010


@<TRIPOS>MOLECULE
frag4-414-53/48856
   40    40     1     1     1
SMALL
USER_CHARGES


@<TRIPOS>ATOM
      1 C7         -0.5762    2.2268    1.1452 C.3        1 <1>        0.000
      2 C8         -0.4143    2.4953   -0.3573 C.3        1 <1>        0.000
      3 C9          0.5139    1.5895   -1.1600 C.3        1 <1>        0.000
      4 C10         0.6301    1.8150   -2.6577 C.3        1 <1>        0.000
      5 C11         1.5285    2.9321   -3.0700 C.3        1 <1>        0.000
      6 C12         2.6733    2.8549   -4.0223 C.3        1 <1>        0.000
      7 C13         3.9084    2.1561   -3.5151 C.3        1 <1>        0.000
      8 C14         4.5760    2.7560   -2.2935 C.3        1 <1>        0.000
      9 C15         4.9152    1.8371   -1.1313 C.3        1 <1>        0.000
     10 O3          4.4263    2.2372    0.1221 O.3        1 <1>        0.000
     11 C16         3.6999    1.3909    0.8069 C.3        1 <1>        0.000
     12 C17         2.7674    1.5907    1.9327 C.3        1 <1>        0.000
     13 C18         1.9503    2.8567    1.8920 C.3        1 <1>        0.000
     14 C19         0.4497    2.8002    2.1298 C.3        1 <1>        0.000
     15 H          -1.5161    2.7097    1.4127 H.spc      1 <1>        0.000
     16 H          -0.4807    1.1456    1.2447 H.spc      1 <1>        0.000
     17 H          -1.4051    2.3394   -0.7839 H.spc      1 <1>        0.000
     18 H           0.0282    3.4892   -0.4240 H.spc      1 <1>        0.000
     19 H           1.5114    1.7817   -0.7647 H.spc      1 <1>        0.000
     20 H           0.0964    0.5882   -1.0542 H.spc      1 <1>        0.000
     21 H           1.0553    0.9032   -3.0772 H.spc      1 <1>        0.000
     22 H          -0.3682    2.0723   -3.0116 H.spc      1 <1>        0.000
     23 H           0.8379    3.5787   -3.6114 H.spc      1 <1>        0.000
     24 H           2.0387    3.1583   -2.1337 H.spc      1 <1>        0.000
     25 H           2.9675    3.8834   -4.2313 H.spc      1 <1>        0.000
     26 H           2.3226    2.2754   -4.8763 H.spc      1 <1>        0.000
     27 H           4.6412    2.2194   -4.3195 H.spc      1 <1>        0.000
     28 H           3.5889    1.1560   -3.2222 H.spc      1 <1>        0.000
     29 H           3.8541    3.4681   -1.8938 H.spc      1 <1>        0.000
     30 H           5.5347    3.1342   -2.6483 H.spc      1 <1>        0.000
     31 H           4.4511    0.8758   -1.3516 H.spc      1 <1>        0.000
     32 H           6.0022    1.8288   -1.0508 H.spc      1 <1>        0.000
     33 H           2.9933    1.0878    0.0343 H.spc      1 <1>        0.000
     34 H           4.4904    0.8416    1.3181 H.spc      1 <1>        0.000
     35 H           2.0571    0.7648    1.8939 H.spc      1 <1>        0.000
     36 H           3.3797    1.6487    2.8326 H.spc      1 <1>        0.000
     37 H           2.3348    3.4561    2.7172 H.spc      1 <1>        0.000
     38 H           2.0507    3.2133    0.8669 H.spc      1 <1>        0.000
     39 H           0.3737    2.1118    2.9715 H.spc      1 <1>        0.000
     40 H           0.1792    3.8557    2.1586 H.spc      1 <1>        0.000
@<TRIPOS>BOND
     1    5    6 1  
     2    6    7 1  
     3    7    8 1  
     4    1   14 1  
     5    4    5 1  
     6    3    4 1  
     7    2    3 1  
     8    1    2 1  
     9   13   14 1  
    10   12   13 1  
    11   11   12 1  
    12   10   11 1  
    13    9   10 1  
    14    8    9 1  
    15    1   15 1  
    16    1   16 1  
    17    2   17 1  
    18    2   18 1  
    19    3   19 1  
    20    3   20 1  
    21    4   21 1  
    22    4   22 1  
    23    5   23 1  
    24    5   24 1  
    25    6   25 1  
    26    6   26 1  
    27    7   27 1  
    28    7   28 1  
    29    8   29 1  
    30    8   30 1  
    31    9   31 1  
    32    9   32 1  
    33   11   33 1  
    34   11   34 1  
    35   12   35 1  
    36   12   36 1  
    37   13   37 1  
    38   13   38 1  
    39   14   39 1  
    40   14   40 1  
# Name:          frag4-414-53/48856
# Creation time: Sat Jun  5 12:51:59 2010


@<TRIPOS>MOLECULE
frag4-414-53/48856
   40    40     1     1     1
SMALL
USER_CHARGES


@<TRIPOS>ATOM
      1 C7         -0.3392    3.1054    1.0072 C.3        1 <1>        0.000
      2 C8         -0.8076    2.5771   -0.3426 C.3        1 <1>        0.000
      3 C9          0.0592    2.8191   -1.5739 C.3        1 <1>        0.000
      4 C10         0.2760    1.6408   -2.4906 C.3        1 <1>        0.000
      5 C11         1.1934    1.9367   -3.6180 C.3        1 <1>        0.000
      6 C12         2.6185    2.3357   -3.7002 C.3        1 <1>        0.000
      7 C13         3.4961    1.9456   -2.5459 C.3        1 <1>        0.000
      8 C14         4.4453    2.9917   -2.0008 C.3        1 <1>        0.000
      9 C15         5.3798    2.6179   -0.8726 C.3        1 <1>        0.000
     10 O3          4.7902    2.4957    0.4150 O.3        1 <1>        0.000
     11 C16         4.2120    1.3619    0.7578 C.3        1 <1>        0.000
     12 C17         3.0186    1.1565    1.6185 C.3        1 <1>        0.000
     13 C18         2.0670    2.2910    1.3456 C.3        1 <1>        0.000
     14 C19         0.6393    2.2633    1.8221 C.3        1 <1>        0.000
     15 H           0.1985    4.0261    0.7808 H.spc      1 <1>        0.000
     16 H          -1.2404    3.1639    1.6176 H.spc      1 <1>        0.000
     17 H          -0.8329    1.4936   -0.2261 H.spc      1 <1>        0.000
     18 H          -1.7369    3.1096   -0.5449 H.spc      1 <1>        0.000
     19 H          -0.4638    3.5693   -2.1671 H.spc      1 <1>        0.000
     20 H           1.0451    3.0933   -1.1984 H.spc      1 <1>        0.000
     21 H           0.7256    0.8422   -1.9005 H.spc      1 <1>        0.000
     22 H          -0.6911    1.3706   -2.9146 H.spc      1 <1>        0.000
     23 H           1.2746    0.9338   -4.0371 H.spc      1 <1>        0.000
     24 H           0.7383    2.8637   -3.9669 H.spc      1 <1>        0.000
     25 H           2.6240    3.4254   -3.7265 H.spc      1 <1>        0.000
     26 H           3.0240    1.8226   -4.5722 H.spc      1 <1>        0.000
     27 H           4.1304    1.1417   -2.9195 H.spc      1 <1>        0.000
     28 H           2.8156    1.7132   -1.7268 H.spc      1 <1>        0.000
     29 H           3.8006    3.7665   -1.5860 H.spc      1 <1>        0.000
     30 H           5.0996    3.2395   -2.8366 H.spc      1 <1>        0.000
     31 H           5.7780    1.6339   -1.1201 H.spc      1 <1>        0.000
     32 H           6.1074    3.4261   -0.7991 H.spc      1 <1>        0.000
     33 H           3.8311    1.0251   -0.2064 H.spc      1 <1>        0.000
     34 H           4.9903    0.9118    1.3740 H.spc      1 <1>        0.000
     35 H           2.5466    0.1996    1.3956 H.spc      1 <1>        0.000
     36 H           3.3039    1.1414    2.6704 H.spc      1 <1>        0.000
     37 H           2.5033    3.1290    1.8892 H.spc      1 <1>        0.000
     38 H           1.9756    2.2943    0.2594 H.spc      1 <1>        0.000
     39 H           0.3037    1.2295    1.7400 H.spc      1 <1>        0.000
     40 H           0.6398    2.6758    2.8310 H.spc      1 <1>        0.000
@<TRIPOS>BOND
     1    5    6 1  
     2    6    7 1  
     3    7    8 1  
     4    1   14 1  
     5    4    5 1  
     6    3    4 1  
     7    2    3 1  
     8    1    2 1  
     9   13   14 1  
    10   12   13 1  
    11   11   12 1  
    12   10   11 1  
    13    9   10 1  
    14    8    9 1  
    15    1   15 1  
    16    1   16 1  
    17    2   17 1  
    18    2   18 1  
    19    3   19 1  
    20    3   20 1  
    21    4   21 1  
    22    4   22 1  
    23    5   23 1  
    24    5   24 1  
    25    6   25 1  
    26    6   26 1  
    27    7   27 1  
    28    7   28 1  
    29    8   29 1  
    30    8   30 1  
    31    9   31 1  
    32    9   32 1  
    33   11   33 1  
    34   11   34 1  
    35   12   35 1  
    36   12   36 1  
    37   13   37 1  
    38   13   38 1  
    39   14   39 1  
    40   14   40 1  
# Name:          frag4-414-53/48856
# Creation time: Sat Jun  5 12:51:59 2010


@<TRIPOS>MOLECULE
frag4-414-53/48856
   40    40     1     1     1
SMALL
USER_CHARGES


@<TRIPOS>ATOM
      1 C7         -0.7853    2.0819    1.1949 C.3        1 <1>        0.000
      2 C8         -1.0025    2.6885   -0.1679 C.3        1 <1>        0.000
      3 C9         -0.3766    2.0284   -1.3803 C.3        1 <1>        0.000
      4 C10         0.2858    2.9850   -2.3365 C.3        1 <1>        0.000
      5 C11         1.2934    2.4135   -3.2623 C.3        1 <1>        0.000
      6 C12         2.7457    2.6819   -3.4127 C.3        1 <1>        0.000
      7 C13         3.6317    1.7331   -2.6544 C.3        1 <1>        0.000
      8 C14         5.0569    2.1641   -2.3951 C.3        1 <1>        0.000
      9 C15         5.6262    2.0389   -0.9950 C.3        1 <1>        0.000
     10 O3          4.9035    2.6436    0.0469 O.3        1 <1>        0.000
     11 C16         4.2027    1.8928    0.8592 C.3        1 <1>        0.000
     12 C17         3.0955    2.2758    1.7591 C.3        1 <1>        0.000
     13 C18         1.7795    2.3537    1.0385 C.3        1 <1>        0.000
     14 C19         0.5922    1.5571    1.5271 C.3        1 <1>        0.000
     15 H          -0.9649    2.8908    1.9031 H.spc      1 <1>        0.000
     16 H          -1.4423    1.2130    1.2324 H.spc      1 <1>        0.000
     17 H          -2.0772    2.6187   -0.3361 H.spc      1 <1>        0.000
     18 H          -0.5350    3.6716   -0.1132 H.spc      1 <1>        0.000
     19 H           0.3979    1.3547   -1.0137 H.spc      1 <1>        0.000
     20 H          -1.1804    1.5350   -1.9267 H.spc      1 <1>        0.000
     21 H          -0.5115    3.3782   -2.9672 H.spc      1 <1>        0.000
     22 H           0.8219    3.7043   -1.7173 H.spc      1 <1>        0.000
     23 H           1.3309    1.3904   -2.8882 H.spc      1 <1>        0.000
     24 H           0.9302    2.8195   -4.2064 H.spc      1 <1>        0.000
     25 H           2.9303    3.6800   -3.0156 H.spc      1 <1>        0.000
     26 H           2.9851    2.5687   -4.4701 H.spc      1 <1>        0.000
     27 H           3.7039    0.8401   -3.2752 H.spc      1 <1>        0.000
     28 H           3.1740    1.6274   -1.6708 H.spc      1 <1>        0.000
     29 H           5.0672    3.2336   -2.6054 H.spc      1 <1>        0.000
     30 H           5.6653    1.4955   -3.0041 H.spc      1 <1>        0.000
     31 H           5.6319    0.9721   -0.7716 H.spc      1 <1>        0.000
     32 H           6.5904    2.5466   -1.0205 H.spc      1 <1>        0.000
     33 H           3.6728    1.2629    0.1446 H.spc      1 <1>        0.000
     34 H           4.9661    1.6151    1.5859 H.spc      1 <1>        0.000
     35 H           3.0121    1.5162    2.5364 H.spc      1 <1>        0.000
     36 H           3.3168    3.2614    2.1686 H.spc      1 <1>        0.000
     37 H           1.4715    3.3931    1.1519 H.spc      1 <1>        0.000
     38 H           1.9893    1.9455    0.0498 H.spc      1 <1>        0.000
     39 H           0.6646    0.5891    1.0312 H.spc      1 <1>        0.000
     40 H           0.6570    1.5718    2.6151 H.spc      1 <1>        0.000
@<TRIPOS>BOND
     1    5    6 1  
     2    6    7 1  
     3    7    8 1  
     4    1   14 1  
     5    4    5 1  
     6    3    4 1  
     7    2    3 1  
     8    1    2 1  
     9   13   14 1  
    10   12   13 1  
    11   11   12 1  
    12   10   11 1  
    13    9   10 1  
    14    8    9 1  
    15    1   15 1  
    16    1   16 1  
    17    2   17 1  
    18    2   18 1  
    19    3   19 1  
    20    3   20 1  
    21    4   21 1  
    22    4   22 1  
    23    5   23 1  
    24    5   24 1  
    25    6   25 1  
    26    6   26 1  
    27    7   27 1  
    28    7   28 1  
    29    8   29 1  
    30    8   30 1  
    31    9   31 1  
    32    9   32 1  
    33   11   33 1  
    34   11   34 1  
    35   12   35 1  
    36   12   36 1  
    37   13   37 1  
    38   13   38 1  
    39   14   39 1  
    40   14   40 1  
# Name:          frag4-414-53/48856
# Creation time: Sat Jun  5 12:51:59 2010


@<TRIPOS>MOLECULE
frag4-414-53/48856
   40    40     1     1     1
SMALL
USER_CHARGES


@<TRIPOS>ATOM
      1 C7         -0.3920    1.9592    0.9542 C.3        1 <1>        0.000
      2 C8          0.0037    2.7307   -0.3017 C.3        1 <1>        0.000
      3 C9         -0.3777    2.1753   -1.6507 C.3        1 <1>        0.000
      4 C10         0.0784    2.8783   -2.9128 C.3        1 <1>        0.000
      5 C11         1.2935    2.3168   -3.5736 C.3        1 <1>        0.000
      6 C12         2.7014    2.8374   -3.7115 C.3        1 <1>        0.000
      7 C13         3.6124    2.0029   -2.8428 C.3        1 <1>        0.000
      8 C14         4.8865    2.5175   -2.1927 C.3        1 <1>        0.000
      9 C15         5.3065    1.6991   -0.9628 C.3        1 <1>        0.000
     10 O3          4.3358    1.4896    0.0389 O.3        1 <1>        0.000
     11 C16         4.1553    2.4216    0.9472 C.3        1 <1>        0.000
     12 C17         2.9811    2.7716    1.7828 C.3        1 <1>        0.000
     13 C18         1.9703    1.6899    2.0479 C.3        1 <1>        0.000
     14 C19         0.4934    2.0486    2.1991 C.3        1 <1>        0.000
     15 H          -1.3443    2.3933    1.2586 H.spc      1 <1>        0.000
     16 H          -0.3529    0.9104    0.6600 H.spc      1 <1>        0.000
     17 H          -0.5280    3.6794   -0.2279 H.spc      1 <1>        0.000
     18 H           1.0937    2.7345   -0.2974 H.spc      1 <1>        0.000
     19 H           0.1060    1.1993   -1.6913 H.spc      1 <1>        0.000
     20 H          -1.4652    2.2440   -1.6772 H.spc      1 <1>        0.000
     21 H          -0.7351    2.7754   -3.6309 H.spc      1 <1>        0.000
     22 H           0.3328    3.8970   -2.6202 H.spc      1 <1>        0.000
     23 H           1.4797    1.4682   -2.9154 H.spc      1 <1>        0.000
     24 H           0.9765    2.3790   -4.6146 H.spc      1 <1>        0.000
     25 H           2.7433    3.8804   -3.3978 H.spc      1 <1>        0.000
     26 H           3.0201    2.7731   -4.7519 H.spc      1 <1>        0.000
     27 H           3.9878    1.2555   -3.5418 H.spc      1 <1>        0.000
     28 H           2.9809    1.7790   -1.9830 H.spc      1 <1>        0.000
     29 H           4.7013    3.5399   -1.8634 H.spc      1 <1>        0.000
     30 H           5.6872    2.4449   -2.9287 H.spc      1 <1>        0.000
     31 H           5.5585    0.7082   -1.3405 H.spc      1 <1>        0.000
     32 H           6.1027    2.2711   -0.4863 H.spc      1 <1>        0.000
     33 H           4.8272    2.0531    1.7224 H.spc      1 <1>        0.000
     34 H           4.1966    3.3060    0.3115 H.spc      1 <1>        0.000
     35 H           3.3853    3.0410    2.7586 H.spc      1 <1>        0.000
     36 H           2.4465    3.5434    1.2290 H.spc      1 <1>        0.000
     37 H           2.0085    1.0569    1.1614 H.spc      1 <1>        0.000
     38 H           2.2536    1.2830    3.0186 H.spc      1 <1>        0.000
     39 H           0.0865    1.3190    2.8992 H.spc      1 <1>        0.000
     40 H           0.4770    3.0979    2.4937 H.spc      1 <1>        0.000
@<TRIPOS>BOND
     1    5    6 1  
     2    6    7 1  
     3    7    8 1  
     4    1   14 1  
     5    4    5 1  
     6    3    4 1  
     7    2    3 1  
     8    1    2 1  
     9   13   14 1  
    10   12   13 1  
    11   11   12 1  
    12   10   11 1  
    13    9   10 1  
    14    8    9 1  
    15    1   15 1  
    16    1   16 1  
    17    2   17 1  
    18    2   18 1  
    19    3   19 1  
    20    3   20 1  
    21    4   21 1  
    22    4   22 1  
    23    5   23 1  
    24    5   24 1  
    25    6   25 1  
    26    6   26 1  
    27    7   27 1  
    28    7   28 1  
    29    8   29 1  
    30    8   30 1  
    31    9   31 1  
    32    9   32 1  
    33   11   33 1  
    34   11   34 1  
    35   12   35 1  
    36   12   36 1  
    37   13   37 1  
    38   13   38 1  
    39   14   39 1  
    40   14   40 1  
# Name:          frag4-414-53/48856
# Creation time: Sat Jun  5 12:51:59 2010


@<TRIPOS>MOLECULE
frag4-414-53/48856
   40    40     1     1     1
SMALL
USER_CHARGES


@<TRIPOS>ATOM
      1 C7          0.1892    2.8472    0.6175 C.3        1 <1>        0.000
      2 C8         -0.6943    2.9098   -0.6083 C.3        1 <1>        0.000
      3 C9         -0.7857    1.8094   -1.6465 C.3        1 <1>        0.000
      4 C10         0.3870    1.4444   -2.5223 C.3        1 <1>        0.000
      5 C11         1.1801    2.5811   -3.0482 C.3        1 <1>        0.000
      6 C12         2.6268    2.7234   -3.3530 C.3        1 <1>        0.000
      7 C13         3.4931    3.2558   -2.2503 C.3        1 <1>        0.000
      8 C14         4.8626    2.6641   -1.9970 C.3        1 <1>        0.000
      9 C15         4.9948    1.4256   -1.1297 C.3        1 <1>        0.000
     10 O3          4.2397    1.3080    0.0469 O.3        1 <1>        0.000
     11 C16         4.2221    2.3337    0.8717 C.3        1 <1>        0.000
     12 C17         3.2152    2.7785    1.8478 C.3        1 <1>        0.000
     13 C18         2.0760    1.8082    2.0459 C.3        1 <1>        0.000
     14 C19         1.0420    1.6492    0.9471 C.3        1 <1>        0.000
     15 H           0.9217    3.6342    0.4385 H.spc      1 <1>        0.000
     16 H          -0.5234    2.8815    1.4416 H.spc      1 <1>        0.000
     17 H          -1.6969    2.9197   -0.1807 H.spc      1 <1>        0.000
     18 H          -0.2628    3.7364   -1.1727 H.spc      1 <1>        0.000
     19 H          -0.9558    0.9099   -1.0548 H.spc      1 <1>        0.000
     20 H          -1.5288    2.1813   -2.3520 H.spc      1 <1>        0.000
     21 H           1.0643    0.8589   -1.9005 H.spc      1 <1>        0.000
     22 H          -0.0260    0.9304   -3.3902 H.spc      1 <1>        0.000
     23 H           0.7760    2.6317   -4.0592 H.spc      1 <1>        0.000
     24 H           1.1057    3.2618   -2.2001 H.spc      1 <1>        0.000
     25 H           2.6946    3.4461   -4.1661 H.spc      1 <1>        0.000
     26 H           2.9912    1.7182   -3.5649 H.spc      1 <1>        0.000
     27 H           2.9339    3.0381   -1.3404 H.spc      1 <1>        0.000
     28 H           3.6954    4.2866   -2.5414 H.spc      1 <1>        0.000
     29 H           5.4024    3.4400   -1.4542 H.spc      1 <1>        0.000
     30 H           5.2143    2.3514   -2.9802 H.spc      1 <1>        0.000
     31 H           4.6414    0.6114   -1.7624 H.spc      1 <1>        0.000
     32 H           6.0298    1.4417   -0.7883 H.spc      1 <1>        0.000
     33 H           5.0211    2.0381    1.5517 H.spc      1 <1>        0.000
     34 H           4.1546    3.1491    0.1515 H.spc      1 <1>        0.000
     35 H           3.7210    2.8816    2.8078 H.spc      1 <1>        0.000
     36 H           2.7861    3.7056    1.4679 H.spc      1 <1>        0.000
     37 H           2.5517    0.8308    2.1259 H.spc      1 <1>        0.000
     38 H           1.5205    2.1992    2.8983 H.spc      1 <1>        0.000
     39 H           1.6073    1.4326    0.0407 H.spc      1 <1>        0.000
     40 H           0.3506    0.8851    1.3025 H.spc      1 <1>        0.000
@<TRIPOS>BOND
     1    5    6 1  
     2    6    7 1  
     3    7    8 1  
     4    1   14 1  
     5    4    5 1  
     6    3    4 1  
     7    2    3 1  
     8    1    2 1  
     9   13   14 1  
    10   12   13 1  
    11   11   12 1  
    12   10   11 1  
    13    9   10 1  
    14    8    9 1  
    15    1   15 1  
    16    1   16 1  
    17    2   17 1  
    18    2   18 1  
    19    3   19 1  
    20    3   20 1  
    21    4   21 1  
    22    4   22 1  
    23    5   23 1  
    24    5   24 1  
    25    6   25 1  
    26    6   26 1  
    27    7   27 1  
    28    7   28 1  
    29    8   29 1  
    30    8   30 1  
    31    9   31 1  
    32    9   32 1  
    33   11   33 1  
    34   11   34 1  
    35   12   35 1  
    36   12   36 1  
    37   13   37 1  
    38   13   38 1  
    39   14   39 1  
    40   14   40 1  
# Name:          frag4-414-53/48856 -- energy: -7.096910
# Creation time: Sat Jun  5 12:51:59 2010


@<TRIPOS>MOLECULE
frag4-414-53/48856 -- energy: -7.096910
   40    40     1     1     1
SMALL
USER_CHARGES


@<TRIPOS>ATOM
      1 C7         -0.5159    2.8835    0.9082 C.3        1 <1>        0.000
      2 C8         -0.7261    1.8562   -0.1685 C.3        1 <1>        0.000
      3 C9          0.2220    1.6661   -1.3229 C.3        1 <1>        0.000
      4 C10         0.5710    2.8139   -2.2149 C.3        1 <1>        0.000
      5 C11         1.3713    2.3782   -3.3922 C.3        1 <1>        0.000
      6 C12         2.7811    1.9048   -3.4283 C.3        1 <1>        0.000
      7 C13         3.6804    3.0357   -3.0265 C.3        1 <1>        0.000
      8 C14         5.0181    2.8030   -2.3744 C.3        1 <1>        0.000
      9 C15         5.0293    1.8882   -1.1736 C.3        1 <1>        0.000
     10 O3          4.0311    2.1904   -0.2210 O.3        1 <1>        0.000
     11 C16         3.9717    1.5399    0.9105 C.3        1 <1>        0.000
     12 C17         3.0942    1.7717    2.0889 C.3        1 <1>        0.000
     13 C18         1.6208    1.7670    1.8234 C.3        1 <1>        0.000
     14 C19         0.8997    3.0397    1.4127 C.3        1 <1>        0.000
     15 H          -0.7914    3.8434    0.4714 H.spc      1 <1>        0.000
     16 H          -1.1092    2.5559    1.7619 H.spc      1 <1>        0.000
     17 H          -0.6487    0.9129    0.3721 H.spc      1 <1>        0.000
     18 H          -1.6422    2.1921   -0.6544 H.spc      1 <1>        0.000
     19 H           1.1670    1.3949   -0.8523 H.spc      1 <1>        0.000
     20 H          -0.2912    0.9628   -1.9787 H.spc      1 <1>        0.000
     21 H          -0.3555    3.2594   -2.5772 H.spc      1 <1>        0.000
     22 H           1.1660    3.5243   -1.6410 H.spc      1 <1>        0.000
     23 H           0.8413    1.4692   -3.6768 H.spc      1 <1>        0.000
     24 H           1.4543    3.3150   -3.9432 H.spc      1 <1>        0.000
     25 H           3.0335    1.5716   -4.4350 H.spc      1 <1>        0.000
     26 H           2.9081    1.0691   -2.7401 H.spc      1 <1>        0.000
     27 H           3.1087    3.5553   -2.2575 H.spc      1 <1>        0.000
     28 H           3.9377    3.5065   -3.9753 H.spc      1 <1>        0.000
     29 H           5.3538    3.7763   -2.0166 H.spc      1 <1>        0.000
     30 H           5.6423    2.3218   -3.1274 H.spc      1 <1>        0.000
     31 H           4.8418    0.8763   -1.5327 H.spc      1 <1>        0.000
     32 H           5.9952    2.0064   -0.6825 H.spc      1 <1>        0.000
     33 H           3.5927    0.5775    0.5668 H.spc      1 <1>        0.000
     34 H           4.9442    1.7898    1.3347 H.spc      1 <1>        0.000
     35 H           3.2831    0.9479    2.7771 H.spc      1 <1>        0.000
     36 H           3.3349    2.7688    2.4575 H.spc      1 <1>        0.000
     37 H           1.5080    1.1080    0.9625 H.spc      1 <1>        0.000
     38 H           1.1782    1.5095    2.7856 H.spc      1 <1>        0.000
     39 H           0.8324    3.6509    2.3127 H.spc      1 <1>        0.000
     40 H           1.4709    3.4542    0.5820 H.spc      1 <1>        0.000
@<TRIPOS>BOND
     1    5    6 1  
     2    6    7 1  
     3    7    8 1  
     4    1   14 1  
     5    4    5 1  
     6    3    4 1  
     7    2    3 1  
     8    1    2 1  
     9   13   14 1  
    10   12   13 1  
    11   11   12 1  
    12   10   11 1  
    13    9   10 1  
    14    8    9 1  
    15    1   15 1  
    16    1   16 1  
    17    2   17 1  
    18    2   18 1  
    19    3   19 1  
    20    3   20 1  
    21    4   21 1  
    22    4   22 1  
    23    5   23 1  
    24    5   24 1  
    25    6   25 1  
    26    6   26 1  
    27    7   27 1  
    28    7   28 1  
    29    8   29 1  
    30    8   30 1  
    31    9   31 1  
    32    9   32 1  
    33   11   33 1  
    34   11   34 1  
    35   12   35 1  
    36   12   36 1  
    37   13   37 1  
    38   13   38 1  
    39   14   39 1  
    40   14   40 1  
# Name:          frag4-414-53/48856 -- energy: -7.257476
# Creation time: Sat Jun  5 12:52:00 2010


@<TRIPOS>MOLECULE
frag4-414-53/48856 -- energy: -7.257476
   40    40     1     1     1
SMALL
USER_CHARGES


@<TRIPOS>ATOM
      1 C7          0.1183    2.8453    0.5821 C.3        1 <1>        0.000
      2 C8         -0.8610    2.2940   -0.4255 C.3        1 <1>        0.000
      3 C9         -0.3176    1.8396   -1.7634 C.3        1 <1>        0.000
      4 C10         0.0668    2.8783   -2.7830 C.3        1 <1>        0.000
      5 C11         1.1198    2.5043   -3.7728 C.3        1 <1>        0.000
      6 C12         2.5344    2.0389   -3.6580 C.3        1 <1>        0.000
      7 C13         3.3107    2.6356   -2.5169 C.3        1 <1>        0.000
      8 C14         4.5734    1.9550   -2.0438 C.3        1 <1>        0.000
      9 C15         5.2368    2.5460   -0.8181 C.3        1 <1>        0.000
     10 O3          4.4210    2.7251    0.3158 O.3        1 <1>        0.000
     11 C16         4.2989    1.7126    1.1389 C.3        1 <1>        0.000
     12 C17         3.3503    1.4379    2.2355 C.3        1 <1>        0.000
     13 C18         2.1047    2.2771    2.1794 C.3        1 <1>        0.000
     14 C19         1.0920    1.8488    1.1514 C.3        1 <1>        0.000
     15 H           0.7118    3.5956    0.0597 H.spc      1 <1>        0.000
     16 H          -0.4732    3.2148    1.4198 H.spc      1 <1>        0.000
     17 H          -1.2810    1.4004    0.0363 H.spc      1 <1>        0.000
     18 H          -1.5394    3.1166   -0.6516 H.spc      1 <1>        0.000
     19 H           0.6105    1.3187   -1.5282 H.spc      1 <1>        0.000
     20 H          -1.1328    1.2813   -2.2236 H.spc      1 <1>        0.000
     21 H          -0.8341    3.0685   -3.3664 H.spc      1 <1>        0.000
     22 H           0.4771    3.7133   -2.2151 H.spc      1 <1>        0.000
     23 H           0.6728    1.5852   -4.1516 H.spc      1 <1>        0.000
     24 H           1.3034    3.4899   -4.2005 H.spc      1 <1>        0.000
     25 H           3.0402    2.3422   -4.5746 H.spc      1 <1>        0.000
     26 H           2.4981    0.9634   -3.4848 H.spc      1 <1>        0.000
     27 H           2.6330    2.5870   -1.6646 H.spc      1 <1>        0.000
     28 H           3.6399    3.6079   -2.8834 H.spc      1 <1>        0.000
     29 H           5.2937    2.0544   -2.8558 H.spc      1 <1>        0.000
     30 H           4.2867    0.9389   -1.7729 H.spc      1 <1>        0.000
     31 H           6.0105    1.8371   -0.5233 H.spc      1 <1>        0.000
     32 H           5.5721    3.5418   -1.1080 H.spc      1 <1>        0.000
     33 H           3.9847    0.9440    0.4328 H.spc      1 <1>        0.000
     34 H           5.2122    1.8420    1.7196 H.spc      1 <1>        0.000
     35 H           3.0454    0.3949    2.1497 H.spc      1 <1>        0.000
     36 H           3.8579    1.6693    3.1719 H.spc      1 <1>        0.000
     37 H           1.6216    2.1871    3.1523 H.spc      1 <1>        0.000
     38 H           2.4178    3.2859    1.9102 H.spc      1 <1>        0.000
     39 H           1.6913    1.5382    0.2956 H.spc      1 <1>        0.000
     40 H           0.4645    1.1276    1.6751 H.spc      1 <1>        0.000
@<TRIPOS>BOND
     1    5    6 1  
     2    6    7 1  
     3    7    8 1  
     4    1   14 1  
     5    4    5 1  
     6    3    4 1  
     7    2    3 1  
     8    1    2 1  
     9   13   14 1  
    10   12   13 1  
    11   11   12 1  
    12   10   11 1  
    13    9   10 1  
    14    8    9 1  
    15    1   15 1  
    16    1   16 1  
    17    2   17 1  
    18    2   18 1  
    19    3   19 1  
    20    3   20 1  
    21    4   21 1  
    22    4   22 1  
    23    5   23 1  
    24    5   24 1  
    25    6   25 1  
    26    6   26 1  
    27    7   27 1  
    28    7   28 1  
    29    8   29 1  
    30    8   30 1  
    31    9   31 1  
    32    9   32 1  
    33   11   33 1  
    34   11   34 1  
    35   12   35 1  
    36   12   36 1  
    37   13   37 1  
    38   13   38 1  
    39   14   39 1  
    40   14   40 1  
# Name:          frag4-414-53/48856 -- energy: -6.189584
# Creation time: Sat Jun  5 12:52:00 2010


@<TRIPOS>MOLECULE
frag4-414-53/48856 -- energy: -6.189584
   40    40     1     1     1
SMALL
USER_CHARGES


@<TRIPOS>ATOM
      1 C7         -0.2999    2.2829    0.8276 C.3        1 <1>        0.000
      2 C8         -0.1164    2.8249   -0.5798 C.3        1 <1>        0.000
      3 C9         -0.3272    1.8862   -1.7615 C.3        1 <1>        0.000
      4 C10        -0.1646    2.4455   -3.1617 C.3        1 <1>        0.000
      5 C11         1.2030    2.3552   -3.7517 C.3        1 <1>        0.000
      6 C12         2.4696    3.0377   -3.3793 C.3        1 <1>        0.000
      7 C13         3.2701    2.2370   -2.4081 C.3        1 <1>        0.000
      8 C14         4.6365    2.6747   -1.9601 C.3        1 <1>        0.000
      9 C15         5.2545    1.7481   -0.9564 C.3        1 <1>        0.000
     10 O3          4.4333    1.3261    0.0919 O.3        1 <1>        0.000
     11 C16         4.3403    2.1379    1.1136 C.3        1 <1>        0.000
     12 C17         3.4041    2.1316    2.2402 C.3        1 <1>        0.000
     13 C18         2.0491    2.6954    1.9202 C.3        1 <1>        0.000
     14 C19         0.8962    1.7550    1.5867 C.3        1 <1>        0.000
     15 H          -0.6405    3.1387    1.4104 H.spc      1 <1>        0.000
     16 H          -0.9533    1.4188    0.7072 H.spc      1 <1>        0.000
     17 H          -0.8825    3.5926   -0.6889 H.spc      1 <1>        0.000
     18 H           0.9321    3.1175   -0.6352 H.spc      1 <1>        0.000
     19 H           0.4473    1.1254   -1.6650 H.spc      1 <1>        0.000
     20 H          -1.3694    1.5736   -1.6969 H.spc      1 <1>        0.000
     21 H          -0.8136    1.8508   -3.8046 H.spc      1 <1>        0.000
     22 H          -0.3977    3.5081   -3.0943 H.spc      1 <1>        0.000
     23 H           1.4562    1.3292   -3.4845 H.spc      1 <1>        0.000
     24 H           1.0199    2.8146   -4.7230 H.spc      1 <1>        0.000
     25 H           2.2193    3.9901   -2.9119 H.spc      1 <1>        0.000
     26 H           3.0639    3.1710   -4.2833 H.spc      1 <1>        0.000
     27 H           3.4583    1.3024   -2.9366 H.spc      1 <1>        0.000
     28 H           2.6760    2.2691   -1.4948 H.spc      1 <1>        0.000
     29 H           4.5318    3.6512   -1.4873 H.spc      1 <1>        0.000
     30 H           5.2828    2.6892   -2.8377 H.spc      1 <1>        0.000
     31 H           5.5285    0.8476   -1.5060 H.spc      1 <1>        0.000
     32 H           6.0706    2.3042   -0.4950 H.spc      1 <1>        0.000
     33 H           5.2702    1.9048    1.6323 H.spc      1 <1>        0.000
     34 H           4.0296    3.0521    0.6078 H.spc      1 <1>        0.000
     35 H           3.2584    1.0912    2.5306 H.spc      1 <1>        0.000
     36 H           3.8364    2.7582    3.0203 H.spc      1 <1>        0.000
     37 H           1.7375    3.1967    2.8365 H.spc      1 <1>        0.000
     38 H           2.2016    3.2755    1.0101 H.spc      1 <1>        0.000
     39 H           1.3331    1.0050    0.9274 H.spc      1 <1>        0.000
     40 H           0.4975    1.4521    2.5549 H.spc      1 <1>        0.000
@<TRIPOS>BOND
     1    5    6 1  
     2    6    7 1  
     3    7    8 1  
     4    1   14 1  
     5    4    5 1  
     6    3    4 1  
     7    2    3 1  
     8    1    2 1  
     9   13   14 1  
    10   12   13 1  
    11   11   12 1  
    12   10   11 1  
    13    9   10 1  
    14    8    9 1  
    15    1   15 1  
    16    1   16 1  
    17    2   17 1  
    18    2   18 1  
    19    3   19 1  
    20    3   20 1  
    21    4   21 1  
    22    4   22 1  
    23    5   23 1  
    24    5   24 1  
    25    6   25 1  
    26    6   26 1  
    27    7   27 1  
    28    7   28 1  
    29    8   29 1  
    30    8   30 1  
    31    9   31 1  
    32    9   32 1  
    33   11   33 1  
    34   11   34 1  
    35   12   35 1  
    36   12   36 1  
    37   13   37 1  
    38   13   38 1  
    39   14   39 1  
    40   14   40 1  
# Name:          frag4-414-53/48856 -- energy: -6.754710
# Creation time: Sat Jun  5 12:52:00 2010


@<TRIPOS>MOLECULE
frag4-414-53/48856 -- energy: -6.754710
   40    40     1     1     1
SMALL
USER_CHARGES


@<TRIPOS>ATOM
      1 C7         -0.3959    1.8054    0.9616 C.3        1 <1>        0.000
      2 C8         -0.7914    2.3454   -0.3948 C.3        1 <1>        0.000
      3 C9          0.1568    2.1064   -1.5360 C.3        1 <1>        0.000
      4 C10        -0.0001    2.8417   -2.8326 C.3        1 <1>        0.000
      5 C11         1.2175    2.7083   -3.6752 C.3        1 <1>        0.000
      6 C12         2.6333    3.0586   -3.3801 C.3        1 <1>        0.000
      7 C13         3.5080    1.9147   -2.9314 C.3        1 <1>        0.000
      8 C14         4.8262    2.2641   -2.2788 C.3        1 <1>        0.000
      9 C15         5.1450    1.6681   -0.9313 C.3        1 <1>        0.000
     10 O3          4.3085    2.2471    0.0682 O.3        1 <1>        0.000
     11 C16         4.1265    1.7282    1.2525 C.3        1 <1>        0.000
     12 C17         3.3022    2.3522    2.3185 C.3        1 <1>        0.000
     13 C18         1.9669    2.8115    1.7904 C.3        1 <1>        0.000
     14 C19         1.0451    1.6867    1.3906 C.3        1 <1>        0.000
     15 H          -0.8091    2.5362    1.6568 H.spc      1 <1>        0.000
     16 H          -0.7392    0.7712    0.9338 H.spc      1 <1>        0.000
     17 H          -1.7114    1.8255   -0.6622 H.spc      1 <1>        0.000
     18 H          -0.8442    3.4278   -0.2772 H.spc      1 <1>        0.000
     19 H           1.1210    2.4429   -1.1550 H.spc      1 <1>        0.000
     20 H          -0.0056    1.0619   -1.8018 H.spc      1 <1>        0.000
     21 H          -0.8463    2.4179   -3.3734 H.spc      1 <1>        0.000
     22 H          -0.1607    3.8980   -2.6170 H.spc      1 <1>        0.000
     23 H           1.2950    1.6225   -3.7320 H.spc      1 <1>        0.000
     24 H           0.9956    3.4397   -4.4524 H.spc      1 <1>        0.000
     25 H           2.6103    3.7721   -2.5564 H.spc      1 <1>        0.000
     26 H           3.0613    3.4283   -4.3119 H.spc      1 <1>        0.000
     27 H           3.7639    1.3659   -3.8378 H.spc      1 <1>        0.000
     28 H           2.9338    1.3849   -2.1713 H.spc      1 <1>        0.000
     29 H           4.7834    3.3402   -2.1105 H.spc      1 <1>        0.000
     30 H           5.5889    1.8709   -2.9509 H.spc      1 <1>        0.000
     31 H           4.9719    0.5925   -0.9648 H.spc      1 <1>        0.000
     32 H           6.1879    1.8703   -0.6874 H.spc      1 <1>        0.000
     33 H           3.5774    0.8131    1.0307 H.spc      1 <1>        0.000
     34 H           5.1287    1.7521    1.6805 H.spc      1 <1>        0.000
     35 H           3.1276    1.6101    3.0975 H.spc      1 <1>        0.000
     36 H           3.8372    3.2202    2.7037 H.spc      1 <1>        0.000
     37 H           1.4750    3.3633    2.5914 H.spc      1 <1>        0.000
     38 H           2.1596    3.4047    0.8965 H.spc      1 <1>        0.000
     39 H           1.5169    1.3342    0.4734 H.spc      1 <1>        0.000
     40 H           0.9485    1.1405    2.3289 H.spc      1 <1>        0.000
@<TRIPOS>BOND
     1    5    6 1  
     2    6    7 1  
     3    7    8 1  
     4    1   14 1  
     5    4    5 1  
     6    3    4 1  
     7    2    3 1  
     8    1    2 1  
     9   13   14 1  
    10   12   13 1  
    11   11   12 1  
    12   10   11 1  
    13    9   10 1  
    14    8    9 1  
    15    1   15 1  
    16    1   16 1  
    17    2   17 1  
    18    2   18 1  
    19    3   19 1  
    20    3   20 1  
    21    4   21 1  
    22    4   22 1  
    23    5   23 1  
    24    5   24 1  
    25    6   25 1  
    26    6   26 1  
    27    7   27 1  
    28    7   28 1  
    29    8   29 1  
    30    8   30 1  
    31    9   31 1  
    32    9   32 1  
    33   11   33 1  
    34   11   34 1  
    35   12   35 1  
    36   12   36 1  
    37   13   37 1  
    38   13   38 1  
    39   14   39 1  
    40   14   40 1  
# Name:          frag4-414-53/48856 -- energy: -5.465062
# Creation time: Sat Jun  5 12:52:00 2010


@<TRIPOS>MOLECULE
frag4-414-53/48856 -- energy: -5.465062
   40    40     1     1     1
SMALL
USER_CHARGES


@<TRIPOS>ATOM
      1 C7         -0.1462    2.8261    0.7235 C.3        1 <1>        0.000
      2 C8         -0.1621    3.0415   -0.7753 C.3        1 <1>        0.000
      3 C9         -0.2820    1.7958   -1.6269 C.3        1 <1>        0.000
      4 C10        -0.0756    1.8224   -3.1136 C.3        1 <1>        0.000
      5 C11         1.3375    1.9339   -3.5312 C.3        1 <1>        0.000
      6 C12         2.3232    3.0379   -3.4805 C.3        1 <1>        0.000
      7 C13         3.2357    3.0880   -2.2719 C.3        1 <1>        0.000
      8 C14         4.1595    1.9167   -1.9900 C.3        1 <1>        0.000
      9 C15         5.2441    2.1966   -0.9762 C.3        1 <1>        0.000
     10 O3          4.9059    2.3886    0.3901 O.3        1 <1>        0.000
     11 C16         4.1615    1.4793    0.9807 C.3        1 <1>        0.000
     12 C17         3.3170    1.5887    2.1863 C.3        1 <1>        0.000
     13 C18         2.1338    2.5062    1.9721 C.3        1 <1>        0.000
     14 C19         0.8960    1.9167    1.3345 C.3        1 <1>        0.000
     15 H           0.0659    3.8100    1.1420 H.spc      1 <1>        0.000
     16 H          -1.0981    2.3427    0.9435 H.spc      1 <1>        0.000
     17 H          -1.0465    3.6422   -0.9876 H.spc      1 <1>        0.000
     18 H           0.7972    3.4928   -1.0286 H.spc      1 <1>        0.000
     19 H           0.5290    1.1622   -1.2679 H.spc      1 <1>        0.000
     20 H          -1.3292    1.5131   -1.5196 H.spc      1 <1>        0.000
     21 H          -0.4517    0.8776   -3.5059 H.spc      1 <1>        0.000
     22 H          -0.5919    2.7043   -3.4927 H.spc      1 <1>        0.000
     23 H           1.7879    1.2664   -2.7966 H.spc      1 <1>        0.000
     24 H           1.2039    1.8711   -4.6112 H.spc      1 <1>        0.000
     25 H           1.7393    3.9579   -3.4517 H.spc      1 <1>        0.000
     26 H           2.9762    2.8945   -4.3414 H.spc      1 <1>        0.000
     27 H           2.5621    3.1237   -1.4157 H.spc      1 <1>        0.000
     28 H           3.9025    3.9293   -2.4611 H.spc      1 <1>        0.000
     29 H           4.6579    1.6732   -2.9283 H.spc      1 <1>        0.000
     30 H           3.5418    1.1173   -1.5807 H.spc      1 <1>        0.000
     31 H           5.8604    1.2976   -0.9809 H.spc      1 <1>        0.000
     32 H           5.6698    3.1502   -1.2884 H.spc      1 <1>        0.000
     33 H           3.3973    1.3257    0.2187 H.spc      1 <1>        0.000
     34 H           4.9324    0.7985    1.3418 H.spc      1 <1>        0.000
     35 H           2.9375    0.5955    2.4264 H.spc      1 <1>        0.000
     36 H           3.9255    2.0015    2.9909 H.spc      1 <1>        0.000
     37 H           1.8263    2.8241    2.9683 H.spc      1 <1>        0.000
     38 H           2.4809    3.2744    1.2811 H.spc      1 <1>        0.000
     39 H           1.2737    1.3327    0.4952 H.spc      1 <1>        0.000
     40 H           0.3773    1.4202    2.1546 H.spc      1 <1>        0.000
@<TRIPOS>BOND
     1    5    6 1  
     2    6    7 1  
     3    7    8 1  
     4    1   14 1  
     5    4    5 1  
     6    3    4 1  
     7    2    3 1  
     8    1    2 1  
     9   13   14 1  
    10   12   13 1  
    11   11   12 1  
    12   10   11 1  
    13    9   10 1  
    14    8    9 1  
    15    1   15 1  
    16    1   16 1  
    17    2   17 1  
    18    2   18 1  
    19    3   19 1  
    20    3   20 1  
    21    4   21 1  
    22    4   22 1  
    23    5   23 1  
    24    5   24 1  
    25    6   25 1  
    26    6   26 1  
    27    7   27 1  
    28    7   28 1  
    29    8   29 1  
    30    8   30 1  
    31    9   31 1  
    32    9   32 1  
    33   11   33 1  
    34   11   34 1  
    35   12   35 1  
    36   12   36 1  
    37   13   37 1  
    38   13   38 1  
    39   14   39 1  
    40   14   40 1  
# Name:          frag4-414-53/48856 -- energy: -6.889423
# Creation time: Sat Jun  5 12:52:00 2010


@<TRIPOS>MOLECULE
frag4-414-53/48856 -- energy: -6.889423
   40    40     1     1     1
SMALL
USER_CHARGES


@<TRIPOS>ATOM
      1 C7         -0.3988    2.1102    1.1594 C.3        1 <1>        0.000
      2 C8         -0.0201    2.9340   -0.0471 C.3        1 <1>        0.000
      3 C9          0.2633    2.2000   -1.3366 C.3        1 <1>        0.000
      4 C10         0.5443    3.0337   -2.5605 C.3        1 <1>        0.000
      5 C11         1.9678    3.1252   -2.9704 C.3        1 <1>        0.000
      6 C12         2.7897    2.2731   -3.8660 C.3        1 <1>        0.000
      7 C13         3.6812    1.2857   -3.1661 C.3        1 <1>        0.000
      8 C14         4.9036    1.7402   -2.3962 C.3        1 <1>        0.000
      9 C15         4.7300    2.6729   -1.2113 C.3        1 <1>        0.000
     10 O3          3.7866    2.2340   -0.2702 O.3        1 <1>        0.000
     11 C16         3.5135    2.9535    0.7967 C.3        1 <1>        0.000
     12 C17         2.7075    2.6137    1.9818 C.3        1 <1>        0.000
     13 C18         2.0396    1.2636    1.9232 C.3        1 <1>        0.000
     14 C19         0.5402    1.0987    1.7851 C.3        1 <1>        0.000
     15 H          -0.5234    2.8564    1.9441 H.spc      1 <1>        0.000
     16 H          -1.2231    1.4966    0.7960 H.spc      1 <1>        0.000
     17 H          -0.8853    3.5639   -0.2538 H.spc      1 <1>        0.000
     18 H           0.9141    3.4287    0.2187 H.spc      1 <1>        0.000
     19 H           1.1724    1.6266   -1.1556 H.spc      1 <1>        0.000
     20 H          -0.6446    1.6409   -1.5630 H.spc      1 <1>        0.000
     21 H           0.0177    2.5543   -3.3857 H.spc      1 <1>        0.000
     22 H           0.2287    4.0487   -2.3193 H.spc      1 <1>        0.000
     23 H           1.9292    4.0363   -3.5675 H.spc      1 <1>        0.000
     24 H           2.4484    2.9070   -2.0167 H.spc      1 <1>        0.000
     25 H           3.4424    2.9437   -4.4249 H.spc      1 <1>        0.000
     26 H           2.0941    1.6928   -4.4722 H.spc      1 <1>        0.000
     27 H           4.0905    0.6816   -3.9758 H.spc      1 <1>        0.000
     28 H           3.0385    0.8467   -2.4030 H.spc      1 <1>        0.000
     29 H           5.4900    2.3109   -3.1163 H.spc      1 <1>        0.000
     30 H           5.3216    0.8269   -1.9729 H.spc      1 <1>        0.000
     31 H           5.6918    2.7292   -0.7016 H.spc      1 <1>        0.000
     32 H           4.3765    3.6274   -1.6013 H.spc      1 <1>        0.000
     33 H           4.5042    3.0218    1.2462 H.spc      1 <1>        0.000
     34 H           2.8930    3.7328    0.3543 H.spc      1 <1>        0.000
     35 H           3.3877    2.5945    2.8333 H.spc      1 <1>        0.000
     36 H           1.9138    3.3577    2.0497 H.spc      1 <1>        0.000
     37 H           2.4256    0.8326    0.9994 H.spc      1 <1>        0.000
     38 H           2.2497    0.8370    2.9040 H.spc      1 <1>        0.000
     39 H           0.4640    0.2575    1.0961 H.spc      1 <1>        0.000
     40 H           0.2128    1.0937    2.8248 H.spc      1 <1>        0.000
@<TRIPOS>BOND
     1    5    6 1  
     2    6    7 1  
     3    7    8 1  
     4    1   14 1  
     5    4    5 1  
     6    3    4 1  
     7    2    3 1  
     8    1    2 1  
     9   13   14 1  
    10   12   13 1  
    11   11   12 1  
    12   10   11 1  
    13    9   10 1  
    14    8    9 1  
    15    1   15 1  
    16    1   16 1  
    17    2   17 1  
    18    2   18 1  
    19    3   19 1  
    20    3   20 1  
    21    4   21 1  
    22    4   22 1  
    23    5   23 1  
    24    5   24 1  
    25    6   25 1  
    26    6   26 1  
    27    7   27 1  
    28    7   28 1  
    29    8   29 1  
    30    8   30 1  
    31    9   31 1  
    32    9   32 1  
    33   11   33 1  
    34   11   34 1  
    35   12   35 1  
    36   12   36 1  
    37   13   37 1  
    38   13   38 1  
    39   14   39 1  
    40   14   40 1  
# Name:          frag4-414-53/48856 -- energy: -6.763167
# Creation time: Sat Jun  5 12:52:00 2010


@<TRIPOS>MOLECULE
frag4-414-53/48856 -- energy: -6.763167
   40    40     1     1     1
SMALL
USER_CHARGES


@<TRIPOS>ATOM
      1 C7         -0.2829    2.0423    0.6509 C.3        1 <1>        0.000
      2 C8         -0.7230    3.0406   -0.3903 C.3        1 <1>        0.000
      3 C9          0.0707    3.1348   -1.6647 C.3        1 <1>        0.000
      4 C10         0.2860    1.8823   -2.4701 C.3        1 <1>        0.000
      5 C11         1.1051    2.1261   -3.6884 C.3        1 <1>        0.000
      6 C12         2.5392    2.5324   -3.7947 C.3        1 <1>        0.000
      7 C13         3.3005    2.1365   -2.5573 C.3        1 <1>        0.000
      8 C14         4.7766    2.3363   -2.3222 C.3        1 <1>        0.000
      9 C15         5.1637    2.5909   -0.8694 C.3        1 <1>        0.000
     10 O3          4.3653    1.8934    0.0630 O.3        1 <1>        0.000
     11 C16         4.2624    2.2543    1.3148 C.3        1 <1>        0.000
     12 C17         3.2789    1.8189    2.3370 C.3        1 <1>        0.000
     13 C18         1.9738    1.3476    1.7454 C.3        1 <1>        0.000
     14 C19         0.9323    2.4019    1.4676 C.3        1 <1>        0.000
     15 H          -1.1076    1.9661    1.3595 H.spc      1 <1>        0.000
     16 H          -0.0187    1.1370    0.1043 H.spc      1 <1>        0.000
     17 H          -1.7188    2.7184   -0.6948 H.spc      1 <1>        0.000
     18 H          -0.6204    4.0161    0.0851 H.spc      1 <1>        0.000
     19 H          -0.5070    3.7944   -2.3123 H.spc      1 <1>        0.000
     20 H           1.0675    3.4508   -1.3571 H.spc      1 <1>        0.000
     21 H           0.8173    1.1655   -1.8440 H.spc      1 <1>        0.000
     22 H          -0.6893    1.5131   -2.7873 H.spc      1 <1>        0.000
     23 H           1.1497    1.1200   -4.1054 H.spc      1 <1>        0.000
     24 H           0.6144    3.0144   -4.0862 H.spc      1 <1>        0.000
     25 H           2.5902    3.6154   -3.9072 H.spc      1 <1>        0.000
     26 H           2.9832    2.0324   -4.6555 H.spc      1 <1>        0.000
     27 H           3.2226    1.0496   -2.5839 H.spc      1 <1>        0.000
     28 H           2.8626    2.7924   -1.8049 H.spc      1 <1>        0.000
     29 H           5.0704    3.2206   -2.8877 H.spc      1 <1>        0.000
     30 H           5.2731    1.4144   -2.6252 H.spc      1 <1>        0.000
     31 H           6.1898    2.2464   -0.7410 H.spc      1 <1>        0.000
     32 H           5.0307    3.6559   -0.6792 H.spc      1 <1>        0.000
     33 H           5.1788    1.8280    1.7230 H.spc      1 <1>        0.000
     34 H           3.9827    3.3015    1.1998 H.spc      1 <1>        0.000
     35 H           3.7165    0.9811    2.8798 H.spc      1 <1>        0.000
     36 H           3.0619    2.6774    2.9726 H.spc      1 <1>        0.000
     37 H           2.2240    0.9123    0.7779 H.spc      1 <1>        0.000
     38 H           1.5334    0.6802    2.4862 H.spc      1 <1>        0.000
     39 H           0.5390    2.6695    2.4483 H.spc      1 <1>        0.000
     40 H           1.4513    3.1565    0.8765 H.spc      1 <1>        0.000
@<TRIPOS>BOND
     1    5    6 1  
     2    6    7 1  
     3    7    8 1  
     4    1   14 1  
     5    4    5 1  
     6    3    4 1  
     7    2    3 1  
     8    1    2 1  
     9   13   14 1  
    10   12   13 1  
    11   11   12 1  
    12   10   11 1  
    13    9   10 1  
    14    8    9 1  
    15    1   15 1  
    16    1   16 1  
    17    2   17 1  
    18    2   18 1  
    19    3   19 1  
    20    3   20 1  
    21    4   21 1  
    22    4   22 1  
    23    5   23 1  
    24    5   24 1  
    25    6   25 1  
    26    6   26 1  
    27    7   27 1  
    28    7   28 1  
    29    8   29 1  
    30    8   30 1  
    31    9   31 1  
    32    9   32 1  
    33   11   33 1  
    34   11   34 1  
    35   12   35 1  
    36   12   36 1  
    37   13   37 1  
    38   13   38 1  
    39   14   39 1  
    40   14   40 1  
# Name:          frag4-414-53/48856 -- energy: -7.138735
# Creation time: Sat Jun  5 12:52:00 2010


@<TRIPOS>MOLECULE
frag4-414-53/48856 -- energy: -7.138735
   40    40     1     1     1
SMALL
USER_CHARGES


@<TRIPOS>ATOM
      1 C7         -0.5497    2.3067    0.9962 C.3        1 <1>        0.000
      2 C8         -0.3624    1.6156   -0.3418 C.3        1 <1>        0.000
      3 C9          0.6452    2.2331   -1.2897 C.3        1 <1>        0.000
      4 C10         0.6237    1.9029   -2.7564 C.3        1 <1>        0.000
      5 C11         1.3275    2.9103   -3.6068 C.3        1 <1>        0.000
      6 C12         2.7614    3.2835   -3.7810 C.3        1 <1>        0.000
      7 C13         3.6726    3.0982   -2.5994 C.3        1 <1>        0.000
      8 C14         4.2817    1.7279   -2.4203 C.3        1 <1>        0.000
      9 C15         4.8819    1.3438   -1.0690 C.3        1 <1>        0.000
     10 O3          3.9700    1.2800    0.0109 O.3        1 <1>        0.000
     11 C16         4.1179    2.2085    0.9377 C.3        1 <1>        0.000
     12 C17         3.1973    2.6627    2.0089 C.3        1 <1>        0.000
     13 C18         1.8237    2.0396    2.0592 C.3        1 <1>        0.000
     14 C19         0.6578    2.9257    1.6729 C.3        1 <1>        0.000
     15 H          -1.2186    3.1426    0.7915 H.spc      1 <1>        0.000
     16 H          -0.8833    1.5222    1.6754 H.spc      1 <1>        0.000
     17 H           0.0109    0.6170   -0.1149 H.spc      1 <1>        0.000
     18 H          -1.3261    1.6735   -0.8478 H.spc      1 <1>        0.000
     19 H           0.4256    3.3001   -1.2537 H.spc      1 <1>        0.000
     20 H           1.6054    1.8497   -0.9444 H.spc      1 <1>        0.000
     21 H           1.1381    0.9505   -2.8846 H.spc      1 <1>        0.000
     22 H          -0.4196    1.8812   -3.0713 H.spc      1 <1>        0.000
     23 H           1.1481    2.4629   -4.5844 H.spc      1 <1>        0.000
     24 H           0.9726    3.8198   -3.1222 H.spc      1 <1>        0.000
     25 H           2.7639    4.3533   -3.9897 H.spc      1 <1>        0.000
     26 H           3.1460    2.6207   -4.5561 H.spc      1 <1>        0.000
     27 H           3.0576    3.2710   -1.7162 H.spc      1 <1>        0.000
     28 H           4.5085    3.7801   -2.7553 H.spc      1 <1>        0.000
     29 H           5.1226    1.7057   -3.1134 H.spc      1 <1>        0.000
     30 H           3.4521    1.0352   -2.5620 H.spc      1 <1>        0.000
     31 H           5.2916    0.3407   -1.1869 H.spc      1 <1>        0.000
     32 H           5.6029    2.1220   -0.8189 H.spc      1 <1>        0.000
     33 H           4.9001    1.7495    1.5423 H.spc      1 <1>        0.000
     34 H           4.1341    3.1004    0.3113 H.spc      1 <1>        0.000
     35 H           3.6793    2.3855    2.9464 H.spc      1 <1>        0.000
     36 H           3.0311    3.7236    1.8220 H.spc      1 <1>        0.000
     37 H           1.8364    1.2276    1.3321 H.spc      1 <1>        0.000
     38 H           1.6580    1.7638    3.1006 H.spc      1 <1>        0.000
     39 H           0.2788    3.3158    2.6175 H.spc      1 <1>        0.000
     40 H           1.0657    3.6183    0.9367 H.spc      1 <1>        0.000
@<TRIPOS>BOND
     1    5    6 1  
     2    6    7 1  
     3    7    8 1  
     4    1   14 1  
     5    4    5 1  
     6    3    4 1  
     7    2    3 1  
     8    1    2 1  
     9   13   14 1  
    10   12   13 1  
    11   11   12 1  
    12   10   11 1  
    13    9   10 1  
    14    8    9 1  
    15    1   15 1  
    16    1   16 1  
    17    2   17 1  
    18    2   18 1  
    19    3   19 1  
    20    3   20 1  
    21    4   21 1  
    22    4   22 1  
    23    5   23 1  
    24    5   24 1  
    25    6   25 1  
    26    6   26 1  
    27    7   27 1  
    28    7   28 1  
    29    8   29 1  
    30    8   30 1  
    31    9   31 1  
    32    9   32 1  
    33   11   33 1  
    34   11   34 1  
    35   12   35 1  
    36   12   36 1  
    37   13   37 1  
    38   13   38 1  
    39   14   39 1  
    40   14   40 1  
# Name:          frag4-414-53/48856 -- energy: -7.650500
# Creation time: Sat Jun  5 12:52:00 2010


@<TRIPOS>MOLECULE
frag4-414-53/48856 -- energy: -7.650500
   40    40     1     1     1
SMALL
USER_CHARGES


@<TRIPOS>ATOM
      1 C7         -0.4044    3.0624    1.0508 C.3        1 <1>        0.000
      2 C8         -0.5286    2.2731   -0.2372 C.3        1 <1>        0.000
      3 C9          0.6855    2.1163   -1.1103 C.3        1 <1>        0.000
      4 C10         0.5500    1.8582   -2.5848 C.3        1 <1>        0.000
      5 C11         1.8586    1.5891   -3.2483 C.3        1 <1>        0.000
      6 C12         2.8739    2.4699   -3.8940 C.3        1 <1>        0.000
      7 C13         3.6042    3.4274   -2.9854 C.3        1 <1>        0.000
      8 C14         4.8697    2.9721   -2.2777 C.3        1 <1>        0.000
      9 C15         4.7801    1.8349   -1.2790 C.3        1 <1>        0.000
     10 O3          3.7280    1.9816   -0.3624 O.3        1 <1>        0.000
     11 C16         3.7027    1.2644    0.7298 C.3        1 <1>        0.000
     12 C17         2.7625    1.3496    1.8624 C.3        1 <1>        0.000
     13 C18         2.0373    2.6752    1.9748 C.3        1 <1>        0.000
     14 C19         0.5290    2.6642    2.1828 C.3        1 <1>        0.000
     15 H           0.0043    4.0163    0.7176 H.spc      1 <1>        0.000
     16 H          -1.3930    2.9616    1.4987 H.spc      1 <1>        0.000
     17 H          -0.7845    1.2607    0.0754 H.spc      1 <1>        0.000
     18 H          -1.2421    2.8315   -0.8431 H.spc      1 <1>        0.000
     19 H           1.1776    3.0874   -1.0559 H.spc      1 <1>        0.000
     20 H           1.1718    1.2187   -0.7283 H.spc      1 <1>        0.000
     21 H          -0.0764    0.9753   -2.7126 H.spc      1 <1>        0.000
     22 H           0.1219    2.7505   -3.0415 H.spc      1 <1>        0.000
     23 H           2.4325    1.2744   -2.3767 H.spc      1 <1>        0.000
     24 H           1.4988    1.0634   -4.1327 H.spc      1 <1>        0.000
     25 H           2.3295    3.0863   -4.6093 H.spc      1 <1>        0.000
     26 H           3.6328    1.8055   -4.3072 H.spc      1 <1>        0.000
     27 H           2.8987    3.6376   -2.1815 H.spc      1 <1>        0.000
     28 H           3.9297    4.2356   -3.6404 H.spc      1 <1>        0.000
     29 H           5.1930    3.8346   -1.6949 H.spc      1 <1>        0.000
     30 H           5.5185    2.6006   -3.0709 H.spc      1 <1>        0.000
     31 H           4.6022    0.9175   -1.8401 H.spc      1 <1>        0.000
     32 H           5.7109    1.8208   -0.7120 H.spc      1 <1>        0.000
     33 H           3.4502    0.2839    0.3262 H.spc      1 <1>        0.000
     34 H           4.6291    1.5838    1.2071 H.spc      1 <1>        0.000
     35 H           2.0042    0.5821    1.7073 H.spc      1 <1>        0.000
     36 H           3.3474    1.2265    2.7739 H.spc      1 <1>        0.000
     37 H           2.4444    3.1473    2.8689 H.spc      1 <1>        0.000
     38 H           2.1883    3.1646    1.0126 H.spc      1 <1>        0.000
     39 H           0.2904    1.6180    2.3741 H.spc      1 <1>        0.000
     40 H           0.3570    3.4171    2.9520 H.spc      1 <1>        0.000
@<TRIPOS>BOND
     1    5    6 1  
     2    6    7 1  
     3    7    8 1  
     4    1   14 1  
     5    4    5 1  
     6    3    4 1  
     7    2    3 1  
     8    1    2 1  
     9   13   14 1  
    10   12   13 1  
    11   11   12 1  
    12   10   11 1  
    13    9   10 1  
    14    8    9 1  
    15    1   15 1  
    16    1   16 1  
    17    2   17 1  
    18    2   18 1  
    19    3   19 1  
    20    3   20 1  
    21    4   21 1  
    22    4   22 1  
    23    5   23 1  
    24    5   24 1  
    25    6   25 1  
    26    6   26 1  
    27    7   27 1  
    28    7   28 1  
    29    8   29 1  
    30    8   30 1  
    31    9   31 1  
    32    9   32 1  
    33   11   33 1  
    34   11   34 1  
    35   12   35 1  
    36   12   36 1  
    37   13   37 1  
    38   13   38 1  
    39   14   39 1  
    40   14   40 1  
# Name:          frag4-414-53/48856 -- energy: -6.340456
# Creation time: Sat Jun  5 12:52:00 2010


@<TRIPOS>MOLECULE
frag4-414-53/48856 -- energy: -6.340456
   40    40     1     1     1
SMALL
USER_CHARGES


@<TRIPOS>ATOM
      1 C7         -0.2487    1.7047    0.9822 C.3        1 <1>        0.000
      2 C8         -0.5106    2.6310   -0.2002 C.3        1 <1>        0.000
      3 C9         -0.3906    2.0738   -1.6175 C.3        1 <1>        0.000
      4 C10         0.9670    1.8641   -2.2647 C.3        1 <1>        0.000
      5 C11         1.8667    3.0103   -2.6718 C.3        1 <1>        0.000
      6 C12         2.9617    2.9872   -3.6932 C.3        1 <1>        0.000
      7 C13         3.8892    1.8055   -3.5279 C.3        1 <1>        0.000
      8 C14         5.0492    1.8843   -2.5552 C.3        1 <1>        0.000
      9 C15         4.8610    2.5843   -1.2225 C.3        1 <1>        0.000
     10 O3          3.7356    2.2168   -0.4596 O.3        1 <1>        0.000
     11 C16         3.8406    2.0617    0.8286 C.3        1 <1>        0.000
     12 C17         2.8470    1.6766    1.8437 C.3        1 <1>        0.000
     13 C18         1.8154    2.7297    2.1493 C.3        1 <1>        0.000
     14 C19         0.3649    2.3083    2.2304 C.3        1 <1>        0.000
     15 H          -1.2289    1.3385    1.2877 H.spc      1 <1>        0.000
     16 H           0.4776    0.9747    0.6247 H.spc      1 <1>        0.000
     17 H          -1.5557    2.9244   -0.1012 H.spc      1 <1>        0.000
     18 H           0.2616    3.3973   -0.1332 H.spc      1 <1>        0.000
     19 H          -0.8047    1.0684   -1.5416 H.spc      1 <1>        0.000
     20 H          -0.8653    2.8321   -2.2401 H.spc      1 <1>        0.000
     21 H           1.5401    1.3613   -1.4857 H.spc      1 <1>        0.000
     22 H           0.7202    1.3906   -3.2150 H.spc      1 <1>        0.000
     23 H           1.1522    3.6882   -3.1387 H.spc      1 <1>        0.000
     24 H           2.4324    3.1750   -1.7547 H.spc      1 <1>        0.000
     25 H           3.5520    3.8954   -3.5714 H.spc      1 <1>        0.000
     26 H           2.4994    2.9145   -4.6776 H.spc      1 <1>        0.000
     27 H           4.3592    1.6888   -4.5044 H.spc      1 <1>        0.000
     28 H           3.2540    1.0133   -3.1316 H.spc      1 <1>        0.000
     29 H           5.8048    2.4748   -3.0733 H.spc      1 <1>        0.000
     30 H           5.2629    0.8476   -2.2952 H.spc      1 <1>        0.000
     31 H           5.7289    2.3155   -0.6204 H.spc      1 <1>        0.000
     32 H           4.7288    3.6404   -1.4575 H.spc      1 <1>        0.000
     33 H           4.4859    1.1837    0.8579 H.spc      1 <1>        0.000
     34 H           4.0191    3.0950    1.1261 H.spc      1 <1>        0.000
     35 H           2.3107    0.8133    1.4498 H.spc      1 <1>        0.000
     36 H           3.3943    1.4923    2.7681 H.spc      1 <1>        0.000
     37 H           2.0644    3.0951    3.1456 H.spc      1 <1>        0.000
     38 H           1.8647    3.4304    1.3158 H.spc      1 <1>        0.000
     39 H           0.3245    1.5267    2.9891 H.spc      1 <1>        0.000
     40 H          -0.1988    3.2201    2.4275 H.spc      1 <1>        0.000
@<TRIPOS>BOND
     1    5    6 1  
     2    6    7 1  
     3    7    8 1  
     4    1   14 1  
     5    4    5 1  
     6    3    4 1  
     7    2    3 1  
     8    1    2 1  
     9   13   14 1  
    10   12   13 1  
    11   11   12 1  
    12   10   11 1  
    13    9   10 1  
    14    8    9 1  
    15    1   15 1  
    16    1   16 1  
    17    2   17 1  
    18    2   18 1  
    19    3   19 1  
    20    3   20 1  
    21    4   21 1  
    22    4   22 1  
    23    5   23 1  
    24    5   24 1  
    25    6   25 1  
    26    6   26 1  
    27    7   27 1  
    28    7   28 1  
    29    8   29 1  
    30    8   30 1  
    31    9   31 1  
    32    9   32 1  
    33   11   33 1  
    34   11   34 1  
    35   12   35 1  
    36   12   36 1  
    37   13   37 1  
    38   13   38 1  
    39   14   39 1  
    40   14   40 1  
# Name:          frag4-414-53/48856 -- energy: -7.154534
# Creation time: Sat Jun  5 12:52:00 2010


@<TRIPOS>MOLECULE
frag4-414-53/48856 -- energy: -7.154534
   40    40     1     1     1
SMALL
USER_CHARGES


@<TRIPOS>ATOM
      1 C7         -0.4451    1.2914    0.8020 C.3        1 <1>        0.000
      2 C8         -0.5997    2.0930   -0.4737 C.3        1 <1>        0.000
      3 C9          0.5953    2.8545   -0.9683 C.3        1 <1>        0.000
      4 C10         0.5775    3.5563   -2.2934 C.3        1 <1>        0.000
      5 C11         1.4071    2.9029   -3.3406 C.3        1 <1>        0.000
      6 C12         2.8792    2.7194   -3.4556 C.3        1 <1>        0.000
      7 C13         3.4006    1.3925   -2.9908 C.3        1 <1>        0.000
      8 C14         4.7866    1.3600   -2.3880 C.3        1 <1>        0.000
      9 C15         5.1177    2.1535   -1.1400 C.3        1 <1>        0.000
     10 O3          4.2242    1.9409   -0.0869 O.3        1 <1>        0.000
     11 C16         3.8952    2.9046    0.7323 C.3        1 <1>        0.000
     12 C17         2.8078    2.9174    1.7280 C.3        1 <1>        0.000
     13 C18         1.9539    1.6647    1.7702 C.3        1 <1>        0.000
     14 C19         0.4483    1.7874    1.9264 C.3        1 <1>        0.000
     15 H          -1.4444    1.2875    1.2373 H.spc      1 <1>        0.000
     16 H           0.0245    0.3626    0.4781 H.spc      1 <1>        0.000
     17 H          -0.8228    1.3629   -1.2517 H.spc      1 <1>        0.000
     18 H          -1.3558    2.8470   -0.2546 H.spc      1 <1>        0.000
     19 H           0.7088    3.6624   -0.2454 H.spc      1 <1>        0.000
     20 H           1.3626    2.0895   -1.0872 H.spc      1 <1>        0.000
     21 H          -0.4532    3.5478   -2.6480 H.spc      1 <1>        0.000
     22 H           0.9872    4.5538   -2.1345 H.spc      1 <1>        0.000
     23 H           1.1020    1.8662   -3.1983 H.spc      1 <1>        0.000
     24 H           1.2419    3.5951   -4.1662 H.spc      1 <1>        0.000
     25 H           3.3377    3.4747   -2.8173 H.spc      1 <1>        0.000
     26 H           3.1201    2.7942   -4.5160 H.spc      1 <1>        0.000
     27 H           3.4540    0.7691   -3.8833 H.spc      1 <1>        0.000
     28 H           2.7269    1.0748   -2.1950 H.spc      1 <1>        0.000
     29 H           5.4185    1.8039   -3.1573 H.spc      1 <1>        0.000
     30 H           4.9159    0.3219   -2.0817 H.spc      1 <1>        0.000
     31 H           6.1031    1.8333   -0.8016 H.spc      1 <1>        0.000
     32 H           5.0674    3.2103   -1.4023 H.spc      1 <1>        0.000
     33 H           4.7720    2.9385    1.3790 H.spc      1 <1>        0.000
     34 H           3.5479    3.6650    0.0328 H.spc      1 <1>        0.000
     35 H           3.2808    3.0061    2.7060 H.spc      1 <1>        0.000
     36 H           2.1446    3.7385    1.4557 H.spc      1 <1>        0.000
     37 H           2.0929    1.2034    0.7925 H.spc      1 <1>        0.000
     38 H           2.2819    1.1376    2.6662 H.spc      1 <1>        0.000
     39 H           0.2004    1.1601    2.7827 H.spc      1 <1>        0.000
     40 H           0.2565    2.8586    1.9889 H.spc      1 <1>        0.000
@<TRIPOS>BOND
     1    5    6 1  
     2    6    7 1  
     3    7    8 1  
     4    1   14 1  
     5    4    5 1  
     6    3    4 1  
     7    2    3 1  
     8    1    2 1  
     9   13   14 1  
    10   12   13 1  
    11   11   12 1  
    12   10   11 1  
    13    9   10 1  
    14    8    9 1  
    15    1   15 1  
    16    1   16 1  
    17    2   17 1  
    18    2   18 1  
    19    3   19 1  
    20    3   20 1  
    21    4   21 1  
    22    4   22 1  
    23    5   23 1  
    24    5   24 1  
    25    6   25 1  
    26    6   26 1  
    27    7   27 1  
    28    7   28 1  
    29    8   29 1  
    30    8   30 1  
    31    9   31 1  
    32    9   32 1  
    33   11   33 1  
    34   11   34 1  
    35   12   35 1  
    36   12   36 1  
    37   13   37 1  
    38   13   38 1  
    39   14   39 1  
    40   14   40 1  
# Name:          frag4-414-53/48856 -- energy: -5.053109
# Creation time: Sat Jun  5 12:52:00 2010


@<TRIPOS>MOLECULE
frag4-414-53/48856 -- energy: -5.053109
   40    40     1     1     1
SMALL
USER_CHARGES


@<TRIPOS>ATOM
      1 C7         -0.6559    2.2337    1.0730 C.3        1 <1>        0.000
      2 C8         -0.5706    2.8624   -0.3013 C.3        1 <1>        0.000
      3 C9         -0.0390    1.9884   -1.4164 C.3        1 <1>        0.000
      4 C10         0.1976    2.5785   -2.7845 C.3        1 <1>        0.000
      5 C11         1.4046    1.9924   -3.4282 C.3        1 <1>        0.000
      6 C12         2.7021    2.6008   -3.8525 C.3        1 <1>        0.000
      7 C13         3.6290    2.9468   -2.7137 C.3        1 <1>        0.000
      8 C14         4.7529    1.9754   -2.4005 C.3        1 <1>        0.000
      9 C15         5.3234    1.9772   -0.9998 C.3        1 <1>        0.000
     10 O3          4.5082    2.4511    0.0429 O.3        1 <1>        0.000
     11 C16         4.0913    1.6455    0.9737 C.3        1 <1>        0.000
     12 C17         3.1953    1.9010    2.1216 C.3        1 <1>        0.000
     13 C18         1.8949    2.6048    1.7390 C.3        1 <1>        0.000
     14 C19         0.6147    1.7805    1.7683 C.3        1 <1>        0.000
     15 H          -1.0554    3.0207    1.7127 H.spc      1 <1>        0.000
     16 H          -1.2304    1.3195    0.9236 H.spc      1 <1>        0.000
     17 H          -1.5936    3.1155   -0.5798 H.spc      1 <1>        0.000
     18 H           0.1309    3.6916   -0.2092 H.spc      1 <1>        0.000
     19 H           0.9498    1.6812   -1.0759 H.spc      1 <1>        0.000
     20 H          -0.8159    1.2397   -1.5716 H.spc      1 <1>        0.000
     21 H          -0.6682    2.3603   -3.4097 H.spc      1 <1>        0.000
     22 H           0.3503    3.6523   -2.6763 H.spc      1 <1>        0.000
     23 H           1.7578    1.3620   -2.6121 H.spc      1 <1>        0.000
     24 H           0.9892    1.7498   -4.4063 H.spc      1 <1>        0.000
     25 H           2.4659    3.5321   -4.3674 H.spc      1 <1>        0.000
     26 H           3.2149    1.8633   -4.4699 H.spc      1 <1>        0.000
     27 H           3.0022    2.9657   -1.8222 H.spc      1 <1>        0.000
     28 H           4.1186    3.8753   -3.0073 H.spc      1 <1>        0.000
     29 H           5.5781    2.2692   -3.0492 H.spc      1 <1>        0.000
     30 H           4.3234    0.9828   -2.5365 H.spc      1 <1>        0.000
     31 H           5.5159    0.9305   -0.7641 H.spc      1 <1>        0.000
     32 H           6.1742    2.6577   -1.0345 H.spc      1 <1>        0.000
     33 H           3.4659    0.9748    0.3845 H.spc      1 <1>        0.000
     34 H           5.0276    1.4522    1.4972 H.spc      1 <1>        0.000
     35 H           2.9296    0.9344    2.5497 H.spc      1 <1>        0.000
     36 H           3.7285    2.5537    2.8129 H.spc      1 <1>        0.000
     37 H           1.7559    3.3893    2.4829 H.spc      1 <1>        0.000
     38 H           2.0221    2.9126    0.7011 H.spc      1 <1>        0.000
     39 H           0.8861    0.8701    1.2340 H.spc      1 <1>        0.000
     40 H           0.3395    1.7755    2.8230 H.spc      1 <1>        0.000
@<TRIPOS>BOND
     1    5    6 1  
     2    6    7 1  
     3    7    8 1  
     4    1   14 1  
     5    4    5 1  
     6    3    4 1  
     7    2    3 1  
     8    1    2 1  
     9   13   14 1  
    10   12   13 1  
    11   11   12 1  
    12   10   11 1  
    13    9   10 1  
    14    8    9 1  
    15    1   15 1  
    16    1   16 1  
    17    2   17 1  
    18    2   18 1  
    19    3   19 1  
    20    3   20 1  
    21    4   21 1  
    22    4   22 1  
    23    5   23 1  
    24    5   24 1  
    25    6   25 1  
    26    6   26 1  
    27    7   27 1  
    28    7   28 1  
    29    8   29 1  
    30    8   30 1  
    31    9   31 1  
    32    9   32 1  
    33   11   33 1  
    34   11   34 1  
    35   12   35 1  
    36   12   36 1  
    37   13   37 1  
    38   13   38 1  
    39   14   39 1  
    40   14   40 1  
# Name:          frag4-414-53/48856 -- energy: -5.858646
# Creation time: Sat Jun  5 12:52:00 2010


@<TRIPOS>MOLECULE
frag4-414-53/48856 -- energy: -5.858646
   40    40     1     1     1
SMALL
USER_CHARGES


@<TRIPOS>ATOM
      1 C7         -0.4409    2.7759    1.0260 C.3        1 <1>        0.000
      2 C8         -0.5716    2.0244   -0.2821 C.3        1 <1>        0.000
      3 C9          0.5478    2.2090   -1.2752 C.3        1 <1>        0.000
      4 C10         0.2912    2.6632   -2.6785 C.3        1 <1>        0.000
      5 C11         1.5653    2.8851   -3.4101 C.3        1 <1>        0.000
      6 C12         2.5871    1.9506   -3.9551 C.3        1 <1>        0.000
      7 C13         3.7508    1.6375   -3.0393 C.3        1 <1>        0.000
      8 C14         4.5763    2.7287   -2.3916 C.3        1 <1>        0.000
      9 C15         5.0043    2.5104   -0.9523 C.3        1 <1>        0.000
     10 O3          3.9755    2.5846    0.0102 O.3        1 <1>        0.000
     11 C16         4.0672    1.8138    1.0805 C.3        1 <1>        0.000
     12 C17         3.1220    1.4656    2.1607 C.3        1 <1>        0.000
     13 C18         1.6596    1.4894    1.8250 C.3        1 <1>        0.000
     14 C19         0.9140    2.8003    1.7033 C.3        1 <1>        0.000
     15 H          -0.6608    3.8157    0.7841 H.spc      1 <1>        0.000
     16 H          -1.1017    2.2595    1.7222 H.spc      1 <1>        0.000
     17 H          -0.5760    0.9654   -0.0240 H.spc      1 <1>        0.000
     18 H          -1.4705    2.4090   -0.7639 H.spc      1 <1>        0.000
     19 H           1.1412    3.0170   -0.8473 H.spc      1 <1>        0.000
     20 H           0.9505    1.2037   -1.3993 H.spc      1 <1>        0.000
     21 H          -0.2786    1.8916   -3.1963 H.spc      1 <1>        0.000
     22 H          -0.2605    3.6027   -2.6457 H.spc      1 <1>        0.000
     23 H           1.1662    3.2762   -4.3459 H.spc      1 <1>        0.000
     24 H           2.1506    3.3413   -2.6117 H.spc      1 <1>        0.000
     25 H           3.0101    2.4366   -4.8343 H.spc      1 <1>        0.000
     26 H           2.0745    1.0056   -4.1346 H.spc      1 <1>        0.000
     27 H           4.4618    1.1308   -3.6918 H.spc      1 <1>        0.000
     28 H           3.2834    1.1330   -2.1936 H.spc      1 <1>        0.000
     29 H           3.9410    3.6143   -2.3809 H.spc      1 <1>        0.000
     30 H           5.4985    2.7856   -2.9698 H.spc      1 <1>        0.000
     31 H           5.4038    1.4976   -0.8994 H.spc      1 <1>        0.000
     32 H           5.7071    3.3090   -0.7149 H.spc      1 <1>        0.000
     33 H           4.1303    0.8434    0.5882 H.spc      1 <1>        0.000
     34 H           4.7773    2.4058    1.6580 H.spc      1 <1>        0.000
     35 H           3.3473    0.4338    2.4305 H.spc      1 <1>        0.000
     36 H           3.2613    2.2231    2.9320 H.spc      1 <1>        0.000
     37 H           1.6095    1.0610    0.8240 H.spc      1 <1>        0.000
     38 H           1.1846    0.9907    2.6699 H.spc      1 <1>        0.000
     39 H           0.7242    3.1253    2.7263 H.spc      1 <1>        0.000
     40 H           1.5415    3.4373    1.0800 H.spc      1 <1>        0.000
@<TRIPOS>BOND
     1    5    6 1  
     2    6    7 1  
     3    7    8 1  
     4    1   14 1  
     5    4    5 1  
     6    3    4 1  
     7    2    3 1  
     8    1    2 1  
     9   13   14 1  
    10   12   13 1  
    11   11   12 1  
    12   10   11 1  
    13    9   10 1  
    14    8    9 1  
    15    1   15 1  
    16    1   16 1  
    17    2   17 1  
    18    2   18 1  
    19    3   19 1  
    20    3   20 1  
    21    4   21 1  
    22    4   22 1  
    23    5   23 1  
    24    5   24 1  
    25    6   25 1  
    26    6   26 1  
    27    7   27 1  
    28    7   28 1  
    29    8   29 1  
    30    8   30 1  
    31    9   31 1  
    32    9   32 1  
    33   11   33 1  
    34   11   34 1  
    35   12   35 1  
    36   12   36 1  
    37   13   37 1  
    38   13   38 1  
    39   14   39 1  
    40   14   40 1  
# Name:          frag4-414-53/48856 -- energy: -6.456797
# Creation time: Sat Jun  5 12:52:00 2010


@<TRIPOS>MOLECULE
frag4-414-53/48856 -- energy: -6.456797
   40    40     1     1     1
SMALL
USER_CHARGES


@<TRIPOS>ATOM
      1 C7         -0.3130    1.6079    1.1707 C.3        1 <1>        0.000
      2 C8         -0.6672    1.9295   -0.2718 C.3        1 <1>        0.000
      3 C9          0.3533    2.5171   -1.2081 C.3        1 <1>        0.000
      4 C10         0.1787    2.5402   -2.6972 C.3        1 <1>        0.000
      5 C11         1.4339    2.7746   -3.4635 C.3        1 <1>        0.000
      6 C12         2.7272    2.0519   -3.4176 C.3        1 <1>        0.000
      7 C13         3.9346    2.8942   -3.1139 C.3        1 <1>        0.000
      8 C14         5.1200    2.1685   -2.5357 C.3        1 <1>        0.000
      9 C15         5.1171    1.7799   -1.0666 C.3        1 <1>        0.000
     10 O3          4.0749    2.2495   -0.2483 O.3        1 <1>        0.000
     11 C16         3.9052    1.6699    0.9177 C.3        1 <1>        0.000
     12 C17         2.8717    1.8091    1.9543 C.3        1 <1>        0.000
     13 C18         1.8824    2.9258    1.7759 C.3        1 <1>        0.000
     14 C19         0.4297    2.6202    2.0255 C.3        1 <1>        0.000
     15 H          -1.2777    1.4949    1.6654 H.spc      1 <1>        0.000
     16 H           0.3727    0.7638    1.0972 H.spc      1 <1>        0.000
     17 H          -0.8993    0.9586   -0.7096 H.spc      1 <1>        0.000
     18 H          -1.4285    2.7053   -0.1902 H.spc      1 <1>        0.000
     19 H           0.3542    3.5742   -0.9421 H.spc      1 <1>        0.000
     20 H           1.2187    1.8690   -1.0700 H.spc      1 <1>        0.000
     21 H          -0.1946    1.5587   -2.9895 H.spc      1 <1>        0.000
     22 H          -0.4937    3.3669   -2.9264 H.spc      1 <1>        0.000
     23 H           1.1005    2.5135   -4.4679 H.spc      1 <1>        0.000
     24 H           1.7350    3.7387   -3.0538 H.spc      1 <1>        0.000
     25 H           2.8837    1.6359   -4.4129 H.spc      1 <1>        0.000
     26 H           2.6463    1.3257   -2.6088 H.spc      1 <1>        0.000
     27 H           3.6212    3.6162   -2.3599 H.spc      1 <1>        0.000
     28 H           4.2652    3.3084   -4.0664 H.spc      1 <1>        0.000
     29 H           5.9484    2.8700   -2.6343 H.spc      1 <1>        0.000
     30 H           5.1520    1.2202   -3.0722 H.spc      1 <1>        0.000
     31 H           5.0165    0.6946   -1.0600 H.spc      1 <1>        0.000
     32 H           6.0237    2.2224   -0.6539 H.spc      1 <1>        0.000
     33 H           3.6834    0.6571    0.5814 H.spc      1 <1>        0.000
     34 H           4.7522    2.0984    1.4534 H.spc      1 <1>        0.000
     35 H           2.2915    0.8868    1.9253 H.spc      1 <1>        0.000
     36 H           3.4034    2.0245    2.8811 H.spc      1 <1>        0.000
     37 H           2.1539    3.6772    2.5173 H.spc      1 <1>        0.000
     38 H           1.9451    3.2057    0.7243 H.spc      1 <1>        0.000
     39 H           0.4187    2.1828    3.0238 H.spc      1 <1>        0.000
     40 H          -0.0782    3.5628    1.8213 H.spc      1 <1>        0.000
@<TRIPOS>BOND
     1    5    6 1  
     2    6    7 1  
     3    7    8 1  
     4    1   14 1  
     5    4    5 1  
     6    3    4 1  
     7    2    3 1  
     8    1    2 1  
     9   13   14 1  
    10   12   13 1  
    11   11   12 1  
    12   10   11 1  
    13    9   10 1  
    14    8    9 1  
    15    1   15 1  
    16    1   16 1  
    17    2   17 1  
    18    2   18 1  
    19    3   19 1  
    20    3   20 1  
    21    4   21 1  
    22    4   22 1  
    23    5   23 1  
    24    5   24 1  
    25    6   25 1  
    26    6   26 1  
    27    7   27 1  
    28    7   28 1  
    29    8   29 1  
    30    8   30 1  
    31    9   31 1  
    32    9   32 1  
    33   11   33 1  
    34   11   34 1  
    35   12   35 1  
    36   12   36 1  
    37   13   37 1  
    38   13   38 1  
    39   14   39 1  
    40   14   40 1  
# Name:          frag4-414-53/48856 -- energy: -6.731936
# Creation time: Sat Jun  5 12:52:00 2010


@<TRIPOS>MOLECULE
frag4-414-53/48856 -- energy: -6.731936
   40    40     1     1     1
SMALL
USER_CHARGES


@<TRIPOS>ATOM
      1 C7         -0.0869    2.2895    0.7967 C.3        1 <1>        0.000
      2 C8         -0.7750    1.8736   -0.4872 C.3        1 <1>        0.000
      3 C9          0.0896    1.8865   -1.7299 C.3        1 <1>        0.000
      4 C10         0.1725    3.1578   -2.5261 C.3        1 <1>        0.000
      5 C11         1.4530    3.2892   -3.2770 C.3        1 <1>        0.000
      6 C12         2.8600    3.1754   -2.8316 C.3        1 <1>        0.000
      7 C13         3.4178    1.7956   -3.0640 C.3        1 <1>        0.000
      8 C14         4.6163    1.2865   -2.3092 C.3        1 <1>        0.000
      9 C15         5.0948    1.9609   -1.0575 C.3        1 <1>        0.000
     10 O3          4.1968    1.8053    0.0397 O.3        1 <1>        0.000
     11 C16         3.9677    2.8415    0.8160 C.3        1 <1>        0.000
     12 C17         2.9599    3.0236    1.8948 C.3        1 <1>        0.000
     13 C18         2.1164    1.8062    2.2128 C.3        1 <1>        0.000
     14 C19         0.9655    1.3470    1.3442 C.3        1 <1>        0.000
     15 H           0.4337    3.2198    0.5694 H.spc      1 <1>        0.000
     16 H          -0.8695    2.3365    1.5539 H.spc      1 <1>        0.000
     17 H          -1.0955    0.8415   -0.3451 H.spc      1 <1>        0.000
     18 H          -1.5721    2.5971   -0.6584 H.spc      1 <1>        0.000
     19 H           1.1040    1.7034   -1.3755 H.spc      1 <1>        0.000
     20 H          -0.3624    1.1565   -2.4014 H.spc      1 <1>        0.000
     21 H          -0.6401    3.1493   -3.2525 H.spc      1 <1>        0.000
     22 H           0.1087    3.9926   -1.8281 H.spc      1 <1>        0.000
     23 H           1.3872    2.4066   -3.9132 H.spc      1 <1>        0.000
     24 H           1.4193    4.3517   -3.5180 H.spc      1 <1>        0.000
     25 H           2.8957    3.3809   -1.7617 H.spc      1 <1>        0.000
     26 H           3.4567    3.8845   -3.4053 H.spc      1 <1>        0.000
     27 H           3.7591    1.8266   -4.0987 H.spc      1 <1>        0.000
     28 H           2.6121    1.1348   -2.7441 H.spc      1 <1>        0.000
     29 H           5.4414    1.4185   -3.0091 H.spc      1 <1>        0.000
     30 H           4.3115    0.2958   -1.9722 H.spc      1 <1>        0.000
     31 H           6.0435    1.5036   -0.7766 H.spc      1 <1>        0.000
     32 H           5.1800    3.0271   -1.2674 H.spc      1 <1>        0.000
     33 H           4.8858    2.8514    1.4035 H.spc      1 <1>        0.000
     34 H           3.5982    3.5571    0.0815 H.spc      1 <1>        0.000
     35 H           3.5160    3.2610    2.8017 H.spc      1 <1>        0.000
     36 H           2.2723    3.7957    1.5496 H.spc      1 <1>        0.000
     37 H           2.8286    0.9848    2.1337 H.spc      1 <1>        0.000
     38 H           1.6263    2.0824    3.1464 H.spc      1 <1>        0.000
     39 H           1.4640    0.9844    0.4452 H.spc      1 <1>        0.000
     40 H           0.3951    0.7008    2.0114 H.spc      1 <1>        0.000
@<TRIPOS>BOND
     1    5    6 1  
     2    6    7 1  
     3    7    8 1  
     4    1   14 1  
     5    4    5 1  
     6    3    4 1  
     7    2    3 1  
     8    1    2 1  
     9   13   14 1  
    10   12   13 1  
    11   11   12 1  
    12   10   11 1  
    13    9   10 1  
    14    8    9 1  
    15    1   15 1  
    16    1   16 1  
    17    2   17 1  
    18    2   18 1  
    19    3   19 1  
    20    3   20 1  
    21    4   21 1  
    22    4   22 1  
    23    5   23 1  
    24    5   24 1  
    25    6   25 1  
    26    6   26 1  
    27    7   27 1  
    28    7   28 1  
    29    8   29 1  
    30    8   30 1  
    31    9   31 1  
    32    9   32 1  
    33   11   33 1  
    34   11   34 1  
    35   12   35 1  
    36   12   36 1  
    37   13   37 1  
    38   13   38 1  
    39   14   39 1  
    40   14   40 1  
# Name:          frag4-414-53/48856 -- energy: -6.022782
# Creation time: Sat Jun  5 12:52:00 2010


@<TRIPOS>MOLECULE
frag4-414-53/48856 -- energy: -6.022782
   40    40     1     1     1
SMALL
USER_CHARGES


@<TRIPOS>ATOM
      1 C7          0.4588    2.9121    0.5130 C.3        1 <1>        0.000
      2 C8         -0.5182    3.0475   -0.6356 C.3        1 <1>        0.000
      3 C9         -0.6959    1.8833   -1.6219 C.3        1 <1>        0.000
      4 C10         0.2435    1.5071   -2.7436 C.3        1 <1>        0.000
      5 C11         1.1362    2.5995   -3.1739 C.3        1 <1>        0.000
      6 C12         2.3660    3.1909   -2.5834 C.3        1 <1>        0.000
      7 C13         3.6739    2.6118   -3.0066 C.3        1 <1>        0.000
      8 C14         4.4514    1.6889   -2.1178 C.3        1 <1>        0.000
      9 C15         5.2698    2.2444   -0.9733 C.3        1 <1>        0.000
     10 O3          4.5650    2.8069    0.1093 O.3        1 <1>        0.000
     11 C16         4.0778    1.9670    0.9754 C.3        1 <1>        0.000
     12 C17         3.1756    2.1680    2.1253 C.3        1 <1>        0.000
     13 C18         1.8910    1.3729    2.0611 C.3        1 <1>        0.000
     14 C19         0.9537    1.5382    0.8938 C.3        1 <1>        0.000
     15 H           1.3490    3.4518    0.1898 H.spc      1 <1>        0.000
     16 H          -0.0854    3.2672    1.3881 H.spc      1 <1>        0.000
     17 H          -1.4920    3.1554   -0.1580 H.spc      1 <1>        0.000
     18 H          -0.1217    3.8631   -1.2403 H.spc      1 <1>        0.000
     19 H          -0.6108    1.0195   -0.9626 H.spc      1 <1>        0.000
     20 H          -1.5848    2.1925   -2.1717 H.spc      1 <1>        0.000
     21 H           0.8765    0.6992   -2.3766 H.spc      1 <1>        0.000
     22 H          -0.3714    1.2363   -3.6019 H.spc      1 <1>        0.000
     23 H           1.5736    2.1308   -4.0555 H.spc      1 <1>        0.000
     24 H           0.4570    3.4420   -3.0432 H.spc      1 <1>        0.000
     25 H           2.2956    3.0090   -1.5110 H.spc      1 <1>        0.000
     26 H           2.3822    4.2295   -2.9137 H.spc      1 <1>        0.000
     27 H           4.3222    3.4824   -3.1056 H.spc      1 <1>        0.000
     28 H           3.4159    1.9892   -3.8633 H.spc      1 <1>        0.000
     29 H           5.1869    1.2315   -2.7796 H.spc      1 <1>        0.000
     30 H           3.6917    1.0748   -1.6343 H.spc      1 <1>        0.000
     31 H           5.8165    1.3960   -0.5615 H.spc      1 <1>        0.000
     32 H           5.8581    3.0579   -1.3979 H.spc      1 <1>        0.000
     33 H           3.4223    1.3887    0.3243 H.spc      1 <1>        0.000
     34 H           4.9918    1.6932    1.5025 H.spc      1 <1>        0.000
     35 H           3.7124    1.8355    3.0138 H.spc      1 <1>        0.000
     36 H           2.8982    3.2221    2.1326 H.spc      1 <1>        0.000
     37 H           2.2182    0.3350    2.0003 H.spc      1 <1>        0.000
     38 H           1.3161    1.7181    2.9204 H.spc      1 <1>        0.000
     39 H           1.5318    1.2077    0.0309 H.spc      1 <1>        0.000
     40 H           0.0547    0.9960    1.1870 H.spc      1 <1>        0.000
@<TRIPOS>BOND
     1    5    6 1  
     2    6    7 1  
     3    7    8 1  
     4    1   14 1  
     5    4    5 1  
     6    3    4 1  
     7    2    3 1  
     8    1    2 1  
     9   13   14 1  
    10   12   13 1  
    11   11   12 1  
    12   10   11 1  
    13    9   10 1  
    14    8    9 1  
    15    1   15 1  
    16    1   16 1  
    17    2   17 1  
    18    2   18 1  
    19    3   19 1  
    20    3   20 1  
    21    4   21 1  
    22    4   22 1  
    23    5   23 1  
    24    5   24 1  
    25    6   25 1  
    26    6   26 1  
    27    7   27 1  
    28    7   28 1  
    29    8   29 1  
    30    8   30 1  
    31    9   31 1  
    32    9   32 1  
    33   11   33 1  
    34   11   34 1  
    35   12   35 1  
    36   12   36 1  
    37   13   37 1  
    38   13   38 1  
    39   14   39 1  
    40   14   40 1  
# Name:          frag4-414-53/48856 -- energy: -6.710603
# Creation time: Sat Jun  5 12:52:00 2010


@<TRIPOS>MOLECULE
frag4-414-53/48856 -- energy: -6.710603
   40    40     1     1     1
SMALL
USER_CHARGES


@<TRIPOS>ATOM
      1 C7         -0.5714    2.2518    0.9387 C.3        1 <1>        0.000
      2 C8         -0.5636    2.7206   -0.4886 C.3        1 <1>        0.000
      3 C9         -0.2250    1.7232   -1.5753 C.3        1 <1>        0.000
      4 C10         0.0281    2.2869   -2.9515 C.3        1 <1>        0.000
      5 C11         1.3077    3.0397   -3.1003 C.3        1 <1>        0.000
      6 C12         2.6109    2.9298   -2.3916 C.3        1 <1>        0.000
      7 C13         3.6511    2.1222   -3.1100 C.3        1 <1>        0.000
      8 C14         4.9787    1.7625   -2.4677 C.3        1 <1>        0.000
      9 C15         5.3876    2.1874   -1.0661 C.3        1 <1>        0.000
     10 O3          4.3736    2.5322   -0.1542 O.3        1 <1>        0.000
     11 C16         4.2197    1.8386    0.9572 C.3        1 <1>        0.000
     12 C17         3.2309    1.9294    2.0493 C.3        1 <1>        0.000
     13 C18         1.9115    2.5581    1.6875 C.3        1 <1>        0.000
     14 C19         0.7087    1.6560    1.4943 C.3        1 <1>        0.000
     15 H          -0.7611    3.1431    1.5367 H.spc      1 <1>        0.000
     16 H          -1.3070    1.4483    0.9771 H.spc      1 <1>        0.000
     17 H          -1.5894    3.0271   -0.6931 H.spc      1 <1>        0.000
     18 H           0.2240    3.4726   -0.5369 H.spc      1 <1>        0.000
     19 H           0.7062    1.2470   -1.2683 H.spc      1 <1>        0.000
     20 H          -1.0952    1.0737   -1.6706 H.spc      1 <1>        0.000
     21 H           0.0815    1.4384   -3.6337 H.spc      1 <1>        0.000
     22 H          -0.7772    2.9927   -3.1550 H.spc      1 <1>        0.000
     23 H           1.6086    2.6929   -4.0889 H.spc      1 <1>        0.000
     24 H           0.9866    4.0169   -2.7397 H.spc      1 <1>        0.000
     25 H           2.4153    2.4246   -1.4458 H.spc      1 <1>        0.000
     26 H           3.0056    3.9413   -2.2961 H.spc      1 <1>        0.000
     27 H           3.9366    2.7598   -3.9467 H.spc      1 <1>        0.000
     28 H           3.1682    1.1561   -3.2565 H.spc      1 <1>        0.000
     29 H           5.6995    2.2846   -3.0970 H.spc      1 <1>        0.000
     30 H           4.9181    0.6776   -2.3819 H.spc      1 <1>        0.000
     31 H           5.8795    1.3162   -0.6334 H.spc      1 <1>        0.000
     32 H           5.9745    3.0960   -1.2007 H.spc      1 <1>        0.000
     33 H           3.9304    0.8778    0.5315 H.spc      1 <1>        0.000
     34 H           5.1120    2.1592    1.4948 H.spc      1 <1>        0.000
     35 H           3.0115    0.9055    2.3520 H.spc      1 <1>        0.000
     36 H           3.6753    2.5652    2.8150 H.spc      1 <1>        0.000
     37 H           1.6571    3.1942    2.5353 H.spc      1 <1>        0.000
     38 H           2.0756    3.0258    0.7167 H.spc      1 <1>        0.000
     39 H           1.0231    0.9216    0.7527 H.spc      1 <1>        0.000
     40 H           0.4490    1.3137    2.4960 H.spc      1 <1>        0.000
@<TRIPOS>BOND
     1    5    6 1  
     2    6    7 1  
     3    7    8 1  
     4    1   14 1  
     5    4    5 1  
     6    3    4 1  
     7    2    3 1  
     8    1    2 1  
     9   13   14 1  
    10   12   13 1  
    11   11   12 1  
    12   10   11 1  
    13    9   10 1  
    14    8    9 1  
    15    1   15 1  
    16    1   16 1  
    17    2   17 1  
    18    2   18 1  
    19    3   19 1  
    20    3   20 1  
    21    4   21 1  
    22    4   22 1  
    23    5   23 1  
    24    5   24 1  
    25    6   25 1  
    26    6   26 1  
    27    7   27 1  
    28    7   28 1  
    29    8   29 1  
    30    8   30 1  
    31    9   31 1  
    32    9   32 1  
    33   11   33 1  
    34   11   34 1  
    35   12   35 1  
    36   12   36 1  
    37   13   37 1  
    38   13   38 1  
    39   14   39 1  
    40   14   40 1  
# Name:          frag4-414-53/48856 -- energy: -6.854318
# Creation time: Sat Jun  5 12:52:00 2010


@<TRIPOS>MOLECULE
frag4-414-53/48856 -- energy: -6.854318
   40    40     1     1     1
SMALL
USER_CHARGES


@<TRIPOS>ATOM
      1 C7         -0.2213    2.1200    0.9150 C.3        1 <1>        0.000
      2 C8          0.2981    2.4828   -0.4560 C.3        1 <1>        0.000
      3 C9         -0.4305    2.1552   -1.7350 C.3        1 <1>        0.000
      4 C10         0.0755    2.8412   -2.9778 C.3        1 <1>        0.000
      5 C11         1.1407    2.1292   -3.7360 C.3        1 <1>        0.000
      6 C12         2.6307    2.2345   -3.7492 C.3        1 <1>        0.000
      7 C13         3.2778    2.2308   -2.3908 C.3        1 <1>        0.000
      8 C14         4.7796    2.3054   -2.2400 C.3        1 <1>        0.000
      9 C15         5.3646    2.4501   -0.8371 C.3        1 <1>        0.000
     10 O3          4.4823    2.5574    0.2569 O.3        1 <1>        0.000
     11 C16         4.0302    1.4794    0.8530 C.3        1 <1>        0.000
     12 C17         2.9049    1.3392    1.8171 C.3        1 <1>        0.000
     13 C18         2.1144    2.6182    1.9981 C.3        1 <1>        0.000
     14 C19         0.6017    2.5949    2.1033 C.3        1 <1>        0.000
     15 H          -1.1921    2.6070    1.0075 H.spc      1 <1>        0.000
     16 H          -0.2150    1.0310    0.9606 H.spc      1 <1>        0.000
     17 H           0.2874    3.5726   -0.4409 H.spc      1 <1>        0.000
     18 H           1.2103    1.8916   -0.5361 H.spc      1 <1>        0.000
     19 H          -0.2955    1.0861   -1.8990 H.spc      1 <1>        0.000
     20 H          -1.4581    2.4914   -1.5966 H.spc      1 <1>        0.000
     21 H          -0.7779    2.9174   -3.6516 H.spc      1 <1>        0.000
     22 H           0.5150    3.7825   -2.6477 H.spc      1 <1>        0.000
     23 H           1.0421    1.1418   -3.2850 H.spc      1 <1>        0.000
     24 H           0.9320    2.5185   -4.7325 H.spc      1 <1>        0.000
     25 H           2.8755    3.1901   -4.2129 H.spc      1 <1>        0.000
     26 H           3.0044    1.3584   -4.2792 H.spc      1 <1>        0.000
     27 H           3.0203    1.2548   -1.9794 H.spc      1 <1>        0.000
     28 H           2.9209    3.1503   -1.9269 H.spc      1 <1>        0.000
     29 H           5.0741    3.2132   -2.7666 H.spc      1 <1>        0.000
     30 H           5.1507    1.3481   -2.6061 H.spc      1 <1>        0.000
     31 H           5.9184    1.5272   -0.6647 H.spc      1 <1>        0.000
     32 H           5.9107    3.3933   -0.8540 H.spc      1 <1>        0.000
     33 H           3.6326    0.9302   -0.0004 H.spc      1 <1>        0.000
     34 H           4.8763    1.2358    1.4956 H.spc      1 <1>        0.000
     35 H           2.2253    0.5826    1.4250 H.spc      1 <1>        0.000
     36 H           3.3294    1.0726    2.7850 H.spc      1 <1>        0.000
     37 H           2.4405    2.9949    2.9676 H.spc      1 <1>        0.000
     38 H           2.3066    3.1788    1.0833 H.spc      1 <1>        0.000
     39 H           0.3892    1.8752    2.8939 H.spc      1 <1>        0.000
     40 H           0.3166    3.6381    2.2397 H.spc      1 <1>        0.000
@<TRIPOS>BOND
     1    5    6 1  
     2    6    7 1  
     3    7    8 1  
     4    1   14 1  
     5    4    5 1  
     6    3    4 1  
     7    2    3 1  
     8    1    2 1  
     9   13   14 1  
    10   12   13 1  
    11   11   12 1  
    12   10   11 1  
    13    9   10 1  
    14    8    9 1  
    15    1   15 1  
    16    1   16 1  
    17    2   17 1  
    18    2   18 1  
    19    3   19 1  
    20    3   20 1  
    21    4   21 1  
    22    4   22 1  
    23    5   23 1  
    24    5   24 1  
    25    6   25 1  
    26    6   26 1  
    27    7   27 1  
    28    7   28 1  
    29    8   29 1  
    30    8   30 1  
    31    9   31 1  
    32    9   32 1  
    33   11   33 1  
    34   11   34 1  
    35   12   35 1  
    36   12   36 1  
    37   13   37 1  
    38   13   38 1  
    39   14   39 1  
    40   14   40 1  
# Name:          frag4-414-53/48856 -- energy: -6.218416
# Creation time: Sat Jun  5 12:52:00 2010


@<TRIPOS>MOLECULE
frag4-414-53/48856 -- energy: -6.218416
   40    40     1     1     1
SMALL
USER_CHARGES


@<TRIPOS>ATOM
      1 C7         -0.4075    1.5681    0.7219 C.3        1 <1>        0.000
      2 C8         -0.7927    2.6828   -0.2577 C.3        1 <1>        0.000
      3 C9         -0.6453    2.4902   -1.7557 C.3        1 <1>        0.000
      4 C10         0.3519    3.4009   -2.4417 C.3        1 <1>        0.000
      5 C11         1.4360    2.7040   -3.1841 C.3        1 <1>        0.000
      6 C12         2.4582    1.7071   -2.7343 C.3        1 <1>        0.000
      7 C13         3.8752    1.9763   -3.1769 C.3        1 <1>        0.000
      8 C14         4.9936    1.7574   -2.1706 C.3        1 <1>        0.000
      9 C15         5.1835    2.7848   -1.0743 C.3        1 <1>        0.000
     10 O3          4.2077    2.9192   -0.0848 O.3        1 <1>        0.000
     11 C16         4.1346    1.9852    0.8294 C.3        1 <1>        0.000
     12 C17         3.3467    1.9284    2.0763 C.3        1 <1>        0.000
     13 C18         1.8894    2.3273    1.8904 C.3        1 <1>        0.000
     14 C19         1.0170    1.3066    1.1837 C.3        1 <1>        0.000
     15 H          -0.9094    1.8689    1.6415 H.spc      1 <1>        0.000
     16 H          -0.6531    0.6623    0.1676 H.spc      1 <1>        0.000
     17 H          -1.8658    2.8054   -0.1108 H.spc      1 <1>        0.000
     18 H          -0.0994    3.4911   -0.0251 H.spc      1 <1>        0.000
     19 H          -0.2838    1.4723   -1.9013 H.spc      1 <1>        0.000
     20 H          -1.6185    2.7145   -2.1924 H.spc      1 <1>        0.000
     21 H          -0.2069    3.9824   -3.1749 H.spc      1 <1>        0.000
     22 H           0.8338    3.9855   -1.6580 H.spc      1 <1>        0.000
     23 H           0.8359    2.0718   -3.8385 H.spc      1 <1>        0.000
     24 H           2.0864    3.5513   -3.4013 H.spc      1 <1>        0.000
     25 H           2.1732    0.7524   -3.1765 H.spc      1 <1>        0.000
     26 H           2.4637    1.7414   -1.6449 H.spc      1 <1>        0.000
     27 H           3.9057    3.0395   -3.4151 H.spc      1 <1>        0.000
     28 H           4.0665    1.2645   -3.9799 H.spc      1 <1>        0.000
     29 H           5.9140    1.7868   -2.7538 H.spc      1 <1>        0.000
     30 H           4.7384    0.8316   -1.6550 H.spc      1 <1>        0.000
     31 H           6.0767    2.4597   -0.5409 H.spc      1 <1>        0.000
     32 H           5.1887    3.7445   -1.5911 H.spc      1 <1>        0.000
     33 H           3.6478    1.1947    0.2582 H.spc      1 <1>        0.000
     34 H           5.1424    2.0399    1.2411 H.spc      1 <1>        0.000
     35 H           3.3623    0.8967    2.4277 H.spc      1 <1>        0.000
     36 H           3.7927    2.6325    2.7787 H.spc      1 <1>        0.000
     37 H           1.4724    2.4529    2.8896 H.spc      1 <1>        0.000
     38 H           1.8897    3.2206    1.2657 H.spc      1 <1>        0.000
     39 H           1.5466    1.1520    0.2436 H.spc      1 <1>        0.000
     40 H           0.8821    0.5405    1.9472 H.spc      1 <1>        0.000
@<TRIPOS>BOND
     1    5    6 1  
     2    6    7 1  
     3    7    8 1  
     4    1   14 1  
     5    4    5 1  
     6    3    4 1  
     7    2    3 1  
     8    1    2 1  
     9   13   14 1  
    10   12   13 1  
    11   11   12 1  
    12   10   11 1  
    13    9   10 1  
    14    8    9 1  
    15    1   15 1  
    16    1   16 1  
    17    2   17 1  
    18    2   18 1  
    19    3   19 1  
    20    3   20 1  
    21    4   21 1  
    22    4   22 1  
    23    5   23 1  
    24    5   24 1  
    25    6   25 1  
    26    6   26 1  
    27    7   27 1  
    28    7   28 1  
    29    8   29 1  
    30    8   30 1  
    31    9   31 1  
    32    9   32 1  
    33   11   33 1  
    34   11   34 1  
    35   12   35 1  
    36   12   36 1  
    37   13   37 1  
    38   13   38 1  
    39   14   39 1  
    40   14   40 1  
# Name:          frag4-414-53/48856 -- energy: -5.524778
# Creation time: Sat Jun  5 12:52:00 2010


@<TRIPOS>MOLECULE
frag4-414-53/48856 -- energy: -5.524778
   40    40     1     1     1
SMALL
USER_CHARGES


@<TRIPOS>ATOM
      1 C7         -0.4782    2.8120    1.0951 C.3        1 <1>        0.000
      2 C8         -0.3341    3.1505   -0.3820 C.3        1 <1>        0.000
      3 C9         -0.5210    2.0632   -1.4212 C.3        1 <1>        0.000
      4 C10         0.0261    2.2987   -2.8033 C.3        1 <1>        0.000
      5 C11         1.4979    2.5565   -2.8578 C.3        1 <1>        0.000
      6 C12         2.6696    1.6364   -2.7912 C.3        1 <1>        0.000
      7 C13         3.9769    2.1631   -3.3126 C.3        1 <1>        0.000
      8 C14         4.9176    2.9692   -2.4333 C.3        1 <1>        0.000
      9 C15         5.2927    2.5132   -1.0272 C.3        1 <1>        0.000
     10 O3          4.2667    2.5182   -0.0616 O.3        1 <1>        0.000
     11 C16         4.2752    1.7568    0.9965 C.3        1 <1>        0.000
     12 C17         3.1320    1.4842    1.9099 C.3        1 <1>        0.000
     13 C18         1.8632    1.8320    1.1895 C.3        1 <1>        0.000
     14 C19         0.4639    1.7844    1.7207 C.3        1 <1>        0.000
     15 H          -0.2607    3.7438    1.6172 H.spc      1 <1>        0.000
     16 H          -1.4709    2.3708    1.1845 H.spc      1 <1>        0.000
     17 H          -1.1349    3.8627   -0.5810 H.spc      1 <1>        0.000
     18 H           0.7043    3.4627   -0.4933 H.spc      1 <1>        0.000
     19 H           0.0267    1.2022   -1.0381 H.spc      1 <1>        0.000
     20 H          -1.5994    1.9717   -1.5507 H.spc      1 <1>        0.000
     21 H          -0.1580    1.3899   -3.3763 H.spc      1 <1>        0.000
     22 H          -0.4665    3.1901   -3.1916 H.spc      1 <1>        0.000
     23 H           1.5865    2.8900   -3.8917 H.spc      1 <1>        0.000
     24 H           1.6259    3.0835   -1.9123 H.spc      1 <1>        0.000
     25 H           2.4172    0.7849   -3.4231 H.spc      1 <1>        0.000
     26 H           2.8302    1.4333   -1.7324 H.spc      1 <1>        0.000
     27 H           3.6813    2.8673   -4.0903 H.spc      1 <1>        0.000
     28 H           4.5458    1.2626   -3.5440 H.spc      1 <1>        0.000
     29 H           4.3786    3.9018   -2.2665 H.spc      1 <1>        0.000
     30 H           5.8635    2.9409   -2.9742 H.spc      1 <1>        0.000
     31 H           5.6069    1.4740   -1.1240 H.spc      1 <1>        0.000
     32 H           6.0403    3.2226   -0.6725 H.spc      1 <1>        0.000
     33 H           4.4417    0.7737    0.5563 H.spc      1 <1>        0.000
     34 H           4.9530    2.3029    1.6526 H.spc      1 <1>        0.000
     35 H           3.1239    0.4326    2.1965 H.spc      1 <1>        0.000
     36 H           3.2249    2.0834    2.8157 H.spc      1 <1>        0.000
     37 H           1.9944    2.9031    1.0361 H.spc      1 <1>        0.000
     38 H           1.8285    1.0483    0.4328 H.spc      1 <1>        0.000
     39 H           0.0644    0.7975    1.4872 H.spc      1 <1>        0.000
     40 H           0.5169    2.0036    2.7871 H.spc      1 <1>        0.000
@<TRIPOS>BOND
     1    5    6 1  
     2    6    7 1  
     3    7    8 1  
     4    1   14 1  
     5    4    5 1  
     6    3    4 1  
     7    2    3 1  
     8    1    2 1  
     9   13   14 1  
    10   12   13 1  
    11   11   12 1  
    12   10   11 1  
    13    9   10 1  
    14    8    9 1  
    15    1   15 1  
    16    1   16 1  
    17    2   17 1  
    18    2   18 1  
    19    3   19 1  
    20    3   20 1  
    21    4   21 1  
    22    4   22 1  
    23    5   23 1  
    24    5   24 1  
    25    6   25 1  
    26    6   26 1  
    27    7   27 1  
    28    7   28 1  
    29    8   29 1  
    30    8   30 1  
    31    9   31 1  
    32    9   32 1  
    33   11   33 1  
    34   11   34 1  
    35   12   35 1  
    36   12   36 1  
    37   13   37 1  
    38   13   38 1  
    39   14   39 1  
    40   14   40 1  
# Name:          frag4-414-53/48856 -- energy: -6.195215
# Creation time: Sat Jun  5 12:52:00 2010


@<TRIPOS>MOLECULE
frag4-414-53/48856 -- energy: -6.195215
   40    40     1     1     1
SMALL
USER_CHARGES


@<TRIPOS>ATOM
      1 C7         -0.6001    1.5021    1.0359 C.3        1 <1>        0.000
      2 C8         -0.9088    2.0633   -0.3357 C.3        1 <1>        0.000
      3 C9          0.1060    1.9776   -1.4402 C.3        1 <1>        0.000
      4 C10         0.2155    3.1133   -2.4063 C.3        1 <1>        0.000
      5 C11         1.4371    3.1034   -3.2732 C.3        1 <1>        0.000
      6 C12         2.8778    3.1666   -2.9503 C.3        1 <1>        0.000
      7 C13         3.4351    1.7755   -2.7794 C.3        1 <1>        0.000
      8 C14         4.8850    1.5296   -2.4798 C.3        1 <1>        0.000
      9 C15         5.3369    1.5156   -1.0341 C.3        1 <1>        0.000
     10 O3          4.7708    2.4691   -0.1605 O.3        1 <1>        0.000
     11 C16         3.9696    2.0642    0.7840 C.3        1 <1>        0.000
     12 C17         3.1294    2.8384    1.7199 C.3        1 <1>        0.000
     13 C18         1.6126    2.8382    1.4848 C.3        1 <1>        0.000
     14 C19         0.7818    1.5815    1.6565 C.3        1 <1>        0.000
     15 H          -1.2110    2.1120    1.7014 H.spc      1 <1>        0.000
     16 H          -0.7599    0.4310    0.9121 H.spc      1 <1>        0.000
     17 H          -1.7441    1.4598   -0.6910 H.spc      1 <1>        0.000
     18 H          -1.0321    3.1330   -0.1667 H.spc      1 <1>        0.000
     19 H           1.0713    1.9420   -0.9351 H.spc      1 <1>        0.000
     20 H          -0.2028    1.1230   -2.0422 H.spc      1 <1>        0.000
     21 H          -0.6417    3.0368   -3.0753 H.spc      1 <1>        0.000
     22 H           0.2636    4.0250   -1.8109 H.spc      1 <1>        0.000
     23 H           1.3814    2.0830   -3.6524 H.spc      1 <1>        0.000
     24 H           1.3190    4.0700   -3.7630 H.spc      1 <1>        0.000
     25 H           3.0111    3.7209   -2.0213 H.spc      1 <1>        0.000
     26 H           3.4044    3.6642   -3.7647 H.spc      1 <1>        0.000
     27 H           3.2962    1.3220   -3.7608 H.spc      1 <1>        0.000
     28 H           2.9237    1.4023   -1.8921 H.spc      1 <1>        0.000
     29 H           5.4141    2.3674   -2.9339 H.spc      1 <1>        0.000
     30 H           5.0837    0.5233   -2.8484 H.spc      1 <1>        0.000
     31 H           5.0329    0.5447   -0.6428 H.spc      1 <1>        0.000
     32 H           6.4032    1.7402   -1.0596 H.spc      1 <1>        0.000
     33 H           3.1970    1.5797    0.1869 H.spc      1 <1>        0.000
     34 H           4.6921    1.6386    1.4804 H.spc      1 <1>        0.000
     35 H           3.2734    2.3724    2.6947 H.spc      1 <1>        0.000
     36 H           3.4424    3.8759    1.6028 H.spc      1 <1>        0.000
     37 H           1.2308    3.5087    2.2547 H.spc      1 <1>        0.000
     38 H           1.5145    3.0710    0.4245 H.spc      1 <1>        0.000
     39 H           1.3543    0.8029    1.1524 H.spc      1 <1>        0.000
     40 H           0.6050    1.5138    2.7299 H.spc      1 <1>        0.000
@<TRIPOS>BOND
     1    5    6 1  
     2    6    7 1  
     3    7    8 1  
     4    1   14 1  
     5    4    5 1  
     6    3    4 1  
     7    2    3 1  
     8    1    2 1  
     9   13   14 1  
    10   12   13 1  
    11   11   12 1  
    12   10   11 1  
    13    9   10 1  
    14    8    9 1  
    15    1   15 1  
    16    1   16 1  
    17    2   17 1  
    18    2   18 1  
    19    3   19 1  
    20    3   20 1  
    21    4   21 1  
    22    4   22 1  
    23    5   23 1  
    24    5   24 1  
    25    6   25 1  
    26    6   26 1  
    27    7   27 1  
    28    7   28 1  
    29    8   29 1  
    30    8   30 1  
    31    9   31 1  
    32    9   32 1  
    33   11   33 1  
    34   11   34 1  
    35   12   35 1  
    36   12   36 1  
    37   13   37 1  
    38   13   38 1  
    39   14   39 1  
    40   14   40 1  
# Name:          frag4-414-53/48856 -- energy: -5.891851
# Creation time: Sat Jun  5 12:52:00 2010


@<TRIPOS>MOLECULE
frag4-414-53/48856 -- energy: -5.891851
   40    40     1     1     1
SMALL
USER_CHARGES


@<TRIPOS>ATOM
      1 C7         -0.4685    1.7406    0.9653 C.3        1 <1>        0.000
      2 C8         -0.8878    2.2604   -0.3902 C.3        1 <1>        0.000
      3 C9          0.0755    2.0165   -1.5260 C.3        1 <1>        0.000
      4 C10         0.8208    3.1830   -2.1211 C.3        1 <1>        0.000
      5 C11         1.3338    2.8647   -3.4798 C.3        1 <1>        0.000
      6 C12         2.6681    2.4691   -3.9973 C.3        1 <1>        0.000
      7 C13         3.5549    1.8182   -2.9689 C.3        1 <1>        0.000
      8 C14         4.7244    2.4803   -2.2659 C.3        1 <1>        0.000
      9 C15         5.1560    1.7419   -1.0143 C.3        1 <1>        0.000
     10 O3          4.2045    1.6299    0.0252 O.3        1 <1>        0.000
     11 C16         4.0787    2.5355    0.9570 C.3        1 <1>        0.000
     12 C17         3.1699    2.5757    2.1319 C.3        1 <1>        0.000
     13 C18         1.9265    1.7269    1.9439 C.3        1 <1>        0.000
     14 C19         0.6916    2.4957    1.5618 C.3        1 <1>        0.000
     15 H          -1.3176    1.8560    1.6390 H.spc      1 <1>        0.000
     16 H          -0.1559    0.7042    0.8380 H.spc      1 <1>        0.000
     17 H          -1.8038    1.7294   -0.6493 H.spc      1 <1>        0.000
     18 H          -0.9700    3.3425   -0.2886 H.spc      1 <1>        0.000
     19 H           0.8501    1.3771   -1.1026 H.spc      1 <1>        0.000
     20 H          -0.5425    1.6359   -2.3392 H.spc      1 <1>        0.000
     21 H           0.1357    4.0272   -2.1993 H.spc      1 <1>        0.000
     22 H           1.6689    3.4160   -1.4773 H.spc      1 <1>        0.000
     23 H           0.8000    1.9297   -3.6498 H.spc      1 <1>        0.000
     24 H           1.2642    3.8568   -3.9260 H.spc      1 <1>        0.000
     25 H           3.1696    3.3787   -4.3278 H.spc      1 <1>        0.000
     26 H           2.5042    1.7403   -4.7910 H.spc      1 <1>        0.000
     27 H           4.0498    1.0424   -3.5531 H.spc      1 <1>        0.000
     28 H           2.8614    1.6471   -2.1456 H.spc      1 <1>        0.000
     29 H           4.4112    3.4816   -1.9701 H.spc      1 <1>        0.000
     30 H           5.5678    2.4858   -2.9564 H.spc      1 <1>        0.000
     31 H           5.3726    0.7215   -1.3306 H.spc      1 <1>        0.000
     32 H           5.9834    2.3177   -0.5996 H.spc      1 <1>        0.000
     33 H           5.0413    2.4346    1.4583 H.spc      1 <1>        0.000
     34 H           3.6777    3.3631    0.3718 H.spc      1 <1>        0.000
     35 H           3.7158    2.1822    2.9894 H.spc      1 <1>        0.000
     36 H           2.8507    3.6085    2.2714 H.spc      1 <1>        0.000
     37 H           2.1350    1.0358    1.1272 H.spc      1 <1>        0.000
     38 H           1.7197    1.2510    2.9025 H.spc      1 <1>        0.000
     39 H           0.3125    2.9095    2.4962 H.spc      1 <1>        0.000
     40 H           1.0146    3.1852    0.7818 H.spc      1 <1>        0.000
@<TRIPOS>BOND
     1    5    6 1  
     2    6    7 1  
     3    7    8 1  
     4    1   14 1  
     5    4    5 1  
     6    3    4 1  
     7    2    3 1  
     8    1    2 1  
     9   13   14 1  
    10   12   13 1  
    11   11   12 1  
    12   10   11 1  
    13    9   10 1  
    14    8    9 1  
    15    1   15 1  
    16    1   16 1  
    17    2   17 1  
    18    2   18 1  
    19    3   19 1  
    20    3   20 1  
    21    4   21 1  
    22    4   22 1  
    23    5   23 1  
    24    5   24 1  
    25    6   25 1  
    26    6   26 1  
    27    7   27 1  
    28    7   28 1  
    29    8   29 1  
    30    8   30 1  
    31    9   31 1  
    32    9   32 1  
    33   11   33 1  
    34   11   34 1  
    35   12   35 1  
    36   12   36 1  
    37   13   37 1  
    38   13   38 1  
    39   14   39 1  
    40   14   40 1  
# Name:          frag4-414-53/48856 -- energy: -5.934720
# Creation time: Sat Jun  5 12:52:00 2010


@<TRIPOS>MOLECULE
frag4-414-53/48856 -- energy: -5.934720
   40    40     1     1     1
SMALL
USER_CHARGES


@<TRIPOS>ATOM
      1 C7         -0.5915    1.5730    0.8104 C.3        1 <1>        0.000
      2 C8         -0.7931    2.6524   -0.2455 C.3        1 <1>        0.000
      3 C9          0.3788    3.2680   -0.9946 C.3        1 <1>        0.000
      4 C10         0.5044    2.9517   -2.4653 C.3        1 <1>        0.000
      5 C11         1.9082    2.9449   -2.9461 C.3        1 <1>        0.000
      6 C12         2.7151    1.8610   -3.5718 C.3        1 <1>        0.000
      7 C13         3.5618    1.0374   -2.6367 C.3        1 <1>        0.000
      8 C14         4.8769    1.5780   -2.1169 C.3        1 <1>        0.000
      9 C15         4.9167    2.9017   -1.3842 C.3        1 <1>        0.000
     10 O3          3.9586    3.1144   -0.3792 O.3        1 <1>        0.000
     11 C16         4.0520    2.3813    0.6918 C.3        1 <1>        0.000
     12 C17         3.0996    2.2067    1.7992 C.3        1 <1>        0.000
     13 C18         1.9326    1.3233    1.4398 C.3        1 <1>        0.000
     14 C19         0.5285    1.7445    1.8208 C.3        1 <1>        0.000
     15 H          -1.5086    1.5772    1.3995 H.spc      1 <1>        0.000
     16 H          -0.3343    0.6733    0.2513 H.spc      1 <1>        0.000
     17 H          -1.3618    2.1470   -1.0261 H.spc      1 <1>        0.000
     18 H          -1.2085    3.4889    0.3164 H.spc      1 <1>        0.000
     19 H           0.2320    4.3465   -0.9365 H.spc      1 <1>        0.000
     20 H           1.2748    2.8590   -0.5276 H.spc      1 <1>        0.000
     21 H           0.0970    1.9532   -2.6236 H.spc      1 <1>        0.000
     22 H          -0.0287    3.7269   -3.0158 H.spc      1 <1>        0.000
     23 H           1.8228    3.6291   -3.7903 H.spc      1 <1>        0.000
     24 H           2.4342    3.0491   -1.9971 H.spc      1 <1>        0.000
     25 H           3.4071    2.3528   -4.2555 H.spc      1 <1>        0.000
     26 H           2.0012    1.1717   -4.0227 H.spc      1 <1>        0.000
     27 H           3.8436    0.1651   -3.2265 H.spc      1 <1>        0.000
     28 H           2.9457    0.9245   -1.7446 H.spc      1 <1>        0.000
     29 H           5.4751    1.7451   -3.0126 H.spc      1 <1>        0.000
     30 H           5.1969    0.8468   -1.3746 H.spc      1 <1>        0.000
     31 H           5.8826    2.9295   -0.8799 H.spc      1 <1>        0.000
     32 H           4.7229    3.6622   -2.1406 H.spc      1 <1>        0.000
     33 H           4.0246    1.3850    0.2506 H.spc      1 <1>        0.000
     34 H           4.8633    2.8929    1.2096 H.spc      1 <1>        0.000
     35 H           3.6327    1.7330    2.6236 H.spc      1 <1>        0.000
     36 H           2.7048    3.1899    2.0553 H.spc      1 <1>        0.000
     37 H           1.9279    1.3032    0.3500 H.spc      1 <1>        0.000
     38 H           2.1038    0.4013    1.9955 H.spc      1 <1>        0.000
     39 H           0.2571    1.0956    2.6535 H.spc      1 <1>        0.000
     40 H           0.5936    2.8197    1.9878 H.spc      1 <1>        0.000
@<TRIPOS>BOND
     1    5    6 1  
     2    6    7 1  
     3    7    8 1  
     4    1   14 1  
     5    4    5 1  
     6    3    4 1  
     7    2    3 1  
     8    1    2 1  
     9   13   14 1  
    10   12   13 1  
    11   11   12 1  
    12   10   11 1  
    13    9   10 1  
    14    8    9 1  
    15    1   15 1  
    16    1   16 1  
    17    2   17 1  
    18    2   18 1  
    19    3   19 1  
    20    3   20 1  
    21    4   21 1  
    22    4   22 1  
    23    5   23 1  
    24    5   24 1  
    25    6   25 1  
    26    6   26 1  
    27    7   27 1  
    28    7   28 1  
    29    8   29 1  
    30    8   30 1  
    31    9   31 1  
    32    9   32 1  
    33   11   33 1  
    34   11   34 1  
    35   12   35 1  
    36   12   36 1  
    37   13   37 1  
    38   13   38 1  
    39   14   39 1  
    40   14   40 1  
# Name:          frag4-414-53/48856 -- energy: -3.870282
# Creation time: Sat Jun  5 12:52:00 2010


@<TRIPOS>MOLECULE
frag4-414-53/48856 -- energy: -3.870282
   40    40     1     1     1
SMALL
USER_CHARGES


@<TRIPOS>ATOM
      1 C7         -0.4354    2.5638    1.2494 C.3        1 <1>        0.000
      2 C8         -0.8545    2.8046   -0.2016 C.3        1 <1>        0.000
      3 C9          0.2467    3.1171   -1.2417 C.3        1 <1>        0.000
      4 C10         0.0707    2.3997   -2.5567 C.3        1 <1>        0.000
      5 C11         1.3131    2.1373   -3.3050 C.3        1 <1>        0.000
      6 C12         2.7125    2.5936   -3.1176 C.3        1 <1>        0.000
      7 C13         3.6593    1.5096   -2.6605 C.3        1 <1>        0.000
      8 C14         5.0907    1.9210   -2.3480 C.3        1 <1>        0.000
      9 C15         5.3705    2.8053   -1.1405 C.3        1 <1>        0.000
     10 O3          4.9522    2.2888    0.1147 O.3        1 <1>        0.000
     11 C16         3.7638    2.6453    0.5299 C.3        1 <1>        0.000
     12 C17         2.8823    2.2140    1.6594 C.3        1 <1>        0.000
     13 C18         1.8636    1.1876    1.2102 C.3        1 <1>        0.000
     14 C19         0.4130    1.3506    1.6295 C.3        1 <1>        0.000
     15 H           0.1999    3.4170    1.4872 H.spc      1 <1>        0.000
     16 H          -1.3771    2.4042    1.7746 H.spc      1 <1>        0.000
     17 H          -1.3006    1.8660   -0.5303 H.spc      1 <1>        0.000
     18 H          -1.4831    3.6946   -0.1741 H.spc      1 <1>        0.000
     19 H           0.2018    4.1864   -1.4484 H.spc      1 <1>        0.000
     20 H           1.1949    2.7865   -0.8176 H.spc      1 <1>        0.000
     21 H          -0.3643    1.4275   -2.3250 H.spc      1 <1>        0.000
     22 H          -0.5403    3.0475   -3.1853 H.spc      1 <1>        0.000
     23 H           1.4395    1.0800   -3.0721 H.spc      1 <1>        0.000
     24 H           1.0775    2.6653   -4.2290 H.spc      1 <1>        0.000
     25 H           2.7006    3.3592   -2.3418 H.spc      1 <1>        0.000
     26 H           3.0690    2.9456   -4.0856 H.spc      1 <1>        0.000
     27 H           3.7283    0.8078   -3.4916 H.spc      1 <1>        0.000
     28 H           3.2484    1.1343   -1.7233 H.spc      1 <1>        0.000
     29 H           5.4002    2.5182   -3.2057 H.spc      1 <1>        0.000
     30 H           5.6061    0.9854   -2.1309 H.spc      1 <1>        0.000
     31 H           6.4536    2.9138   -1.0830 H.spc      1 <1>        0.000
     32 H           4.8088    3.7262   -1.2969 H.spc      1 <1>        0.000
     33 H           4.0053    3.6482    0.8820 H.spc      1 <1>        0.000
     34 H           3.1743    2.2536   -0.2991 H.spc      1 <1>        0.000
     35 H           3.5067    1.7647    2.4316 H.spc      1 <1>        0.000
     36 H           2.3490    3.0880    2.0334 H.spc      1 <1>        0.000
     37 H           1.8502    1.2649    0.1230 H.spc      1 <1>        0.000
     38 H           2.1848    0.2545    1.6731 H.spc      1 <1>        0.000
     39 H          -0.0864    0.5292    1.1158 H.spc      1 <1>        0.000
     40 H           0.4764    1.4238    2.7152 H.spc      1 <1>        0.000
@<TRIPOS>BOND
     1    5    6 1  
     2    6    7 1  
     3    7    8 1  
     4    1   14 1  
     5    4    5 1  
     6    3    4 1  
     7    2    3 1  
     8    1    2 1  
     9   13   14 1  
    10   12   13 1  
    11   11   12 1  
    12   10   11 1  
    13    9   10 1  
    14    8    9 1  
    15    1   15 1  
    16    1   16 1  
    17    2   17 1  
    18    2   18 1  
    19    3   19 1  
    20    3   20 1  
    21    4   21 1  
    22    4   22 1  
    23    5   23 1  
    24    5   24 1  
    25    6   25 1  
    26    6   26 1  
    27    7   27 1  
    28    7   28 1  
    29    8   29 1  
    30    8   30 1  
    31    9   31 1  
    32    9   32 1  
    33   11   33 1  
    34   11   34 1  
    35   12   35 1  
    36   12   36 1  
    37   13   37 1  
    38   13   38 1  
    39   14   39 1  
    40   14   40 1  
# Name:          frag4-414-53/48856 -- energy: -5.212289
# Creation time: Sat Jun  5 12:52:00 2010


@<TRIPOS>MOLECULE
frag4-414-53/48856 -- energy: -5.212289
   40    40     1     1     1
SMALL
USER_CHARGES


@<TRIPOS>ATOM
      1 C7         -0.4392    1.7516    0.7871 C.3        1 <1>        0.000
      2 C8         -0.9127    2.7312   -0.2710 C.3        1 <1>        0.000
      3 C9         -0.0466    3.1242   -1.4547 C.3        1 <1>        0.000
      4 C10         0.4152    2.0671   -2.4321 C.3        1 <1>        0.000
      5 C11         1.2912    2.5533   -3.5436 C.3        1 <1>        0.000
      6 C12         2.6776    2.2248   -3.9787 C.3        1 <1>        0.000
      7 C13         3.7579    2.6318   -3.0228 C.3        1 <1>        0.000
      8 C14         4.3164    1.5983   -2.0801 C.3        1 <1>        0.000
      9 C15         5.2224    2.0841   -0.9442 C.3        1 <1>        0.000
     10 O3          4.5922    2.7881    0.1116 O.3        1 <1>        0.000
     11 C16         4.3147    2.0881    1.1789 C.3        1 <1>        0.000
     12 C17         3.2105    2.1845    2.1494 C.3        1 <1>        0.000
     13 C18         1.9879    1.5087    1.5972 C.3        1 <1>        0.000
     14 C19         0.6612    2.2026    1.7247 C.3        1 <1>        0.000
     15 H          -1.3057    1.5681    1.4224 H.spc      1 <1>        0.000
     16 H          -0.0246    0.9069    0.2369 H.spc      1 <1>        0.000
     17 H          -1.7574    2.2194   -0.7322 H.spc      1 <1>        0.000
     18 H          -1.0298    3.6644    0.2800 H.spc      1 <1>        0.000
     19 H          -0.6765    3.7883   -2.0466 H.spc      1 <1>        0.000
     20 H           0.8721    3.5043   -1.0079 H.spc      1 <1>        0.000
     21 H           1.0084    1.3540   -1.8596 H.spc      1 <1>        0.000
     22 H          -0.4832    1.6640   -2.8996 H.spc      1 <1>        0.000
     23 H           0.7449    2.1302   -4.3866 H.spc      1 <1>        0.000
     24 H           1.4612    3.5709   -3.1919 H.spc      1 <1>        0.000
     25 H           2.8543    2.7736   -4.9037 H.spc      1 <1>        0.000
     26 H           2.7297    1.1396   -4.0672 H.spc      1 <1>        0.000
     27 H           3.2992    3.3832   -2.3800 H.spc      1 <1>        0.000
     28 H           4.5981    2.9243   -3.6526 H.spc      1 <1>        0.000
     29 H           4.9419    0.9511   -2.6949 H.spc      1 <1>        0.000
     30 H           3.4505    1.1519   -1.5912 H.spc      1 <1>        0.000
     31 H           5.6502    1.1876   -0.4955 H.spc      1 <1>        0.000
     32 H           5.9240    2.7847   -1.3970 H.spc      1 <1>        0.000
     33 H           4.0681    1.1336    0.7139 H.spc      1 <1>        0.000
     34 H           5.1467    2.3871    1.8165 H.spc      1 <1>        0.000
     35 H           3.5036    1.6962    3.0788 H.spc      1 <1>        0.000
     36 H           2.9876    3.2345    2.3388 H.spc      1 <1>        0.000
     37 H           2.1661    1.4324    0.5246 H.spc      1 <1>        0.000
     38 H           1.8849    0.5912    2.1766 H.spc      1 <1>        0.000
     39 H           0.3048    1.9835    2.7312 H.spc      1 <1>        0.000
     40 H           0.8473    3.2496    1.4855 H.spc      1 <1>        0.000
@<TRIPOS>BOND
     1    5    6 1  
     2    6    7 1  
     3    7    8 1  
     4    1   14 1  
     5    4    5 1  
     6    3    4 1  
     7    2    3 1  
     8    1    2 1  
     9   13   14 1  
    10   12   13 1  
    11   11   12 1  
    12   10   11 1  
    13    9   10 1  
    14    8    9 1  
    15    1   15 1  
    16    1   16 1  
    17    2   17 1  
    18    2   18 1  
    19    3   19 1  
    20    3   20 1  
    21    4   21 1  
    22    4   22 1  
    23    5   23 1  
    24    5   24 1  
    25    6   25 1  
    26    6   26 1  
    27    7   27 1  
    28    7   28 1  
    29    8   29 1  
    30    8   30 1  
    31    9   31 1  
    32    9   32 1  
    33   11   33 1  
    34   11   34 1  
    35   12   35 1  
    36   12   36 1  
    37   13   37 1  
    38   13   38 1  
    39   14   39 1  
    40   14   40 1  
# Name:          frag4-414-53/48856 -- energy: -7.426316
# Creation time: Sat Jun  5 12:52:00 2010


@<TRIPOS>MOLECULE
frag4-414-53/48856 -- energy: -7.426316
   40    40     1     1     1
SMALL
USER_CHARGES


@<TRIPOS>ATOM
      1 C7          0.4236    3.2638    0.8901 C.3        1 <1>        0.000
      2 C8         -0.1258    3.0671   -0.5154 C.3        1 <1>        0.000
      3 C9          0.3695    1.8519   -1.2567 C.3        1 <1>        0.000
      4 C10         0.2307    1.7426   -2.7735 C.3        1 <1>        0.000
      5 C11         1.1580    2.6152   -3.5713 C.3        1 <1>        0.000
      6 C12         2.5910    2.4847   -4.0240 C.3        1 <1>        0.000
      7 C13         3.6783    1.9219   -3.1121 C.3        1 <1>        0.000
      8 C14         4.4899    2.8719   -2.2406 C.3        1 <1>        0.000
      9 C15         4.9687    2.3798   -0.8800 C.3        1 <1>        0.000
     10 O3          3.9868    2.4987    0.1204 O.3        1 <1>        0.000
     11 C16         4.0431    1.8151    1.2313 C.3        1 <1>        0.000
     12 C17         3.0301    1.7416    2.2895 C.3        1 <1>        0.000
     13 C18         1.7070    1.1947    1.8295 C.3        1 <1>        0.000
     14 C19         0.4975    2.0895    1.8345 C.3        1 <1>        0.000
     15 H           1.4612    3.5624    0.7406 H.spc      1 <1>        0.000
     16 H          -0.2739    3.9545    1.3640 H.spc      1 <1>        0.000
     17 H          -1.2030    2.9407   -0.4072 H.spc      1 <1>        0.000
     18 H           0.1997    3.9315   -1.0942 H.spc      1 <1>        0.000
     19 H           1.4467    1.8628   -1.0907 H.spc      1 <1>        0.000
     20 H          -0.2505    1.0402   -0.8761 H.spc      1 <1>        0.000
     21 H           0.4723    0.7122   -3.0343 H.spc      1 <1>        0.000
     22 H          -0.7827    2.0620   -3.0167 H.spc      1 <1>        0.000
     23 H           0.6691    2.5331   -4.5420 H.spc      1 <1>        0.000
     24 H           1.2841    3.4246   -2.8522 H.spc      1 <1>        0.000
     25 H           2.9029    3.5160   -4.1889 H.spc      1 <1>        0.000
     26 H           2.5382    1.7609   -4.8373 H.spc      1 <1>        0.000
     27 H           4.4066    1.4775   -3.7905 H.spc      1 <1>        0.000
     28 H           3.1457    1.2847   -2.4061 H.spc      1 <1>        0.000
     29 H           3.8190    3.7030   -2.0233 H.spc      1 <1>        0.000
     30 H           5.3991    3.0725   -2.8074 H.spc      1 <1>        0.000
     31 H           5.2197    1.3235   -0.9769 H.spc      1 <1>        0.000
     32 H           5.8210    2.9920   -0.5851 H.spc      1 <1>        0.000
     33 H           4.0292    0.7931    0.8527 H.spc      1 <1>        0.000
     34 H           4.8568    2.3210    1.7510 H.spc      1 <1>        0.000
     35 H           3.4108    1.0670    3.0564 H.spc      1 <1>        0.000
     36 H           2.8557    2.7580    2.6425 H.spc      1 <1>        0.000
     37 H           1.8607    0.9409    0.7806 H.spc      1 <1>        0.000
     38 H           1.4706    0.4038    2.5413 H.spc      1 <1>        0.000
     39 H          -0.3226    1.4407    1.5271 H.spc      1 <1>        0.000
     40 H           0.4947    2.5382    2.8278 H.spc      1 <1>        0.000
@<TRIPOS>BOND
     1    5    6 1  
     2    6    7 1  
     3    7    8 1  
     4    1   14 1  
     5    4    5 1  
     6    3    4 1  
     7    2    3 1  
     8    1    2 1  
     9   13   14 1  
    10   12   13 1  
    11   11   12 1  
    12   10   11 1  
    13    9   10 1  
    14    8    9 1  
    15    1   15 1  
    16    1   16 1  
    17    2   17 1  
    18    2   18 1  
    19    3   19 1  
    20    3   20 1  
    21    4   21 1  
    22    4   22 1  
    23    5   23 1  
    24    5   24 1  
    25    6   25 1  
    26    6   26 1  
    27    7   27 1  
    28    7   28 1  
    29    8   29 1  
    30    8   30 1  
    31    9   31 1  
    32    9   32 1  
    33   11   33 1  
    34   11   34 1  
    35   12   35 1  
    36   12   36 1  
    37   13   37 1  
    38   13   38 1  
    39   14   39 1  
    40   14   40 1  
# Name:          frag4-414-53/48856 -- energy: -6.748637
# Creation time: Sat Jun  5 12:52:00 2010


@<TRIPOS>MOLECULE
frag4-414-53/48856 -- energy: -6.748637
   40    40     1     1     1
SMALL
USER_CHARGES


@<TRIPOS>ATOM
      1 C7         -0.5705    2.4175    0.8533 C.3        1 <1>        0.000
      2 C8         -0.2878    3.4529   -0.1968 C.3        1 <1>        0.000
      3 C9          0.6732    3.1210   -1.3015 C.3        1 <1>        0.000
      4 C10         0.2108    2.1635   -2.3745 C.3        1 <1>        0.000
      5 C11         1.2872    1.8309   -3.3394 C.3        1 <1>        0.000
      6 C12         2.7268    1.4795   -3.1267 C.3        1 <1>        0.000
      7 C13         3.6075    2.6984   -3.2202 C.3        1 <1>        0.000
      8 C14         4.8485    2.9711   -2.4243 C.3        1 <1>        0.000
      9 C15         5.0903    2.5228   -0.9959 C.3        1 <1>        0.000
     10 O3          3.9904    2.4007   -0.1267 O.3        1 <1>        0.000
     11 C16         4.0880    1.6563    0.9475 C.3        1 <1>        0.000
     12 C17         3.0633    1.2759    1.9529 C.3        1 <1>        0.000
     13 C18         1.7692    2.0620    1.9289 C.3        1 <1>        0.000
     14 C19         0.5516    1.4861    1.2451 C.3        1 <1>        0.000
     15 H          -0.8116    2.9780    1.7565 H.spc      1 <1>        0.000
     16 H          -1.3446    1.7777    0.4295 H.spc      1 <1>        0.000
     17 H          -1.2434    3.6180   -0.6945 H.spc      1 <1>        0.000
     18 H           0.1753    4.2804    0.3406 H.spc      1 <1>        0.000
     19 H           0.8623    4.0636   -1.8151 H.spc      1 <1>        0.000
     20 H           1.5154    2.6283   -0.8157 H.spc      1 <1>        0.000
     21 H          -0.1034    1.2397   -1.8888 H.spc      1 <1>        0.000
     22 H          -0.5996    2.6409   -2.9254 H.spc      1 <1>        0.000
     23 H           0.9154    0.8763   -3.7117 H.spc      1 <1>        0.000
     24 H           1.4018    2.7969   -3.8310 H.spc      1 <1>        0.000
     25 H           3.0293    0.7728   -3.8995 H.spc      1 <1>        0.000
     26 H           2.8354    1.0485   -2.1314 H.spc      1 <1>        0.000
     27 H           2.9392    3.4798   -2.8585 H.spc      1 <1>        0.000
     28 H           4.0108    2.6005   -4.2281 H.spc      1 <1>        0.000
     29 H           4.8232    4.0561   -2.3235 H.spc      1 <1>        0.000
     30 H           5.6023    2.4065   -2.9731 H.spc      1 <1>        0.000
     31 H           5.4951    1.5144   -1.0817 H.spc      1 <1>        0.000
     32 H           5.7113    3.3036   -0.5567 H.spc      1 <1>        0.000
     33 H           4.2775    0.6850    0.4906 H.spc      1 <1>        0.000
     34 H           4.7318    2.2877    1.5599 H.spc      1 <1>        0.000
     35 H           2.7933    0.2430    1.7330 H.spc      1 <1>        0.000
     36 H           3.5127    1.4638    2.9280 H.spc      1 <1>        0.000
     37 H           1.4805    2.1457    2.9766 H.spc      1 <1>        0.000
     38 H           2.0050    2.9597    1.3573 H.spc      1 <1>        0.000
     39 H           0.9220    1.0783    0.3045 H.spc      1 <1>        0.000
     40 H           0.1126    0.8060    1.9751 H.spc      1 <1>        0.000
@<TRIPOS>BOND
     1    5    6 1  
     2    6    7 1  
     3    7    8 1  
     4    1   14 1  
     5    4    5 1  
     6    3    4 1  
     7    2    3 1  
     8    1    2 1  
     9   13   14 1  
    10   12   13 1  
    11   11   12 1  
    12   10   11 1  
    13    9   10 1  
    14    8    9 1  
    15    1   15 1  
    16    1   16 1  
    17    2   17 1  
    18    2   18 1  
    19    3   19 1  
    20    3   20 1  
    21    4   21 1  
    22    4   22 1  
    23    5   23 1  
    24    5   24 1  
    25    6   25 1  
    26    6   26 1  
    27    7   27 1  
    28    7   28 1  
    29    8   29 1  
    30    8   30 1  
    31    9   31 1  
    32    9   32 1  
    33   11   33 1  
    34   11   34 1  
    35   12   35 1  
    36   12   36 1  
    37   13   37 1  
    38   13   38 1  
    39   14   39 1  
    40   14   40 1  
# Name:          frag4-414-53/48856 -- energy: -5.851744
# Creation time: Sat Jun  5 12:52:00 2010


@<TRIPOS>MOLECULE
frag4-414-53/48856 -- energy: -5.851744
   40    40     1     1     1
SMALL
USER_CHARGES


@<TRIPOS>ATOM
      1 C7         -0.0266    2.2879    0.7251 C.3        1 <1>        0.000
      2 C8         -0.1265    3.3109   -0.3791 C.3        1 <1>        0.000
      3 C9         -0.5971    2.7122   -1.7122 C.3        1 <1>        0.000
      4 C10         0.3738    2.2294   -2.7926 C.3        1 <1>        0.000
      5 C11         1.7399    1.7585   -2.3635 C.3        1 <1>        0.000
      6 C12         2.9577    1.3625   -3.1482 C.3        1 <1>        0.000
      7 C13         3.9865    2.4439   -3.4030 C.3        1 <1>        0.000
      8 C14         4.3342    3.4275   -2.3100 C.3        1 <1>        0.000
      9 C15         4.9617    2.9415   -1.0093 C.3        1 <1>        0.000
     10 O3          4.3679    1.8378   -0.3659 O.3        1 <1>        0.000
     11 C16         3.6833    1.9940    0.7562 C.3        1 <1>        0.000
     12 C17         2.8106    1.0214    1.4293 C.3        1 <1>        0.000
     13 C18         1.8088    1.5945    2.4225 C.3        1 <1>        0.000
     14 C19         0.7743    2.6164    1.9722 C.3        1 <1>        0.000
     15 H          -1.0498    2.1583    1.0777 H.spc      1 <1>        0.000
     16 H           0.4938    1.4425    0.2749 H.spc      1 <1>        0.000
     17 H          -0.8593    4.0579   -0.0739 H.spc      1 <1>        0.000
     18 H           0.8682    3.7282   -0.5357 H.spc      1 <1>        0.000
     19 H          -1.1083    1.7984   -1.4092 H.spc      1 <1>        0.000
     20 H          -1.1114    3.5447   -2.1923 H.spc      1 <1>        0.000
     21 H          -0.1037    1.3573   -3.2394 H.spc      1 <1>        0.000
     22 H           0.5548    3.0982   -3.4255 H.spc      1 <1>        0.000
     23 H           2.1109    2.6748   -1.9044 H.spc      1 <1>        0.000
     24 H           1.4729    0.7890   -1.9428 H.spc      1 <1>        0.000
     25 H           2.5952    1.0568   -4.1297 H.spc      1 <1>        0.000
     26 H           3.4634    0.6023   -2.5528 H.spc      1 <1>        0.000
     27 H           3.5492    3.0560   -4.1918 H.spc      1 <1>        0.000
     28 H           4.9136    1.9007   -3.5861 H.spc      1 <1>        0.000
     29 H           3.3740    3.8450   -2.0070 H.spc      1 <1>        0.000
     30 H           5.0964    4.0672   -2.7549 H.spc      1 <1>        0.000
     31 H           5.9677    2.6167   -1.2751 H.spc      1 <1>        0.000
     32 H           4.8641    3.7726   -0.3108 H.spc      1 <1>        0.000
     33 H           4.4910    2.0870    1.4822 H.spc      1 <1>        0.000
     34 H           2.9590    2.7508    0.4551 H.spc      1 <1>        0.000
     35 H           2.2234    0.5442    0.6447 H.spc      1 <1>        0.000
     36 H           3.4678    0.3671    2.0021 H.spc      1 <1>        0.000
     37 H           1.2178    0.7336    2.7352 H.spc      1 <1>        0.000
     38 H           2.4234    2.1339    3.1432 H.spc      1 <1>        0.000
     39 H           0.0481    2.6798    2.7826 H.spc      1 <1>        0.000
     40 H           1.3348    3.5206    1.7348 H.spc      1 <1>        0.000
@<TRIPOS>BOND
     1    5    6 1  
     2    6    7 1  
     3    7    8 1  
     4    1   14 1  
     5    4    5 1  
     6    3    4 1  
     7    2    3 1  
     8    1    2 1  
     9   13   14 1  
    10   12   13 1  
    11   11   12 1  
    12   10   11 1  
    13    9   10 1  
    14    8    9 1  
    15    1   15 1  
    16    1   16 1  
    17    2   17 1  
    18    2   18 1  
    19    3   19 1  
    20    3   20 1  
    21    4   21 1  
    22    4   22 1  
    23    5   23 1  
    24    5   24 1  
    25    6   25 1  
    26    6   26 1  
    27    7   27 1  
    28    7   28 1  
    29    8   29 1  
    30    8   30 1  
    31    9   31 1  
    32    9   32 1  
    33   11   33 1  
    34   11   34 1  
    35   12   35 1  
    36   12   36 1  
    37   13   37 1  
    38   13   38 1  
    39   14   39 1  
    40   14   40 1  
# Name:          frag4-414-53/48856 -- energy: -7.125173
# Creation time: Sat Jun  5 12:52:00 2010


@<TRIPOS>MOLECULE
frag4-414-53/48856 -- energy: -7.125173
   40    40     1     1     1
SMALL
USER_CHARGES


@<TRIPOS>ATOM
      1 C7          0.1184    1.7818    0.6143 C.3        1 <1>        0.000
      2 C8         -0.8695    2.3187   -0.4278 C.3        1 <1>        0.000
      3 C9         -0.3364    2.7894   -1.7551 C.3        1 <1>        0.000
      4 C10         0.2504    1.7160   -2.6351 C.3        1 <1>        0.000
      5 C11         1.7253    1.7738   -2.7435 C.3        1 <1>        0.000
      6 C12         2.5887    2.7391   -3.4674 C.3        1 <1>        0.000
      7 C13         3.6624    3.3958   -2.6507 C.3        1 <1>        0.000
      8 C14         4.9175    2.5831   -2.3780 C.3        1 <1>        0.000
      9 C15         4.8278    1.5604   -1.2675 C.3        1 <1>        0.000
     10 O3          4.2956    2.0966   -0.0881 O.3        1 <1>        0.000
     11 C16         3.8579    1.3355    0.8899 C.3        1 <1>        0.000
     12 C17         3.1657    1.7719    2.1212 C.3        1 <1>        0.000
     13 C18         2.1524    2.8982    2.0106 C.3        1 <1>        0.000
     14 C19         0.6923    2.7782    1.5988 C.3        1 <1>        0.000
     15 H          -0.4425    1.0636    1.2123 H.spc      1 <1>        0.000
     16 H           0.9685    1.4008    0.0484 H.spc      1 <1>        0.000
     17 H          -1.5165    1.4744   -0.6659 H.spc      1 <1>        0.000
     18 H          -1.3108    3.2040    0.0301 H.spc      1 <1>        0.000
     19 H          -1.1829    3.2086   -2.2989 H.spc      1 <1>        0.000
     20 H           0.4716    3.4873   -1.5356 H.spc      1 <1>        0.000
     21 H          -0.0057    0.7545   -2.1902 H.spc      1 <1>        0.000
     22 H          -0.1553    1.8586   -3.6367 H.spc      1 <1>        0.000
     23 H           1.9881    2.0112   -1.7126 H.spc      1 <1>        0.000
     24 H           1.9145    0.8698   -3.3224 H.spc      1 <1>        0.000
     25 H           1.9334    3.5384   -3.8136 H.spc      1 <1>        0.000
     26 H           3.0983    2.1719   -4.2463 H.spc      1 <1>        0.000
     27 H           3.2167    3.5906   -1.6753 H.spc      1 <1>        0.000
     28 H           3.9881    4.2609   -3.2284 H.spc      1 <1>        0.000
     29 H           5.6804    3.2982   -2.0702 H.spc      1 <1>        0.000
     30 H           5.1194    2.0223   -3.2906 H.spc      1 <1>        0.000
     31 H           4.1687    0.7586   -1.6004 H.spc      1 <1>        0.000
     32 H           5.8364    1.2078   -1.0521 H.spc      1 <1>        0.000
     33 H           3.0710    0.7719    0.3886 H.spc      1 <1>        0.000
     34 H           4.7921    0.9461    1.2945 H.spc      1 <1>        0.000
     35 H           2.5972    0.9041    2.4556 H.spc      1 <1>        0.000
     36 H           3.9509    2.1533    2.7739 H.spc      1 <1>        0.000
     37 H           2.0599    3.2102    3.0509 H.spc      1 <1>        0.000
     38 H           2.5637    3.4803    1.1859 H.spc      1 <1>        0.000
     39 H           0.2230    2.4651    2.5315 H.spc      1 <1>        0.000
     40 H           0.5290    3.7229    1.0801 H.spc      1 <1>        0.000
@<TRIPOS>BOND
     1    5    6 1  
     2    6    7 1  
     3    7    8 1  
     4    1   14 1  
     5    4    5 1  
     6    3    4 1  
     7    2    3 1  
     8    1    2 1  
     9   13   14 1  
    10   12   13 1  
    11   11   12 1  
    12   10   11 1  
    13    9   10 1  
    14    8    9 1  
    15    1   15 1  
    16    1   16 1  
    17    2   17 1  
    18    2   18 1  
    19    3   19 1  
    20    3   20 1  
    21    4   21 1  
    22    4   22 1  
    23    5   23 1  
    24    5   24 1  
    25    6   25 1  
    26    6   26 1  
    27    7   27 1  
    28    7   28 1  
    29    8   29 1  
    30    8   30 1  
    31    9   31 1  
    32    9   32 1  
    33   11   33 1  
    34   11   34 1  
    35   12   35 1  
    36   12   36 1  
    37   13   37 1  
    38   13   38 1  
    39   14   39 1  
    40   14   40 1  
# Name:          frag4-414-53/48856 -- energy: -5.897583
# Creation time: Sat Jun  5 12:52:00 2010


@<TRIPOS>MOLECULE
frag4-414-53/48856 -- energy: -5.897583
   40    40     1     1     1
SMALL
USER_CHARGES


@<TRIPOS>ATOM
      1 C7         -0.1315    2.5034    1.0176 C.3        1 <1>        0.000
      2 C8         -0.0811    3.1436   -0.3515 C.3        1 <1>        0.000
      3 C9         -0.2467    2.2669   -1.5746 C.3        1 <1>        0.000
      4 C10         0.0693    2.8240   -2.9377 C.3        1 <1>        0.000
      5 C11         1.3620    2.3880   -3.5328 C.3        1 <1>        0.000
      6 C12         2.5737    1.7672   -2.9430 C.3        1 <1>        0.000
      7 C13         3.8941    2.3185   -3.4004 C.3        1 <1>        0.000
      8 C14         4.8384    2.8571   -2.3533 C.3        1 <1>        0.000
      9 C15         4.9927    2.0910   -1.0529 C.3        1 <1>        0.000
     10 O3          4.1523    2.5819   -0.0437 O.3        1 <1>        0.000
     11 C16         3.9628    1.9019    1.0815 C.3        1 <1>        0.000
     12 C17         3.0724    2.2316    2.1957 C.3        1 <1>        0.000
     13 C18         1.8538    1.3602    2.3683 C.3        1 <1>        0.000
     14 C19         0.7362    1.3030    1.3484 C.3        1 <1>        0.000
     15 H           0.2278    3.2835    1.6887 H.spc      1 <1>        0.000
     16 H          -1.1503    2.1240    1.0957 H.spc      1 <1>        0.000
     17 H          -0.9316    3.8249   -0.3757 H.spc      1 <1>        0.000
     18 H           0.9250    3.5550   -0.4336 H.spc      1 <1>        0.000
     19 H           0.4711    1.4588   -1.4338 H.spc      1 <1>        0.000
     20 H          -1.3124    2.0406   -1.6095 H.spc      1 <1>        0.000
     21 H          -0.7135    2.4648   -3.6058 H.spc      1 <1>        0.000
     22 H           0.1341    3.9057   -2.8204 H.spc      1 <1>        0.000
     23 H           1.0079    1.5511   -4.1347 H.spc      1 <1>        0.000
     24 H           1.7726    3.3617   -3.8000 H.spc      1 <1>        0.000
     25 H           2.5588    0.7214   -3.2499 H.spc      1 <1>        0.000
     26 H           2.5206    1.9569   -1.8710 H.spc      1 <1>        0.000
     27 H           3.6477    3.1710   -4.0334 H.spc      1 <1>        0.000
     28 H           4.4166    1.4771   -3.8555 H.spc      1 <1>        0.000
     29 H           4.4239    3.8236   -2.0666 H.spc      1 <1>        0.000
     30 H           5.8240    2.8300   -2.8181 H.spc      1 <1>        0.000
     31 H           4.7257    1.0508   -1.2393 H.spc      1 <1>        0.000
     32 H           6.0239    2.1992   -0.7168 H.spc      1 <1>        0.000
     33 H           3.4944    0.9942    0.7010 H.spc      1 <1>        0.000
     34 H           4.9387    2.0061    1.5557 H.spc      1 <1>        0.000
     35 H           3.6645    2.1032    3.1018 H.spc      1 <1>        0.000
     36 H           2.6981    3.2353    1.9945 H.spc      1 <1>        0.000
     37 H           2.2635    0.3504    2.3472 H.spc      1 <1>        0.000
     38 H           1.3678    1.7814    3.2484 H.spc      1 <1>        0.000
     39 H           1.2596    1.1059    0.4129 H.spc      1 <1>        0.000
     40 H           0.0314    0.5968    1.7873 H.spc      1 <1>        0.000
@<TRIPOS>BOND
     1    5    6 1  
     2    6    7 1  
     3    7    8 1  
     4    1   14 1  
     5    4    5 1  
     6    3    4 1  
     7    2    3 1  
     8    1    2 1  
     9   13   14 1  
    10   12   13 1  
    11   11   12 1  
    12   10   11 1  
    13    9   10 1  
    14    8    9 1  
    15    1   15 1  
    16    1   16 1  
    17    2   17 1  
    18    2   18 1  
    19    3   19 1  
    20    3   20 1  
    21    4   21 1  
    22    4   22 1  
    23    5   23 1  
    24    5   24 1  
    25    6   25 1  
    26    6   26 1  
    27    7   27 1  
    28    7   28 1  
    29    8   29 1  
    30    8   30 1  
    31    9   31 1  
    32    9   32 1  
    33   11   33 1  
    34   11   34 1  
    35   12   35 1  
    36   12   36 1  
    37   13   37 1  
    38   13   38 1  
    39   14   39 1  
    40   14   40 1  
# Name:          frag4-414-53/48856 -- energy: -6.312310
# Creation time: Sat Jun  5 12:52:00 2010


@<TRIPOS>MOLECULE
frag4-414-53/48856 -- energy: -6.312310
   40    40     1     1     1
SMALL
USER_CHARGES


@<TRIPOS>ATOM
      1 C7          0.3553    2.9830    0.2679 C.3        1 <1>        0.000
      2 C8          0.4797    1.6195   -0.4113 C.3        1 <1>        0.000
      3 C9         -0.3064    1.3859   -1.6840 C.3        1 <1>        0.000
      4 C10        -0.0049    2.0188   -3.0267 C.3        1 <1>        0.000
      5 C11         1.4042    2.1894   -3.4745 C.3        1 <1>        0.000
      6 C12         2.3341    3.3413   -3.3736 C.3        1 <1>        0.000
      7 C13         3.2375    3.2377   -2.1623 C.3        1 <1>        0.000
      8 C14         4.4862    2.4056   -2.2441 C.3        1 <1>        0.000
      9 C15         4.9045    1.5698   -1.0453 C.3        1 <1>        0.000
     10 O3          4.4232    1.9996    0.2135 O.3        1 <1>        0.000
     11 C16         3.7580    1.1769    0.9874 C.3        1 <1>        0.000
     12 C17         2.8344    1.5214    2.0856 C.3        1 <1>        0.000
     13 C18         2.3046    2.9295    2.0083 C.3        1 <1>        0.000
     14 C19         0.8380    3.1598    1.6808 C.3        1 <1>        0.000
     15 H           0.9897    3.6431   -0.3235 H.spc      1 <1>        0.000
     16 H          -0.7178    3.1671    0.3194 H.spc      1 <1>        0.000
     17 H           1.5277    1.5338   -0.6986 H.spc      1 <1>        0.000
     18 H           0.0864    0.9010    0.3078 H.spc      1 <1>        0.000
     19 H          -0.1193    0.3301   -1.8798 H.spc      1 <1>        0.000
     20 H          -1.2764    1.8181   -1.4382 H.spc      1 <1>        0.000
     21 H          -0.4388    1.3319   -3.7534 H.spc      1 <1>        0.000
     22 H          -0.3860    3.0362   -2.9383 H.spc      1 <1>        0.000
     23 H           1.8985    1.4936   -2.7966 H.spc      1 <1>        0.000
     24 H           1.2587    2.1640   -4.5545 H.spc      1 <1>        0.000
     25 H           1.7407    4.2508   -3.2792 H.spc      1 <1>        0.000
     26 H           2.9604    3.3526   -4.2656 H.spc      1 <1>        0.000
     27 H           2.6278    2.7500   -1.4017 H.spc      1 <1>        0.000
     28 H           3.5916    4.2544   -1.9919 H.spc      1 <1>        0.000
     29 H           5.2928    3.1270   -2.3749 H.spc      1 <1>        0.000
     30 H           4.2854    1.6800   -3.0323 H.spc      1 <1>        0.000
     31 H           4.4884    0.5754   -1.2072 H.spc      1 <1>        0.000
     32 H           5.9914    1.6337   -0.9938 H.spc      1 <1>        0.000
     33 H           3.0756    0.7177    0.2722 H.spc      1 <1>        0.000
     34 H           4.5695    0.6976    1.5350 H.spc      1 <1>        0.000
     35 H           1.9808    0.8468    2.0187 H.spc      1 <1>        0.000
     36 H           3.3891    1.4316    3.0196 H.spc      1 <1>        0.000
     37 H           2.4294    3.3280    3.0152 H.spc      1 <1>        0.000
     38 H           2.8480    3.3848    1.1803 H.spc      1 <1>        0.000
     39 H           0.3055    2.3988    2.2512 H.spc      1 <1>        0.000
     40 H           0.6690    4.2141    1.8999 H.spc      1 <1>        0.000
@<TRIPOS>BOND
     1    5    6 1  
     2    6    7 1  
     3    7    8 1  
     4    1   14 1  
     5    4    5 1  
     6    3    4 1  
     7    2    3 1  
     8    1    2 1  
     9   13   14 1  
    10   12   13 1  
    11   11   12 1  
    12   10   11 1  
    13    9   10 1  
    14    8    9 1  
    15    1   15 1  
    16    1   16 1  
    17    2   17 1  
    18    2   18 1  
    19    3   19 1  
    20    3   20 1  
    21    4   21 1  
    22    4   22 1  
    23    5   23 1  
    24    5   24 1  
    25    6   25 1  
    26    6   26 1  
    27    7   27 1  
    28    7   28 1  
    29    8   29 1  
    30    8   30 1  
    31    9   31 1  
    32    9   32 1  
    33   11   33 1  
    34   11   34 1  
    35   12   35 1  
    36   12   36 1  
    37   13   37 1  
    38   13   38 1  
    39   14   39 1  
    40   14   40 1  
# Name:          frag4-414-53/48856 -- energy: -6.843450
# Creation time: Sat Jun  5 12:52:00 2010


@<TRIPOS>MOLECULE
frag4-414-53/48856 -- energy: -6.843450
   40    40     1     1     1
SMALL
USER_CHARGES


@<TRIPOS>ATOM
      1 C7         -0.2181    2.1986    0.7164 C.3        1 <1>        0.000
      2 C8         -0.8868    3.0731   -0.3343 C.3        1 <1>        0.000
      3 C9         -0.2629    3.2964   -1.7033 C.3        1 <1>        0.000
      4 C10        -0.1419    2.1369   -2.6617 C.3        1 <1>        0.000
      5 C11         1.2051    1.7910   -3.1966 C.3        1 <1>        0.000
      6 C12         2.5513    2.4159   -3.1620 C.3        1 <1>        0.000
      7 C13         3.5603    1.6146   -2.3941 C.3        1 <1>        0.000
      8 C14         4.9007    2.2035   -2.0905 C.3        1 <1>        0.000
      9 C15         5.0730    3.1084   -0.8925 C.3        1 <1>        0.000
     10 O3          4.2186    2.9806    0.2130 O.3        1 <1>        0.000
     11 C16         4.3404    1.9390    0.9792 C.3        1 <1>        0.000
     12 C17         3.4234    1.3345    1.9659 C.3        1 <1>        0.000
     13 C18         2.0104    1.1307    1.4846 C.3        1 <1>        0.000
     14 C19         1.2749    2.3154    0.8975 C.3        1 <1>        0.000
     15 H          -0.6481    2.5129    1.6674 H.spc      1 <1>        0.000
     16 H          -0.3880    1.1735    0.3871 H.spc      1 <1>        0.000
     17 H          -1.8152    2.5468   -0.5560 H.spc      1 <1>        0.000
     18 H          -0.8845    4.0658    0.1159 H.spc      1 <1>        0.000
     19 H          -0.9314    3.9987   -2.2012 H.spc      1 <1>        0.000
     20 H           0.7654    3.5915   -1.4943 H.spc      1 <1>        0.000
     21 H          -0.4538    1.2625   -2.0905 H.spc      1 <1>        0.000
     22 H          -0.7280    2.4269   -3.5338 H.spc      1 <1>        0.000
     23 H           1.4134    0.9358   -2.5536 H.spc      1 <1>        0.000
     24 H           0.9937    1.9343   -4.2563 H.spc      1 <1>        0.000
     25 H           2.4526    3.3817   -2.6664 H.spc      1 <1>        0.000
     26 H           2.9051    2.4912   -4.1902 H.spc      1 <1>        0.000
     27 H           3.7752    0.7586   -3.0338 H.spc      1 <1>        0.000
     28 H           3.1015    1.4590   -1.4177 H.spc      1 <1>        0.000
     29 H           5.1195    2.8405   -2.9475 H.spc      1 <1>        0.000
     30 H           5.5347    1.3432   -1.8762 H.spc      1 <1>        0.000
     31 H           6.0604    2.8598   -0.5035 H.spc      1 <1>        0.000
     32 H           4.8736    4.1089   -1.2763 H.spc      1 <1>        0.000
     33 H           4.3383    1.1542    0.2227 H.spc      1 <1>        0.000
     34 H           5.1217    2.2959    1.6502 H.spc      1 <1>        0.000
     35 H           3.8208    0.3468    2.1995 H.spc      1 <1>        0.000
     36 H           3.3713    2.0234    2.8090 H.spc      1 <1>        0.000
     37 H           2.0858    0.4085    0.6717 H.spc      1 <1>        0.000
     38 H           1.4426    0.8519    2.3723 H.spc      1 <1>        0.000
     39 H           1.4184    3.1282    1.6094 H.spc      1 <1>        0.000
     40 H           1.6803    2.4405   -0.1065 H.spc      1 <1>        0.000
@<TRIPOS>BOND
     1    5    6 1  
     2    6    7 1  
     3    7    8 1  
     4    1   14 1  
     5    4    5 1  
     6    3    4 1  
     7    2    3 1  
     8    1    2 1  
     9   13   14 1  
    10   12   13 1  
    11   11   12 1  
    12   10   11 1  
    13    9   10 1  
    14    8    9 1  
    15    1   15 1  
    16    1   16 1  
    17    2   17 1  
    18    2   18 1  
    19    3   19 1  
    20    3   20 1  
    21    4   21 1  
    22    4   22 1  
    23    5   23 1  
    24    5   24 1  
    25    6   25 1  
    26    6   26 1  
    27    7   27 1  
    28    7   28 1  
    29    8   29 1  
    30    8   30 1  
    31    9   31 1  
    32    9   32 1  
    33   11   33 1  
    34   11   34 1  
    35   12   35 1  
    36   12   36 1  
    37   13   37 1  
    38   13   38 1  
    39   14   39 1  
    40   14   40 1  
# Name:          frag4-414-53/48856 -- energy: -5.583946
# Creation time: Sat Jun  5 12:52:00 2010


@<TRIPOS>MOLECULE
frag4-414-53/48856 -- energy: -5.583946
   40    40     1     1     1
SMALL
USER_CHARGES


@<TRIPOS>ATOM
      1 C7         -0.5762    2.2268    1.1452 C.3        1 <1>        0.000
      2 C8         -0.4143    2.4953   -0.3573 C.3        1 <1>        0.000
      3 C9          0.5139    1.5895   -1.1600 C.3        1 <1>        0.000
      4 C10         0.6301    1.8150   -2.6577 C.3        1 <1>        0.000
      5 C11         1.5285    2.9321   -3.0700 C.3        1 <1>        0.000
      6 C12         2.6733    2.8549   -4.0223 C.3        1 <1>        0.000
      7 C13         3.9084    2.1561   -3.5151 C.3        1 <1>        0.000
      8 C14         4.5760    2.7560   -2.2935 C.3        1 <1>        0.000
      9 C15         4.9152    1.8371   -1.1313 C.3        1 <1>        0.000
     10 O3          4.4263    2.2372    0.1221 O.3        1 <1>        0.000
     11 C16         3.6999    1.3909    0.8069 C.3        1 <1>        0.000
     12 C17         2.7674    1.5907    1.9327 C.3        1 <1>        0.000
     13 C18         1.9503    2.8567    1.8920 C.3        1 <1>        0.000
     14 C19         0.4497    2.8002    2.1298 C.3        1 <1>        0.000
     15 H          -1.5161    2.7097    1.4127 H.spc      1 <1>        0.000
     16 H          -0.4807    1.1456    1.2447 H.spc      1 <1>        0.000
     17 H          -1.4051    2.3394   -0.7839 H.spc      1 <1>        0.000
     18 H           0.0282    3.4892   -0.4240 H.spc      1 <1>        0.000
     19 H           1.5114    1.7817   -0.7647 H.spc      1 <1>        0.000
     20 H           0.0964    0.5882   -1.0542 H.spc      1 <1>        0.000
     21 H           1.0553    0.9032   -3.0772 H.spc      1 <1>        0.000
     22 H          -0.3682    2.0723   -3.0116 H.spc      1 <1>        0.000
     23 H           0.8379    3.5787   -3.6114 H.spc      1 <1>        0.000
     24 H           2.0387    3.1583   -2.1337 H.spc      1 <1>        0.000
     25 H           2.9675    3.8834   -4.2313 H.spc      1 <1>        0.000
     26 H           2.3226    2.2754   -4.8763 H.spc      1 <1>        0.000
     27 H           4.6412    2.2194   -4.3195 H.spc      1 <1>        0.000
     28 H           3.5889    1.1560   -3.2222 H.spc      1 <1>        0.000
     29 H           3.8541    3.4681   -1.8938 H.spc      1 <1>        0.000
     30 H           5.5347    3.1342   -2.6483 H.spc      1 <1>        0.000
     31 H           4.4511    0.8758   -1.3516 H.spc      1 <1>        0.000
     32 H           6.0022    1.8288   -1.0508 H.spc      1 <1>        0.000
     33 H           2.9933    1.0878    0.0343 H.spc      1 <1>        0.000
     34 H           4.4904    0.8416    1.3181 H.spc      1 <1>        0.000
     35 H           2.0571    0.7648    1.8939 H.spc      1 <1>        0.000
     36 H           3.3797    1.6487    2.8326 H.spc      1 <1>        0.000
     37 H           2.3348    3.4561    2.7172 H.spc      1 <1>        0.000
     38 H           2.0507    3.2133    0.8669 H.spc      1 <1>        0.000
     39 H           0.3737    2.1118    2.9715 H.spc      1 <1>        0.000
     40 H           0.1792    3.8557    2.1586 H.spc      1 <1>        0.000
@<TRIPOS>BOND
     1    5    6 1  
     2    6    7 1  
     3    7    8 1  
     4    1   14 1  
     5    4    5 1  
     6    3    4 1  
     7    2    3 1  
     8    1    2 1  
     9   13   14 1  
    10   12   13 1  
    11   11   12 1  
    12   10   11 1  
    13    9   10 1  
    14    8    9 1  
    15    1   15 1  
    16    1   16 1  
    17    2   17 1  
    18    2   18 1  
    19    3   19 1  
    20    3   20 1  
    21    4   21 1  
    22    4   22 1  
    23    5   23 1  
    24    5   24 1  
    25    6   25 1  
    26    6   26 1  
    27    7   27 1  
    28    7   28 1  
    29    8   29 1  
    30    8   30 1  
    31    9   31 1  
    32    9   32 1  
    33   11   33 1  
    34   11   34 1  
    35   12   35 1  
    36   12   36 1  
    37   13   37 1  
    38   13   38 1  
    39   14   39 1  
    40   14   40 1  
# Name:          frag4-414-53/48856 -- energy: -6.626166
# Creation time: Sat Jun  5 12:52:00 2010


@<TRIPOS>MOLECULE
frag4-414-53/48856 -- energy: -6.626166
   40    40     1     1     1
SMALL
USER_CHARGES


@<TRIPOS>ATOM
      1 C7         -0.3392    3.1054    1.0072 C.3        1 <1>        0.000
      2 C8         -0.8076    2.5771   -0.3426 C.3        1 <1>        0.000
      3 C9          0.0592    2.8191   -1.5739 C.3        1 <1>        0.000
      4 C10         0.2760    1.6408   -2.4906 C.3        1 <1>        0.000
      5 C11         1.1934    1.9367   -3.6180 C.3        1 <1>        0.000
      6 C12         2.6185    2.3357   -3.7002 C.3        1 <1>        0.000
      7 C13         3.4961    1.9456   -2.5459 C.3        1 <1>        0.000
      8 C14         4.4453    2.9917   -2.0008 C.3        1 <1>        0.000
      9 C15         5.3798    2.6179   -0.8726 C.3        1 <1>        0.000
     10 O3          4.7902    2.4957    0.4150 O.3        1 <1>        0.000
     11 C16         4.2120    1.3619    0.7578 C.3        1 <1>        0.000
     12 C17         3.0186    1.1565    1.6185 C.3        1 <1>        0.000
     13 C18         2.0670    2.2910    1.3456 C.3        1 <1>        0.000
     14 C19         0.6393    2.2633    1.8221 C.3        1 <1>        0.000
     15 H           0.1985    4.0261    0.7808 H.spc      1 <1>        0.000
     16 H          -1.2404    3.1639    1.6176 H.spc      1 <1>        0.000
     17 H          -0.8329    1.4936   -0.2261 H.spc      1 <1>        0.000
     18 H          -1.7369    3.1096   -0.5449 H.spc      1 <1>        0.000
     19 H          -0.4638    3.5693   -2.1671 H.spc      1 <1>        0.000
     20 H           1.0451    3.0933   -1.1984 H.spc      1 <1>        0.000
     21 H           0.7256    0.8422   -1.9005 H.spc      1 <1>        0.000
     22 H          -0.6911    1.3706   -2.9146 H.spc      1 <1>        0.000
     23 H           1.2746    0.9338   -4.0371 H.spc      1 <1>        0.000
     24 H           0.7383    2.8637   -3.9669 H.spc      1 <1>        0.000
     25 H           2.6240    3.4254   -3.7265 H.spc      1 <1>        0.000
     26 H           3.0240    1.8226   -4.5722 H.spc      1 <1>        0.000
     27 H           4.1304    1.1417   -2.9195 H.spc      1 <1>        0.000
     28 H           2.8156    1.7132   -1.7268 H.spc      1 <1>        0.000
     29 H           3.8006    3.7665   -1.5860 H.spc      1 <1>        0.000
     30 H           5.0996    3.2395   -2.8366 H.spc      1 <1>        0.000
     31 H           5.7780    1.6339   -1.1201 H.spc      1 <1>        0.000
     32 H           6.1074    3.4261   -0.7991 H.spc      1 <1>        0.000
     33 H           3.8311    1.0251   -0.2064 H.spc      1 <1>        0.000
     34 H           4.9903    0.9118    1.3740 H.spc      1 <1>        0.000
     35 H           2.5466    0.1996    1.3956 H.spc      1 <1>        0.000
     36 H           3.3039    1.1414    2.6704 H.spc      1 <1>        0.000
     37 H           2.5033    3.1290    1.8892 H.spc      1 <1>        0.000
     38 H           1.9756    2.2943    0.2594 H.spc      1 <1>        0.000
     39 H           0.3037    1.2295    1.7400 H.spc      1 <1>        0.000
     40 H           0.6398    2.6758    2.8310 H.spc      1 <1>        0.000
@<TRIPOS>BOND
     1    5    6 1  
     2    6    7 1  
     3    7    8 1  
     4    1   14 1  
     5    4    5 1  
     6    3    4 1  
     7    2    3 1  
     8    1    2 1  
     9   13   14 1  
    10   12   13 1  
    11   11   12 1  
    12   10   11 1  
    13    9   10 1  
    14    8    9 1  
    15    1   15 1  
    16    1   16 1  
    17    2   17 1  
    18    2   18 1  
    19    3   19 1  
    20    3   20 1  
    21    4   21 1  
    22    4   22 1  
    23    5   23 1  
    24    5   24 1  
    25    6   25 1  
    26    6   26 1  
    27    7   27 1  
    28    7   28 1  
    29    8   29 1  
    30    8   30 1  
    31    9   31 1  
    32    9   32 1  
    33   11   33 1  
    34   11   34 1  
    35   12   35 1  
    36   12   36 1  
    37   13   37 1  
    38   13   38 1  
    39   14   39 1  
    40   14   40 1  
# Name:          frag4-414-53/48856 -- energy: -4.860921
# Creation time: Sat Jun  5 12:52:00 2010


@<TRIPOS>MOLECULE
frag4-414-53/48856 -- energy: -4.860921
   40    40     1     1     1
SMALL
USER_CHARGES


@<TRIPOS>ATOM
      1 C7         -0.7853    2.0819    1.1949 C.3        1 <1>        0.000
      2 C8         -1.0025    2.6885   -0.1679 C.3        1 <1>        0.000
      3 C9         -0.3766    2.0284   -1.3803 C.3        1 <1>        0.000
      4 C10         0.2858    2.9850   -2.3365 C.3        1 <1>        0.000
      5 C11         1.2934    2.4135   -3.2623 C.3        1 <1>        0.000
      6 C12         2.7457    2.6819   -3.4127 C.3        1 <1>        0.000
      7 C13         3.6317    1.7331   -2.6544 C.3        1 <1>        0.000
      8 C14         5.0569    2.1641   -2.3951 C.3        1 <1>        0.000
      9 C15         5.6262    2.0389   -0.9950 C.3        1 <1>        0.000
     10 O3          4.9035    2.6436    0.0469 O.3        1 <1>        0.000
     11 C16         4.2027    1.8928    0.8592 C.3        1 <1>        0.000
     12 C17         3.0955    2.2758    1.7591 C.3        1 <1>        0.000
     13 C18         1.7795    2.3537    1.0385 C.3        1 <1>        0.000
     14 C19         0.5922    1.5571    1.5271 C.3        1 <1>        0.000
     15 H          -0.9649    2.8908    1.9031 H.spc      1 <1>        0.000
     16 H          -1.4423    1.2130    1.2324 H.spc      1 <1>        0.000
     17 H          -2.0772    2.6187   -0.3361 H.spc      1 <1>        0.000
     18 H          -0.5350    3.6716   -0.1132 H.spc      1 <1>        0.000
     19 H           0.3979    1.3547   -1.0137 H.spc      1 <1>        0.000
     20 H          -1.1804    1.5350   -1.9267 H.spc      1 <1>        0.000
     21 H          -0.5115    3.3782   -2.9672 H.spc      1 <1>        0.000
     22 H           0.8219    3.7043   -1.7173 H.spc      1 <1>        0.000
     23 H           1.3309    1.3904   -2.8882 H.spc      1 <1>        0.000
     24 H           0.9302    2.8195   -4.2064 H.spc      1 <1>        0.000
     25 H           2.9303    3.6800   -3.0156 H.spc      1 <1>        0.000
     26 H           2.9851    2.5687   -4.4701 H.spc      1 <1>        0.000
     27 H           3.7039    0.8401   -3.2752 H.spc      1 <1>        0.000
     28 H           3.1740    1.6274   -1.6708 H.spc      1 <1>        0.000
     29 H           5.0672    3.2336   -2.6054 H.spc      1 <1>        0.000
     30 H           5.6653    1.4955   -3.0041 H.spc      1 <1>        0.000
     31 H           5.6319    0.9721   -0.7716 H.spc      1 <1>        0.000
     32 H           6.5904    2.5466   -1.0205 H.spc      1 <1>        0.000
     33 H           3.6728    1.2629    0.1446 H.spc      1 <1>        0.000
     34 H           4.9661    1.6151    1.5859 H.spc      1 <1>        0.000
     35 H           3.0121    1.5162    2.5364 H.spc      1 <1>        0.000
     36 H           3.3168    3.2614    2.1686 H.spc      1 <1>        0.000
     37 H           1.4715    3.3931    1.1519 H.spc      1 <1>        0.000
     38 H           1.9893    1.9455    0.0498 H.spc      1 <1>        0.000
     39 H           0.6646    0.5891    1.0312 H.spc      1 <1>        0.000
     40 H           0.6570    1.5718    2.6151 H.spc      1 <1>        0.000
@<TRIPOS>BOND
     1    5    6 1  
     2    6    7 1  
     3    7    8 1  
     4    1   14 1  
     5    4    5 1  
     6    3    4 1  
     7    2    3 1  
     8    1    2 1  
     9   13   14 1  
    10   12   13 1  
    11   11   12 1  
    12   10   11 1  
    13    9   10 1  
    14    8    9 1  
    15    1   15 1  
    16    1   16 1  
    17    2   17 1  
    18    2   18 1  
    19    3   19 1  
    20    3   20 1  
    21    4   21 1  
    22    4   22 1  
    23    5   23 1  
    24    5   24 1  
    25    6   25 1  
    26    6   26 1  
    27    7   27 1  
    28    7   28 1  
    29    8   29 1  
    30    8   30 1  
    31    9   31 1  
    32    9   32 1  
    33   11   33 1  
    34   11   34 1  
    35   12   35 1  
    36   12   36 1  
    37   13   37 1  
    38   13   38 1  
    39   14   39 1  
    40   14   40 1  
# Name:          frag4-414-53/48856 -- energy: -4.050176
# Creation time: Sat Jun  5 12:52:00 2010


@<TRIPOS>MOLECULE
frag4-414-53/48856 -- energy: -4.050176
   40    40     1     1     1
SMALL
USER_CHARGES


@<TRIPOS>ATOM
      1 C7         -0.3920    1.9592    0.9542 C.3        1 <1>        0.000
      2 C8          0.0037    2.7307   -0.3017 C.3        1 <1>        0.000
      3 C9         -0.3777    2.1753   -1.6507 C.3        1 <1>        0.000
      4 C10         0.0784    2.8783   -2.9128 C.3        1 <1>        0.000
      5 C11         1.2935    2.3168   -3.5736 C.3        1 <1>        0.000
      6 C12         2.7014    2.8374   -3.7115 C.3        1 <1>        0.000
      7 C13         3.6124    2.0029   -2.8428 C.3        1 <1>        0.000
      8 C14         4.8865    2.5175   -2.1927 C.3        1 <1>        0.000
      9 C15         5.3065    1.6991   -0.9628 C.3        1 <1>        0.000
     10 O3          4.3358    1.4896    0.0389 O.3        1 <1>        0.000
     11 C16         4.1553    2.4216    0.9472 C.3        1 <1>        0.000
     12 C17         2.9811    2.7716    1.7828 C.3        1 <1>        0.000
     13 C18         1.9703    1.6899    2.0479 C.3        1 <1>        0.000
     14 C19         0.4934    2.0486    2.1991 C.3        1 <1>        0.000
     15 H          -1.3443    2.3933    1.2586 H.spc      1 <1>        0.000
     16 H          -0.3529    0.9104    0.6600 H.spc      1 <1>        0.000
     17 H          -0.5280    3.6794   -0.2279 H.spc      1 <1>        0.000
     18 H           1.0937    2.7345   -0.2974 H.spc      1 <1>        0.000
     19 H           0.1060    1.1993   -1.6913 H.spc      1 <1>        0.000
     20 H          -1.4652    2.2440   -1.6772 H.spc      1 <1>        0.000
     21 H          -0.7351    2.7754   -3.6309 H.spc      1 <1>        0.000
     22 H           0.3328    3.8970   -2.6202 H.spc      1 <1>        0.000
     23 H           1.4797    1.4682   -2.9154 H.spc      1 <1>        0.000
     24 H           0.9765    2.3790   -4.6146 H.spc      1 <1>        0.000
     25 H           2.7433    3.8804   -3.3978 H.spc      1 <1>        0.000
     26 H           3.0201    2.7731   -4.7519 H.spc      1 <1>        0.000
     27 H           3.9878    1.2555   -3.5418 H.spc      1 <1>        0.000
     28 H           2.9809    1.7790   -1.9830 H.spc      1 <1>        0.000
     29 H           4.7013    3.5399   -1.8634 H.spc      1 <1>        0.000
     30 H           5.6872    2.4449   -2.9287 H.spc      1 <1>        0.000
     31 H           5.5585    0.7082   -1.3405 H.spc      1 <1>        0.000
     32 H           6.1027    2.2711   -0.4863 H.spc      1 <1>        0.000
     33 H           4.8272    2.0531    1.7224 H.spc      1 <1>        0.000
     34 H           4.1966    3.3060    0.3115 H.spc      1 <1>        0.000
     35 H           3.3853    3.0410    2.7586 H.spc      1 <1>        0.000
     36 H           2.4465    3.5434    1.2290 H.spc      1 <1>        0.000
     37 H           2.0085    1.0569    1.1614 H.spc      1 <1>        0.000
     38 H           2.2536    1.2830    3.0186 H.spc      1 <1>        0.000
     39 H           0.0865    1.3190    2.8992 H.spc      1 <1>        0.000
     40 H           0.4770    3.0979    2.4937 H.spc      1 <1>        0.000
@<TRIPOS>BOND
     1    5    6 1  
     2    6    7 1  
     3    7    8 1  
     4    1   14 1  
     5    4    5 1  
     6    3    4 1  
     7    2    3 1  
     8    1    2 1  
     9   13   14 1  
    10   12   13 1  
    11   11   12 1  
    12   10   11 1  
    13    9   10 1  
    14    8    9 1  
    15    1   15 1  
    16    1   16 1  
    17    2   17 1  
    18    2   18 1  
    19    3   19 1  
    20    3   20 1  
    21    4   21 1  
    22    4   22 1  
    23    5   23 1  
    24    5   24 1  
    25    6   25 1  
    26    6   26 1  
    27    7   27 1  
    28    7   28 1  
    29    8   29 1  
    30    8   30 1  
    31    9   31 1  
    32    9   32 1  
    33   11   33 1  
    34   11   34 1  
    35   12   35 1  
    36   12   36 1  
    37   13   37 1  
    38   13   38 1  
    39   14   39 1  
    40   14   40 1  
# Name:          frag4-414-53/48856 -- energy: -5.075126
# Creation time: Sat Jun  5 12:52:00 2010


@<TRIPOS>MOLECULE
frag4-414-53/48856 -- energy: -5.075126
   40    40     1     1     1
SMALL
USER_CHARGES


@<TRIPOS>ATOM
      1 C7          0.1892    2.8472    0.6175 C.3        1 <1>        0.000
      2 C8         -0.6943    2.9098   -0.6083 C.3        1 <1>        0.000
      3 C9         -0.7857    1.8094   -1.6465 C.3        1 <1>        0.000
      4 C10         0.3870    1.4444   -2.5223 C.3        1 <1>        0.000
      5 C11         1.1801    2.5811   -3.0482 C.3        1 <1>        0.000
      6 C12         2.6268    2.7234   -3.3530 C.3        1 <1>        0.000
      7 C13         3.4931    3.2558   -2.2503 C.3        1 <1>        0.000
      8 C14         4.8626    2.6641   -1.9970 C.3        1 <1>        0.000
      9 C15         4.9948    1.4256   -1.1297 C.3        1 <1>        0.000
     10 O3          4.2397    1.3080    0.0469 O.3        1 <1>        0.000
     11 C16         4.2221    2.3337    0.8717 C.3        1 <1>        0.000
     12 C17         3.2152    2.7785    1.8478 C.3        1 <1>        0.000
     13 C18         2.0760    1.8082    2.0459 C.3        1 <1>        0.000
     14 C19         1.0420    1.6492    0.9471 C.3        1 <1>        0.000
     15 H           0.9217    3.6342    0.4385 H.spc      1 <1>        0.000
     16 H          -0.5234    2.8815    1.4416 H.spc      1 <1>        0.000
     17 H          -1.6969    2.9197   -0.1807 H.spc      1 <1>        0.000
     18 H          -0.2628    3.7364   -1.1727 H.spc      1 <1>        0.000
     19 H          -0.9558    0.9099   -1.0548 H.spc      1 <1>        0.000
     20 H          -1.5288    2.1813   -2.3520 H.spc      1 <1>        0.000
     21 H           1.0643    0.8589   -1.9005 H.spc      1 <1>        0.000
     22 H          -0.0260    0.9304   -3.3902 H.spc      1 <1>        0.000
     23 H           0.7760    2.6317   -4.0592 H.spc      1 <1>        0.000
     24 H           1.1057    3.2618   -2.2001 H.spc      1 <1>        0.000
     25 H           2.6946    3.4461   -4.1661 H.spc      1 <1>        0.000
     26 H           2.9912    1.7182   -3.5649 H.spc      1 <1>        0.000
     27 H           2.9339    3.0381   -1.3404 H.spc      1 <1>        0.000
     28 H           3.6954    4.2866   -2.5414 H.spc      1 <1>        0.000
     29 H           5.4024    3.4400   -1.4542 H.spc      1 <1>        0.000
     30 H           5.2143    2.3514   -2.9802 H.spc      1 <1>        0.000
     31 H           4.6414    0.6114   -1.7624 H.spc      1 <1>        0.000
     32 H           6.0298    1.4417   -0.7883 H.spc      1 <1>        0.000
     33 H           5.0211    2.0381    1.5517 H.spc      1 <1>        0.000
     34 H           4.1546    3.1491    0.1515 H.spc      1 <1>        0.000
     35 H           3.7210    2.8816    2.8078 H.spc      1 <1>        0.000
     36 H           2.7861    3.7056    1.4679 H.spc      1 <1>        0.000
     37 H           2.5517    0.8308    2.1259 H.spc      1 <1>        0.000
     38 H           1.5205    2.1992    2.8983 H.spc      1 <1>        0.000
     39 H           1.6073    1.4326    0.0407 H.spc      1 <1>        0.000
     40 H           0.3506    0.8851    1.3025 H.spc      1 <1>        0.000
@<TRIPOS>BOND
     1    5    6 1  
     2    6    7 1  
     3    7    8 1  
     4    1   14 1  
     5    4    5 1  
     6    3    4 1  
     7    2    3 1  
     8    1    2 1  
     9   13   14 1  
    10   12   13 1  
    11   11   12 1  
    12   10   11 1  
    13    9   10 1  
    14    8    9 1  
    15    1   15 1  
    16    1   16 1  
    17    2   17 1  
    18    2   18 1  
    19    3   19 1  
    20    3   20 1  
    21    4   21 1  
    22    4   22 1  
    23    5   23 1  
    24    5   24 1  
    25    6   25 1  
    26    6   26 1  
    27    7   27 1  
    28    7   28 1  
    29    8   29 1  
    30    8   30 1  
    31    9   31 1  
    32    9   32 1  
    33   11   33 1  
    34   11   34 1  
    35   12   35 1  
    36   12   36 1  
    37   13   37 1  
    38   13   38 1  
    39   14   39 1  
    40   14   40 1  
