#      Rotatable Fragment
#      Build by yxyuan
#
# Name:          frag4-445-41/48856
# Creation time: Sat Jun  5 12:52:48 2010


@<TRIPOS>MOLECULE
frag4-445-41/48856
   28    30     1     1     1
SMALL
USER_CHARGES


@<TRIPOS>ATOM
      1 N1          0.3896    0.6457   -1.3241 N.pl3      1 <1>        0.000
      2 C1          1.4378    0.2467   -0.5494 C.ar       1 <1>        0.000
      3 C2          1.3666   -0.4896    0.6586 C.ar       1 <1>        0.000
      4 C3          2.5340   -1.0454    1.2008 C.ar       1 <1>        0.000
      5 C4          3.7815   -0.8255    0.6235 C.ar       1 <1>        0.000
      6 C5          3.8802    0.0346   -0.4672 C.ar       1 <1>        0.000
      7 C6          2.7234    0.5946   -0.9997 C.ar       1 <1>        0.000
      8 C7          0.0611   -0.7627    1.4018 C.3        1 <1>        0.000
      9 C8         -0.9115   -1.4180    0.4111 C.3        1 <1>        0.000
     10 C9         -1.6392   -0.2881   -0.2943 C.ar       1 <1>        0.000
     11 C10        -0.9420    0.6767   -1.0503 C.ar       1 <1>        0.000
     12 C11        -1.6811    1.7378   -1.5993 C.ar       1 <1>        0.000
     13 C12        -3.0627    1.8309   -1.4527 C.ar       1 <1>        0.000
     14 C13        -3.7464    0.8427   -0.7471 C.ar       1 <1>        0.000
     15 C14        -3.0321   -0.2082   -0.1787 C.ar       1 <1>        0.000
     16 H           0.6442    0.9726   -2.2562 H.spc      1 <1>        0.000
     17 H           2.4631   -1.6642    2.0953 H.spc      1 <1>        0.000
     18 H           4.6686   -1.3196    1.0197 H.spc      1 <1>        0.000
     19 H           4.8537    0.2666   -0.8992 H.spc      1 <1>        0.000
     20 H           2.8174    1.3318   -1.7971 H.spc      1 <1>        0.000
     21 H           0.2390   -1.4222    2.2513 H.spc      1 <1>        0.000
     22 H          -0.3582    0.1671    1.7863 H.spc      1 <1>        0.000
     23 H          -0.3764   -2.0427   -0.3041 H.spc      1 <1>        0.000
     24 H          -1.6146   -2.0700    0.9295 H.spc      1 <1>        0.000
     25 H          -1.1563    2.5129   -2.1578 H.spc      1 <1>        0.000
     26 H          -3.6055    2.6706   -1.8867 H.spc      1 <1>        0.000
     27 H          -4.8301    0.8922   -0.6413 H.spc      1 <1>        0.000
     28 H          -3.5681   -0.9845    0.3674 H.spc      1 <1>        0.000
@<TRIPOS>BOND
     1    2    3 ar 
     2   14   15 ar 
     3   13   14 ar 
     4   12   13 ar 
     5    1   11 1  
     6    6    7 ar 
     7    9   10 1  
     8    8    9 1  
     9    1    2 1  
    10    5    6 ar 
    11   10   15 ar 
    12    4    5 ar 
    13    3    4 ar 
    14   10   11 ar 
    15    3    8 1  
    16   11   12 ar 
    17    2    7 ar 
    18    1   16 1  
    19    4   17 1  
    20    5   18 1  
    21    6   19 1  
    22    7   20 1  
    23    8   21 1  
    24    8   22 1  
    25    9   23 1  
    26    9   24 1  
    27   12   25 1  
    28   13   26 1  
    29   14   27 1  
    30   15   28 1  
# Name:          frag4-445-41/48856 -- energy: -2.239247
# Creation time: Sat Jun  5 12:52:48 2010


@<TRIPOS>MOLECULE
frag4-445-41/48856 -- energy: -2.239247
   28    30     1     1     1
SMALL
USER_CHARGES


@<TRIPOS>ATOM
      1 N1          0.3896    0.6457   -1.3241 N.pl3      1 <1>        0.000
      2 C1          1.4378    0.2467   -0.5494 C.ar       1 <1>        0.000
      3 C2          1.3666   -0.4896    0.6586 C.ar       1 <1>        0.000
      4 C3          2.5340   -1.0454    1.2008 C.ar       1 <1>        0.000
      5 C4          3.7815   -0.8255    0.6235 C.ar       1 <1>        0.000
      6 C5          3.8802    0.0346   -0.4672 C.ar       1 <1>        0.000
      7 C6          2.7234    0.5946   -0.9997 C.ar       1 <1>        0.000
      8 C7          0.0611   -0.7627    1.4018 C.3        1 <1>        0.000
      9 C8         -0.9115   -1.4180    0.4111 C.3        1 <1>        0.000
     10 C9         -1.6392   -0.2881   -0.2943 C.ar       1 <1>        0.000
     11 C10        -0.9420    0.6767   -1.0503 C.ar       1 <1>        0.000
     12 C11        -1.6811    1.7378   -1.5993 C.ar       1 <1>        0.000
     13 C12        -3.0627    1.8309   -1.4527 C.ar       1 <1>        0.000
     14 C13        -3.7464    0.8427   -0.7471 C.ar       1 <1>        0.000
     15 C14        -3.0321   -0.2082   -0.1787 C.ar       1 <1>        0.000
     16 H           0.6442    0.9726   -2.2562 H.spc      1 <1>        0.000
     17 H           2.4631   -1.6642    2.0953 H.spc      1 <1>        0.000
     18 H           4.6686   -1.3196    1.0197 H.spc      1 <1>        0.000
     19 H           4.8537    0.2666   -0.8992 H.spc      1 <1>        0.000
     20 H           2.8174    1.3318   -1.7971 H.spc      1 <1>        0.000
     21 H           0.2390   -1.4222    2.2513 H.spc      1 <1>        0.000
     22 H          -0.3582    0.1671    1.7863 H.spc      1 <1>        0.000
     23 H          -0.3764   -2.0427   -0.3041 H.spc      1 <1>        0.000
     24 H          -1.6146   -2.0700    0.9295 H.spc      1 <1>        0.000
     25 H          -1.1563    2.5129   -2.1578 H.spc      1 <1>        0.000
     26 H          -3.6055    2.6706   -1.8867 H.spc      1 <1>        0.000
     27 H          -4.8301    0.8922   -0.6413 H.spc      1 <1>        0.000
     28 H          -3.5681   -0.9845    0.3674 H.spc      1 <1>        0.000
@<TRIPOS>BOND
     1    2    3 ar 
     2   14   15 ar 
     3   13   14 ar 
     4   12   13 ar 
     5    1   11 1  
     6    6    7 ar 
     7    9   10 1  
     8    8    9 1  
     9    1    2 1  
    10    5    6 ar 
    11   10   15 ar 
    12    4    5 ar 
    13    3    4 ar 
    14   10   11 ar 
    15    3    8 1  
    16   11   12 ar 
    17    2    7 ar 
    18    1   16 1  
    19    4   17 1  
    20    5   18 1  
    21    6   19 1  
    22    7   20 1  
    23    8   21 1  
    24    8   22 1  
    25    9   23 1  
    26    9   24 1  
    27   12   25 1  
    28   13   26 1  
    29   14   27 1  
    30   15   28 1  
