#      Rotatable Fragment
#      Build by yxyuan
#
# Name:          frag5-663-67/138278
# Creation time: Sat Jun  5 12:51:51 2010


@<TRIPOS>MOLECULE
frag5-663-67/138278
   22    23     1     1     1
SMALL
USER_CHARGES


@<TRIPOS>ATOM
      1 C14        -1.8457    0.8216    0.4216 C.ar       1 <1>        0.000
      2 C16        -0.6716    1.5184    0.1272 C.ar       1 <1>        0.000
      3 C17        -1.7993   -0.5531    0.6719 C.ar       1 <1>        0.000
      4 C18         0.5539    0.8450    0.0861 C.ar       1 <1>        0.000
      5 C19        -0.5904   -1.2385    0.5802 C.ar       1 <1>        0.000
      6 C20         0.5834   -0.5516    0.2551 C.ar       1 <1>        0.000
      7 C21         1.7523    1.5343   -0.1239 C.ar       1 <1>        0.000
      8 C22         1.7844   -1.2467    0.0881 C.ar       1 <1>        0.000
      9 C23         2.9538    0.8336   -0.2581 C.ar       1 <1>        0.000
     10 C24         2.9604   -0.5633   -0.2219 C.ar       1 <1>        0.000
     11 C25         4.2208   -1.3436   -0.5310 C.2        1 <1>        0.000
     12 N1          4.4262   -2.5694   -0.0025 N.am       1 <1>        0.000
     13 O3          5.0368   -0.8209   -1.2763 O.2        1 <1>        0.000
     14 H          -2.7985    1.3498    0.4562 H.spc      1 <1>        0.000
     15 H          -0.7103    2.5895   -0.0710 H.spc      1 <1>        0.000
     16 H          -2.7101   -1.0889    0.9391 H.spc      1 <1>        0.000
     17 H          -0.5592   -2.3127    0.7622 H.spc      1 <1>        0.000
     18 H           1.7492    2.6227   -0.1832 H.spc      1 <1>        0.000
     19 H           1.8023   -2.3307    0.2009 H.spc      1 <1>        0.000
     20 H           3.8885    1.3782   -0.3914 H.spc      1 <1>        0.000
     21 H           5.2795   -3.0832   -0.2224 H.spc      1 <1>        0.000
     22 H           3.7281   -2.9814    0.6166 H.spc      1 <1>        0.000
@<TRIPOS>BOND
     1    6    8 ar 
     2    7    9 ar 
     3    9   10 ar 
     4    2    4 ar 
     5   11   12 am 
     6    8   10 ar 
     7    5    6 ar 
     8   10   11 1  
     9   11   13 2  
    10    4    7 ar 
    11    3    5 ar 
    12    1    3 ar 
    13    4    6 ar 
    14    1    2 ar 
    15    1   14 1  
    16    2   15 1  
    17    3   16 1  
    18    5   17 1  
    19    7   18 1  
    20    8   19 1  
    21    9   20 1  
    22   12   21 1  
    23   12   22 1  
# Name:          frag5-663-67/138278
# Creation time: Sat Jun  5 12:51:51 2010


@<TRIPOS>MOLECULE
frag5-663-67/138278
   22    23     1     1     1
SMALL
USER_CHARGES


@<TRIPOS>ATOM
      1 C14        -1.8548    0.7921    0.4208 C.ar       1 <1>        0.000
      2 C16        -0.7220    1.4587   -0.0516 C.ar       1 <1>        0.000
      3 C17        -1.7476   -0.5175    0.8983 C.ar       1 <1>        0.000
      4 C18         0.5230    0.8208   -0.0446 C.ar       1 <1>        0.000
      5 C19        -0.5212   -1.1764    0.8584 C.ar       1 <1>        0.000
      6 C20         0.6101   -0.5248    0.3575 C.ar       1 <1>        0.000
      7 C21         1.6844    1.4951   -0.4341 C.ar       1 <1>        0.000
      8 C22         1.8252   -1.2063    0.2458 C.ar       1 <1>        0.000
      9 C23         2.9018    0.8137   -0.5128 C.ar       1 <1>        0.000
     10 C24         2.9596   -0.5555   -0.2399 C.ar       1 <1>        0.000
     11 C25         4.2299   -1.3440   -0.4807 C.2        1 <1>        0.000
     12 N1          4.2090   -2.4978   -1.1824 N.am       1 <1>        0.000
     13 O3          5.2675   -0.8924   -0.0183 O.2        1 <1>        0.000
     14 H          -2.8228    1.2931    0.4172 H.spc      1 <1>        0.000
     15 H          -0.8082    2.4785   -0.4267 H.spc      1 <1>        0.000
     16 H          -2.6246   -1.0233    1.3022 H.spc      1 <1>        0.000
     17 H          -0.4431   -2.2023    1.2184 H.spc      1 <1>        0.000
     18 H           1.6399    2.5567   -0.6773 H.spc      1 <1>        0.000
     19 H           1.8870   -2.2539    0.5403 H.spc      1 <1>        0.000
     20 H           3.8089    1.3518   -0.7879 H.spc      1 <1>        0.000
     21 H           5.0738   -3.0158   -1.3380 H.spc      1 <1>        0.000
     22 H           3.3284   -2.8512   -1.5567 H.spc      1 <1>        0.000
@<TRIPOS>BOND
     1    6    8 ar 
     2    7    9 ar 
     3    9   10 ar 
     4    2    4 ar 
     5   11   12 am 
     6    8   10 ar 
     7    5    6 ar 
     8   10   11 1  
     9   11   13 2  
    10    4    7 ar 
    11    3    5 ar 
    12    1    3 ar 
    13    4    6 ar 
    14    1    2 ar 
    15    1   14 1  
    16    2   15 1  
    17    3   16 1  
    18    5   17 1  
    19    7   18 1  
    20    8   19 1  
    21    9   20 1  
    22   12   21 1  
    23   12   22 1  
# Name:          frag5-663-67/138278
# Creation time: Sat Jun  5 12:51:51 2010


@<TRIPOS>MOLECULE
frag5-663-67/138278
   22    23     1     1     1
SMALL
USER_CHARGES


@<TRIPOS>ATOM
      1 C14        -1.8368    0.8612    0.4072 C.ar       1 <1>        0.000
      2 C16        -0.6346    1.5490    0.2276 C.ar       1 <1>        0.000
      3 C17        -1.8355   -0.5323    0.5198 C.ar       1 <1>        0.000
      4 C18         0.5740    0.8473    0.1640 C.ar       1 <1>        0.000
      5 C19        -0.6418   -1.2404    0.4041 C.ar       1 <1>        0.000
      6 C20         0.5610   -0.5594    0.1929 C.ar       1 <1>        0.000
      7 C21         1.7969    1.5186    0.0684 C.ar       1 <1>        0.000
      8 C22         1.7496   -1.2696    0.0013 C.ar       1 <1>        0.000
      9 C23         2.9845    0.7996   -0.0913 C.ar       1 <1>        0.000
     10 C24         2.9539   -0.5936   -0.1951 C.ar       1 <1>        0.000
     11 C25         4.2053   -1.3757   -0.5349 C.2        1 <1>        0.000
     12 N1          5.3958   -0.7539   -0.6772 N.am       1 <1>        0.000
     13 O3          4.0925   -2.5853   -0.6705 O.2        1 <1>        0.000
     14 H          -2.7765    1.4111    0.4596 H.spc      1 <1>        0.000
     15 H          -0.6380    2.6352    0.1368 H.spc      1 <1>        0.000
     16 H          -2.7695   -1.0650    0.6983 H.spc      1 <1>        0.000
     17 H          -0.6452   -2.3279    0.4784 H.spc      1 <1>        0.000
     18 H           1.8240    2.6071    0.1186 H.spc      1 <1>        0.000
     19 H           1.7353   -2.3595    0.0054 H.spc      1 <1>        0.000
     20 H           3.9374    1.3270   -0.1350 H.spc      1 <1>        0.000
     21 H           6.2301   -1.2953   -0.9035 H.spc      1 <1>        0.000
     22 H           5.4606    0.2571   -0.5583 H.spc      1 <1>        0.000
@<TRIPOS>BOND
     1    6    8 ar 
     2    7    9 ar 
     3    9   10 ar 
     4    2    4 ar 
     5   11   12 am 
     6    8   10 ar 
     7    5    6 ar 
     8   10   11 1  
     9   11   13 2  
    10    4    7 ar 
    11    3    5 ar 
    12    1    3 ar 
    13    4    6 ar 
    14    1    2 ar 
    15    1   14 1  
    16    2   15 1  
    17    3   16 1  
    18    5   17 1  
    19    7   18 1  
    20    8   19 1  
    21    9   20 1  
    22   12   21 1  
    23   12   22 1  
# Name:          frag5-663-67/138278 -- energy: -1.002308
# Creation time: Sat Jun  5 12:51:51 2010


@<TRIPOS>MOLECULE
frag5-663-67/138278 -- energy: -1.002308
   22    23     1     1     1
SMALL
USER_CHARGES


@<TRIPOS>ATOM
      1 C14        -1.8457    0.8216    0.4216 C.ar       1 <1>        0.000
      2 C16        -0.6716    1.5184    0.1272 C.ar       1 <1>        0.000
      3 C17        -1.7993   -0.5531    0.6719 C.ar       1 <1>        0.000
      4 C18         0.5539    0.8450    0.0861 C.ar       1 <1>        0.000
      5 C19        -0.5904   -1.2385    0.5802 C.ar       1 <1>        0.000
      6 C20         0.5834   -0.5516    0.2551 C.ar       1 <1>        0.000
      7 C21         1.7523    1.5343   -0.1239 C.ar       1 <1>        0.000
      8 C22         1.7844   -1.2467    0.0881 C.ar       1 <1>        0.000
      9 C23         2.9538    0.8336   -0.2581 C.ar       1 <1>        0.000
     10 C24         2.9604   -0.5633   -0.2219 C.ar       1 <1>        0.000
     11 C25         4.2208   -1.3436   -0.5310 C.2        1 <1>        0.000
     12 N1          4.4262   -2.5694   -0.0025 N.am       1 <1>        0.000
     13 O3          5.0368   -0.8209   -1.2763 O.2        1 <1>        0.000
     14 H          -2.7985    1.3498    0.4562 H.spc      1 <1>        0.000
     15 H          -0.7103    2.5895   -0.0710 H.spc      1 <1>        0.000
     16 H          -2.7101   -1.0889    0.9391 H.spc      1 <1>        0.000
     17 H          -0.5592   -2.3127    0.7622 H.spc      1 <1>        0.000
     18 H           1.7492    2.6227   -0.1832 H.spc      1 <1>        0.000
     19 H           1.8023   -2.3307    0.2009 H.spc      1 <1>        0.000
     20 H           3.8885    1.3782   -0.3914 H.spc      1 <1>        0.000
     21 H           5.2795   -3.0832   -0.2224 H.spc      1 <1>        0.000
     22 H           3.7281   -2.9814    0.6166 H.spc      1 <1>        0.000
@<TRIPOS>BOND
     1    6    8 ar 
     2    7    9 ar 
     3    9   10 ar 
     4    2    4 ar 
     5   11   12 am 
     6    8   10 ar 
     7    5    6 ar 
     8   10   11 1  
     9   11   13 2  
    10    4    7 ar 
    11    3    5 ar 
    12    1    3 ar 
    13    4    6 ar 
    14    1    2 ar 
    15    1   14 1  
    16    2   15 1  
    17    3   16 1  
    18    5   17 1  
    19    7   18 1  
    20    8   19 1  
    21    9   20 1  
    22   12   21 1  
    23   12   22 1  
# Name:          frag5-663-67/138278 -- energy: -1.181793
# Creation time: Sat Jun  5 12:51:51 2010


@<TRIPOS>MOLECULE
frag5-663-67/138278 -- energy: -1.181793
   22    23     1     1     1
SMALL
USER_CHARGES


@<TRIPOS>ATOM
      1 C14        -1.8548    0.7921    0.4208 C.ar       1 <1>        0.000
      2 C16        -0.7220    1.4587   -0.0516 C.ar       1 <1>        0.000
      3 C17        -1.7476   -0.5175    0.8983 C.ar       1 <1>        0.000
      4 C18         0.5230    0.8208   -0.0446 C.ar       1 <1>        0.000
      5 C19        -0.5212   -1.1764    0.8584 C.ar       1 <1>        0.000
      6 C20         0.6101   -0.5248    0.3575 C.ar       1 <1>        0.000
      7 C21         1.6844    1.4951   -0.4341 C.ar       1 <1>        0.000
      8 C22         1.8252   -1.2063    0.2458 C.ar       1 <1>        0.000
      9 C23         2.9018    0.8137   -0.5128 C.ar       1 <1>        0.000
     10 C24         2.9596   -0.5555   -0.2399 C.ar       1 <1>        0.000
     11 C25         4.2299   -1.3440   -0.4807 C.2        1 <1>        0.000
     12 N1          4.2090   -2.4978   -1.1824 N.am       1 <1>        0.000
     13 O3          5.2675   -0.8924   -0.0183 O.2        1 <1>        0.000
     14 H          -2.8228    1.2931    0.4172 H.spc      1 <1>        0.000
     15 H          -0.8082    2.4785   -0.4267 H.spc      1 <1>        0.000
     16 H          -2.6246   -1.0233    1.3022 H.spc      1 <1>        0.000
     17 H          -0.4431   -2.2023    1.2184 H.spc      1 <1>        0.000
     18 H           1.6399    2.5567   -0.6773 H.spc      1 <1>        0.000
     19 H           1.8870   -2.2539    0.5403 H.spc      1 <1>        0.000
     20 H           3.8089    1.3518   -0.7879 H.spc      1 <1>        0.000
     21 H           5.0738   -3.0158   -1.3380 H.spc      1 <1>        0.000
     22 H           3.3284   -2.8512   -1.5567 H.spc      1 <1>        0.000
@<TRIPOS>BOND
     1    6    8 ar 
     2    7    9 ar 
     3    9   10 ar 
     4    2    4 ar 
     5   11   12 am 
     6    8   10 ar 
     7    5    6 ar 
     8   10   11 1  
     9   11   13 2  
    10    4    7 ar 
    11    3    5 ar 
    12    1    3 ar 
    13    4    6 ar 
    14    1    2 ar 
    15    1   14 1  
    16    2   15 1  
    17    3   16 1  
    18    5   17 1  
    19    7   18 1  
    20    8   19 1  
    21    9   20 1  
    22   12   21 1  
    23   12   22 1  
# Name:          frag5-663-67/138278 -- energy: -0.556239
# Creation time: Sat Jun  5 12:51:51 2010


@<TRIPOS>MOLECULE
frag5-663-67/138278 -- energy: -0.556239
   22    23     1     1     1
SMALL
USER_CHARGES


@<TRIPOS>ATOM
      1 C14        -1.8368    0.8612    0.4072 C.ar       1 <1>        0.000
      2 C16        -0.6346    1.5490    0.2276 C.ar       1 <1>        0.000
      3 C17        -1.8355   -0.5323    0.5198 C.ar       1 <1>        0.000
      4 C18         0.5740    0.8473    0.1640 C.ar       1 <1>        0.000
      5 C19        -0.6418   -1.2404    0.4041 C.ar       1 <1>        0.000
      6 C20         0.5610   -0.5594    0.1929 C.ar       1 <1>        0.000
      7 C21         1.7969    1.5186    0.0684 C.ar       1 <1>        0.000
      8 C22         1.7496   -1.2696    0.0013 C.ar       1 <1>        0.000
      9 C23         2.9845    0.7996   -0.0913 C.ar       1 <1>        0.000
     10 C24         2.9539   -0.5936   -0.1951 C.ar       1 <1>        0.000
     11 C25         4.2053   -1.3757   -0.5349 C.2        1 <1>        0.000
     12 N1          5.3958   -0.7539   -0.6772 N.am       1 <1>        0.000
     13 O3          4.0925   -2.5853   -0.6705 O.2        1 <1>        0.000
     14 H          -2.7765    1.4111    0.4596 H.spc      1 <1>        0.000
     15 H          -0.6380    2.6352    0.1368 H.spc      1 <1>        0.000
     16 H          -2.7695   -1.0650    0.6983 H.spc      1 <1>        0.000
     17 H          -0.6452   -2.3279    0.4784 H.spc      1 <1>        0.000
     18 H           1.8240    2.6071    0.1186 H.spc      1 <1>        0.000
     19 H           1.7353   -2.3595    0.0054 H.spc      1 <1>        0.000
     20 H           3.9374    1.3270   -0.1350 H.spc      1 <1>        0.000
     21 H           6.2301   -1.2953   -0.9035 H.spc      1 <1>        0.000
     22 H           5.4606    0.2571   -0.5583 H.spc      1 <1>        0.000
@<TRIPOS>BOND
     1    6    8 ar 
     2    7    9 ar 
     3    9   10 ar 
     4    2    4 ar 
     5   11   12 am 
     6    8   10 ar 
     7    5    6 ar 
     8   10   11 1  
     9   11   13 2  
    10    4    7 ar 
    11    3    5 ar 
    12    1    3 ar 
    13    4    6 ar 
    14    1    2 ar 
    15    1   14 1  
    16    2   15 1  
    17    3   16 1  
    18    5   17 1  
    19    7   18 1  
    20    8   19 1  
    21    9   20 1  
    22   12   21 1  
    23   12   22 1  
