#      Rotatable Fragment
#      Build by yxyuan
#
# Name:          frag5-524-114/41815
# Creation time: Sat Jun  5 12:52:51 2010


@<TRIPOS>MOLECULE
frag5-524-114/41815
   22    23     1     1     1
SMALL
USER_CHARGES


@<TRIPOS>ATOM
      1 C41        -0.0773   -3.3053   -0.5881 C.ar       1 <1>        0.000
      2 C42        -1.3354   -3.9037   -0.6413 C.ar       1 <1>        0.000
      3 C43        -1.4465   -5.2228   -1.1237 C.ar       1 <1>        0.000
      4 C44        -0.3061   -5.9180   -1.5545 C.ar       1 <1>        0.000
      5 C45         0.9397   -5.2863   -1.4840 C.ar       1 <1>        0.000
      6 C46         1.0772   -3.9797   -1.0065 C.ar       1 <1>        0.000
      7 O22         2.3300   -3.3913   -0.9588 O.3        1 <1>        0.000
      8 O23        -0.4419   -7.2113   -2.0407 O.3        1 <1>        0.000
      9 C47        -2.8088   -5.9164   -1.1877 C.3        1 <1>        0.000
     10 C48        -3.8262   -5.1844   -0.2890 C.3        1 <1>        0.000
     11 C49        -3.7450   -3.6766   -0.5907 C.3        1 <1>        0.000
     12 O24        -2.4525   -3.1979   -0.2162 O.3        1 <1>        0.000
     13 H           0.0104   -2.2863   -0.2112 H.spc      1 <1>        0.000
     14 H           1.8277   -5.8276   -1.8103 H.spc      1 <1>        0.000
     15 H           2.9860   -4.0109   -1.2864 H.spc      1 <1>        0.000
     16 H          -1.3664   -7.4680   -2.0101 H.spc      1 <1>        0.000
     17 H          -2.7014   -6.9436   -0.8393 H.spc      1 <1>        0.000
     18 H          -3.1677   -5.9006   -2.2168 H.spc      1 <1>        0.000
     19 H          -4.8328   -5.5512   -0.4899 H.spc      1 <1>        0.000
     20 H          -3.5961   -5.3676    0.7606 H.spc      1 <1>        0.000
     21 H          -4.5118   -3.1464   -0.0260 H.spc      1 <1>        0.000
     22 H          -3.9071   -3.5048   -1.6548 H.spc      1 <1>        0.000
@<TRIPOS>BOND
     1    1    6 ar 
     2    4    5 ar 
     3    2   12 1  
     4    3    9 1  
     5   10   11 1  
     6    6    7 1  
     7   11   12 1  
     8    4    8 1  
     9    3    4 ar 
    10    5    6 ar 
    11    2    3 ar 
    12    1    2 ar 
    13    9   10 1  
    14    1   13 1  
    15    5   14 1  
    16    7   15 1  
    17    8   16 1  
    18    9   17 1  
    19    9   18 1  
    20   10   19 1  
    21   10   20 1  
    22   11   21 1  
    23   11   22 1  
# Name:          frag5-524-114/41815 -- energy: -0.135508
# Creation time: Sat Jun  5 12:52:51 2010


@<TRIPOS>MOLECULE
frag5-524-114/41815 -- energy: -0.135508
   22    23     1     1     1
SMALL
USER_CHARGES


@<TRIPOS>ATOM
      1 C41        -0.0773   -3.3053   -0.5881 C.ar       1 <1>        0.000
      2 C42        -1.3354   -3.9037   -0.6413 C.ar       1 <1>        0.000
      3 C43        -1.4465   -5.2228   -1.1237 C.ar       1 <1>        0.000
      4 C44        -0.3061   -5.9180   -1.5545 C.ar       1 <1>        0.000
      5 C45         0.9397   -5.2863   -1.4840 C.ar       1 <1>        0.000
      6 C46         1.0772   -3.9797   -1.0065 C.ar       1 <1>        0.000
      7 O22         2.3300   -3.3913   -0.9588 O.3        1 <1>        0.000
      8 O23        -0.4419   -7.2113   -2.0407 O.3        1 <1>        0.000
      9 C47        -2.8088   -5.9164   -1.1877 C.3        1 <1>        0.000
     10 C48        -3.8262   -5.1844   -0.2890 C.3        1 <1>        0.000
     11 C49        -3.7450   -3.6766   -0.5907 C.3        1 <1>        0.000
     12 O24        -2.4525   -3.1979   -0.2162 O.3        1 <1>        0.000
     13 H           0.0104   -2.2863   -0.2112 H.spc      1 <1>        0.000
     14 H           1.8277   -5.8276   -1.8103 H.spc      1 <1>        0.000
     15 H           2.9860   -4.0109   -1.2864 H.spc      1 <1>        0.000
     16 H          -1.3664   -7.4680   -2.0101 H.spc      1 <1>        0.000
     17 H          -2.7014   -6.9436   -0.8393 H.spc      1 <1>        0.000
     18 H          -3.1677   -5.9006   -2.2168 H.spc      1 <1>        0.000
     19 H          -4.8328   -5.5512   -0.4899 H.spc      1 <1>        0.000
     20 H          -3.5961   -5.3676    0.7606 H.spc      1 <1>        0.000
     21 H          -4.5118   -3.1464   -0.0260 H.spc      1 <1>        0.000
     22 H          -3.9071   -3.5048   -1.6548 H.spc      1 <1>        0.000
@<TRIPOS>BOND
     1    1    6 ar 
     2    4    5 ar 
     3    2   12 1  
     4    3    9 1  
     5   10   11 1  
     6    6    7 1  
     7   11   12 1  
     8    4    8 1  
     9    3    4 ar 
    10    5    6 ar 
    11    2    3 ar 
    12    1    2 ar 
    13    9   10 1  
    14    1   13 1  
    15    5   14 1  
    16    7   15 1  
    17    8   16 1  
    18    9   17 1  
    19    9   18 1  
    20   10   19 1  
    21   10   20 1  
    22   11   21 1  
    23   11   22 1  
