#      Rotatable Fragment
#      Build by yxyuan
#
# Name:          frag3-174-13/96164
# Creation time: Sat Jun  5 12:53:07 2010


@<TRIPOS>MOLECULE
frag3-174-13/96164
    9     8     1     1     1
SMALL
USER_CHARGES


@<TRIPOS>ATOM
      1 N1          1.7365    1.0671    0.8054 N.am       1 <1>        0.000
      2 C1          2.6680    1.8263    0.2097 C.2        1 <1>        0.000
      3 O1          1.8091   -0.2098    1.3461 O.3        1 <1>        0.000
      4 O2          2.7108    2.9920   -0.1615 O.2        1 <1>        0.000
      5 C5          2.9954   -0.8144    1.5090 C.2        1 <1>        0.000
      6 O3          4.1531   -0.4462    1.4501 O.2        1 <1>        0.000
      7 H           0.8166    1.5026    0.8728 H.spc      1 <1>        0.000
      8 H           3.5930    1.2846    0.0121 H.spc      1 <1>        0.000
      9 H           2.9005   -1.8737    1.7478 H.spc      1 <1>        0.000
@<TRIPOS>BOND
     1    1    2 am 
     2    1    3 1  
     3    2    4 2  
     4    3    5 1  
     5    5    6 2  
     6    1    7 1  
     7    2    8 1  
     8    5    9 1  
# Name:          frag3-174-13/96164
# Creation time: Sat Jun  5 12:53:07 2010


@<TRIPOS>MOLECULE
frag3-174-13/96164
    9     8     1     1     1
SMALL
USER_CHARGES


@<TRIPOS>ATOM
      1 N1          1.9588    1.1072    0.6085 N.am       1 <1>        0.000
      2 C1          2.4353    2.3139    0.4329 C.2        1 <1>        0.000
      3 O1          2.1582   -0.0063    1.3708 O.3        1 <1>        0.000
      4 O2          2.2843    3.1184   -0.4930 O.2        1 <1>        0.000
      5 C5          3.3564   -0.6169    1.2903 C.2        1 <1>        0.000
      6 O3          3.8799   -1.5014    1.9492 O.2        1 <1>        0.000
      7 H           1.1846    0.9472   -0.0360 H.spc      1 <1>        0.000
      8 H           3.0742    2.6697    1.2412 H.spc      1 <1>        0.000
      9 H           3.9815   -0.2488    0.4768 H.spc      1 <1>        0.000
@<TRIPOS>BOND
     1    1    2 am 
     2    1    3 1  
     3    2    4 2  
     4    3    5 1  
     5    5    6 2  
     6    1    7 1  
     7    2    8 1  
     8    5    9 1  
# Name:          frag3-174-13/96164
# Creation time: Sat Jun  5 12:53:07 2010


@<TRIPOS>MOLECULE
frag3-174-13/96164
    9     8     1     1     1
SMALL
USER_CHARGES


@<TRIPOS>ATOM
      1 N1          1.5907    0.9367    0.5149 N.am       1 <1>        0.000
      2 C1          2.0906    1.9726   -0.1688 C.2        1 <1>        0.000
      3 O1          2.1323    0.1173    1.4656 O.3        1 <1>        0.000
      4 O2          2.8484    2.8459    0.2333 O.2        1 <1>        0.000
      5 C5          3.4184   -0.2262    1.3662 C.2        1 <1>        0.000
      6 O3          3.9924   -1.2312    1.7475 O.2        1 <1>        0.000
      7 H           0.6221    0.7168    0.2827 H.spc      1 <1>        0.000
      8 H           1.7854    2.0482   -1.2125 H.spc      1 <1>        0.000
      9 H           4.0534    0.5055    0.8667 H.spc      1 <1>        0.000
@<TRIPOS>BOND
     1    1    2 am 
     2    1    3 1  
     3    2    4 2  
     4    3    5 1  
     5    5    6 2  
     6    1    7 1  
     7    2    8 1  
     8    5    9 1  
# Name:          frag3-174-13/96164 -- energy: -0.284889
# Creation time: Sat Jun  5 12:53:07 2010


@<TRIPOS>MOLECULE
frag3-174-13/96164 -- energy: -0.284889
    9     8     1     1     1
SMALL
USER_CHARGES


@<TRIPOS>ATOM
      1 N1          1.7365    1.0671    0.8054 N.am       1 <1>        0.000
      2 C1          2.6680    1.8263    0.2097 C.2        1 <1>        0.000
      3 O1          1.8091   -0.2098    1.3461 O.3        1 <1>        0.000
      4 O2          2.7108    2.9920   -0.1615 O.2        1 <1>        0.000
      5 C5          2.9954   -0.8144    1.5090 C.2        1 <1>        0.000
      6 O3          4.1531   -0.4462    1.4501 O.2        1 <1>        0.000
      7 H           0.8166    1.5026    0.8728 H.spc      1 <1>        0.000
      8 H           3.5930    1.2846    0.0121 H.spc      1 <1>        0.000
      9 H           2.9005   -1.8737    1.7478 H.spc      1 <1>        0.000
@<TRIPOS>BOND
     1    1    2 am 
     2    1    3 1  
     3    2    4 2  
     4    3    5 1  
     5    5    6 2  
     6    1    7 1  
     7    2    8 1  
     8    5    9 1  
# Name:          frag3-174-13/96164 -- energy: -0.456310
# Creation time: Sat Jun  5 12:53:07 2010


@<TRIPOS>MOLECULE
frag3-174-13/96164 -- energy: -0.456310
    9     8     1     1     1
SMALL
USER_CHARGES


@<TRIPOS>ATOM
      1 N1          1.9588    1.1072    0.6085 N.am       1 <1>        0.000
      2 C1          2.4353    2.3139    0.4329 C.2        1 <1>        0.000
      3 O1          2.1582   -0.0063    1.3708 O.3        1 <1>        0.000
      4 O2          2.2843    3.1184   -0.4930 O.2        1 <1>        0.000
      5 C5          3.3564   -0.6169    1.2903 C.2        1 <1>        0.000
      6 O3          3.8799   -1.5014    1.9492 O.2        1 <1>        0.000
      7 H           1.1846    0.9472   -0.0360 H.spc      1 <1>        0.000
      8 H           3.0742    2.6697    1.2412 H.spc      1 <1>        0.000
      9 H           3.9815   -0.2488    0.4768 H.spc      1 <1>        0.000
@<TRIPOS>BOND
     1    1    2 am 
     2    1    3 1  
     3    2    4 2  
     4    3    5 1  
     5    5    6 2  
     6    1    7 1  
     7    2    8 1  
     8    5    9 1  
# Name:          frag3-174-13/96164 -- energy: -0.519623
# Creation time: Sat Jun  5 12:53:07 2010


@<TRIPOS>MOLECULE
frag3-174-13/96164 -- energy: -0.519623
    9     8     1     1     1
SMALL
USER_CHARGES


@<TRIPOS>ATOM
      1 N1          1.5907    0.9367    0.5149 N.am       1 <1>        0.000
      2 C1          2.0906    1.9726   -0.1688 C.2        1 <1>        0.000
      3 O1          2.1323    0.1173    1.4656 O.3        1 <1>        0.000
      4 O2          2.8484    2.8459    0.2333 O.2        1 <1>        0.000
      5 C5          3.4184   -0.2262    1.3662 C.2        1 <1>        0.000
      6 O3          3.9924   -1.2312    1.7475 O.2        1 <1>        0.000
      7 H           0.6221    0.7168    0.2827 H.spc      1 <1>        0.000
      8 H           1.7854    2.0482   -1.2125 H.spc      1 <1>        0.000
      9 H           4.0534    0.5055    0.8667 H.spc      1 <1>        0.000
@<TRIPOS>BOND
     1    1    2 am 
     2    1    3 1  
     3    2    4 2  
     4    3    5 1  
     5    5    6 2  
     6    1    7 1  
     7    2    8 1  
     8    5    9 1  
