#      Rotatable Fragment
#      Build by yxyuan
#
# Name:          frag4-421-144/150395
# Creation time: Sat Jun  5 12:53:35 2010


@<TRIPOS>MOLECULE
frag4-421-144/150395
   14    15     1     1     1
SMALL
USER_CHARGES


@<TRIPOS>ATOM
      1 N1         -1.6585   -0.2670    0.1257 N.pl3      1 <1>        0.000
      2 C1         -1.6697    1.0974    0.5704 C.3        1 <1>        0.000
      3 C2         -0.5748   -0.9698    0.0118 C.2        1 <1>        0.000
      4 C3         -2.8744   -0.5557   -0.1784 C.3        1 <1>        0.000
      5 C4         -3.1152    0.9335   -0.0146 C.3        1 <1>        0.000
      6 S1         -0.0552    1.5831   -0.1023 S.3        1 <1>        0.000
      7 C5          0.4649   -0.1333    0.0056 C.2        1 <1>        0.000
      8 H          -1.6493    1.7500    1.4432 H.spc      1 <1>        0.000
      9 H          -0.5222   -2.0558   -0.0655 H.spc      1 <1>        0.000
     10 H          -3.4561   -1.3157    0.3433 H.spc      1 <1>        0.000
     11 H          -3.1501   -1.1101   -1.0754 H.spc      1 <1>        0.000
     12 H          -3.4311    1.5335   -0.8680 H.spc      1 <1>        0.000
     13 H          -3.9772    1.2893    0.5498 H.spc      1 <1>        0.000
     14 H           1.5055   -0.4531    0.0596 H.spc      1 <1>        0.000
@<TRIPOS>BOND
     1    1    2 1  
     2    1    3 1  
     3    1    4 1  
     4    2    5 1  
     5    2    6 1  
     6    3    7 2  
     7    4    5 1  
     8    6    7 1  
     9    2    8 1  
    10    3    9 1  
    11    4   10 1  
    12    4   11 1  
    13    5   12 1  
    14    5   13 1  
    15    7   14 1  
# Name:          frag4-421-144/150395 -- energy: -1.007842
# Creation time: Sat Jun  5 12:53:35 2010


@<TRIPOS>MOLECULE
frag4-421-144/150395 -- energy: -1.007842
   14    15     1     1     1
SMALL
USER_CHARGES


@<TRIPOS>ATOM
      1 N1         -1.6585   -0.2670    0.1257 N.pl3      1 <1>        0.000
      2 C1         -1.6697    1.0974    0.5704 C.3        1 <1>        0.000
      3 C2         -0.5748   -0.9698    0.0118 C.2        1 <1>        0.000
      4 C3         -2.8744   -0.5557   -0.1784 C.3        1 <1>        0.000
      5 C4         -3.1152    0.9335   -0.0146 C.3        1 <1>        0.000
      6 S1         -0.0552    1.5831   -0.1023 S.3        1 <1>        0.000
      7 C5          0.4649   -0.1333    0.0056 C.2        1 <1>        0.000
      8 H          -1.6493    1.7500    1.4432 H.spc      1 <1>        0.000
      9 H          -0.5222   -2.0558   -0.0655 H.spc      1 <1>        0.000
     10 H          -3.4561   -1.3157    0.3433 H.spc      1 <1>        0.000
     11 H          -3.1501   -1.1101   -1.0754 H.spc      1 <1>        0.000
     12 H          -3.4311    1.5335   -0.8680 H.spc      1 <1>        0.000
     13 H          -3.9772    1.2893    0.5498 H.spc      1 <1>        0.000
     14 H           1.5055   -0.4531    0.0596 H.spc      1 <1>        0.000
@<TRIPOS>BOND
     1    1    2 1  
     2    1    3 1  
     3    1    4 1  
     4    2    5 1  
     5    2    6 1  
     6    3    7 2  
     7    4    5 1  
     8    6    7 1  
     9    2    8 1  
    10    3    9 1  
    11    4   10 1  
    12    4   11 1  
    13    5   12 1  
    14    5   13 1  
    15    7   14 1  
