#      Rotatable Fragment
#      Build by yxyuan
#
# Name:          frag3-127-45/96164
# Creation time: Sat Jun  5 12:52:57 2010


@<TRIPOS>MOLECULE
frag3-127-45/96164
    6     5     1     1     1
SMALL
USER_CHARGES


@<TRIPOS>ATOM
      1 O5         -2.6336    0.6769    0.7079 O.3        1 <1>        0.000
      2 S1         -4.0531    0.6826    0.0256 S.o2       1 <1>        0.000
      3 O7         -4.0422    1.6069   -1.0922 O.2        1 <1>        0.000
      4 O8         -5.0920    0.3655    0.9822 O.2        1 <1>        0.000
      5 H          -2.6381    0.0658    1.4482 H.spc      1 <1>        0.000
      6 H          -4.5072   -0.3029   -0.7435 H.spc      1 <1>        0.000
@<TRIPOS>BOND
     1    1    2 1  
     2    2    3 2  
     3    2    4 2  
     4    1    5 1  
     5    2    6 1  
# Name:          frag3-127-45/96164 -- energy: -0.052515
# Creation time: Sat Jun  5 12:52:57 2010


@<TRIPOS>MOLECULE
frag3-127-45/96164 -- energy: -0.052515
    6     5     1     1     1
SMALL
USER_CHARGES


@<TRIPOS>ATOM
      1 O5         -2.6336    0.6769    0.7079 O.3        1 <1>        0.000
      2 S1         -4.0531    0.6826    0.0256 S.o2       1 <1>        0.000
      3 O7         -4.0422    1.6069   -1.0922 O.2        1 <1>        0.000
      4 O8         -5.0920    0.3655    0.9822 O.2        1 <1>        0.000
      5 H          -2.6381    0.0658    1.4482 H.spc      1 <1>        0.000
      6 H          -4.5072   -0.3029   -0.7435 H.spc      1 <1>        0.000
@<TRIPOS>BOND
     1    1    2 1  
     2    2    3 2  
     3    2    4 2  
     4    1    5 1  
     5    2    6 1  
