#      Rotatable Fragment
#      Build by yxyuan
#
# Name:          frag3-146-29/96164
# Creation time: Sat Jun  5 12:53:05 2010


@<TRIPOS>MOLECULE
frag3-146-29/96164
    8     7     1     1     1
SMALL
USER_CHARGES


@<TRIPOS>ATOM
      1 S1         -0.6598    1.3477    0.8596 S.3        1 <1>        0.000
      2 C25        -0.1094   -0.0494    0.0832 C.2        1 <1>        0.000
      3 N4         -1.1344   -0.7763   -0.7304 N.pl3      1 <1>        0.000
      4 N5          1.0916   -0.4099    0.2126 N.2        1 <1>        0.000
      5 H          -1.9477    1.5293    0.5817 H.spc      1 <1>        0.000
      6 H          -0.8788   -1.6282   -1.2297 H.spc      1 <1>        0.000
      7 H          -2.0884   -0.4197   -0.7855 H.spc      1 <1>        0.000
      8 H           1.4245   -1.2524   -0.2562 H.spc      1 <1>        0.000
@<TRIPOS>BOND
     1    1    2 1  
     2    2    3 1  
     3    2    4 2  
     4    1    5 1  
     5    3    6 1  
     6    3    7 1  
     7    4    8 1  
# Name:          frag3-146-29/96164 -- energy: -0.324243
# Creation time: Sat Jun  5 12:53:05 2010


@<TRIPOS>MOLECULE
frag3-146-29/96164 -- energy: -0.324243
    8     7     1     1     1
SMALL
USER_CHARGES


@<TRIPOS>ATOM
      1 S1         -0.6598    1.3477    0.8596 S.3        1 <1>        0.000
      2 C25        -0.1094   -0.0494    0.0832 C.2        1 <1>        0.000
      3 N4         -1.1344   -0.7763   -0.7304 N.pl3      1 <1>        0.000
      4 N5          1.0916   -0.4099    0.2126 N.2        1 <1>        0.000
      5 H          -1.9477    1.5293    0.5817 H.spc      1 <1>        0.000
      6 H          -0.8788   -1.6282   -1.2297 H.spc      1 <1>        0.000
      7 H          -2.0884   -0.4197   -0.7855 H.spc      1 <1>        0.000
      8 H           1.4245   -1.2524   -0.2562 H.spc      1 <1>        0.000
@<TRIPOS>BOND
     1    1    2 1  
     2    2    3 1  
     3    2    4 2  
     4    1    5 1  
     5    3    6 1  
     6    3    7 1  
     7    4    8 1  
