#      Rotatable Fragment
#      Build by yxyuan
#
# Name:          frag4-415-162/150395
# Creation time: Sat Jun  5 12:53:34 2010


@<TRIPOS>MOLECULE
frag4-415-162/150395
   12    12     1     1     1
SMALL
USER_CHARGES


@<TRIPOS>ATOM
      1 N1         -2.1579    1.1480   -0.2293 N.4        1 <1>        0.000
      2 C4         -0.7428    1.1579    0.0628 C.3        1 <1>        0.000
      3 C5         -2.2116   -0.2963   -0.2041 C.3        1 <1>        0.000
      4 C10        -0.7329   -0.3636    0.1626 C.3        1 <1>        0.000
      5 H          -2.4897    1.6360   -1.0613 H.spc      1 <1>        0.000
      6 H          -2.7872    1.6722    0.3787 H.spc      1 <1>        0.000
      7 H          -0.3694    1.7542    0.8954 H.spc      1 <1>        0.000
      8 H          -0.0558    1.6568   -0.6208 H.spc      1 <1>        0.000
      9 H          -2.5746   -0.8368   -1.0783 H.spc      1 <1>        0.000
     10 H          -2.9460   -0.7968    0.4270 H.spc      1 <1>        0.000
     11 H          -0.3779   -0.8853    1.0514 H.spc      1 <1>        0.000
     12 H          -0.0239   -0.9777   -0.3927 H.spc      1 <1>        0.000
@<TRIPOS>BOND
     1    1    2 1  
     2    1    3 1  
     3    2    4 1  
     4    3    4 1  
     5    1    5 1  
     6    1    6 1  
     7    2    7 1  
     8    2    8 1  
     9    3    9 1  
    10    3   10 1  
    11    4   11 1  
    12    4   12 1  
# Name:          frag4-415-162/150395 -- energy: -0.526683
# Creation time: Sat Jun  5 12:53:34 2010


@<TRIPOS>MOLECULE
frag4-415-162/150395 -- energy: -0.526683
   12    12     1     1     1
SMALL
USER_CHARGES


@<TRIPOS>ATOM
      1 N1         -2.1579    1.1480   -0.2293 N.4        1 <1>        0.000
      2 C4         -0.7428    1.1579    0.0628 C.3        1 <1>        0.000
      3 C5         -2.2116   -0.2963   -0.2041 C.3        1 <1>        0.000
      4 C10        -0.7329   -0.3636    0.1626 C.3        1 <1>        0.000
      5 H          -2.4897    1.6360   -1.0613 H.spc      1 <1>        0.000
      6 H          -2.7872    1.6722    0.3787 H.spc      1 <1>        0.000
      7 H          -0.3694    1.7542    0.8954 H.spc      1 <1>        0.000
      8 H          -0.0558    1.6568   -0.6208 H.spc      1 <1>        0.000
      9 H          -2.5746   -0.8368   -1.0783 H.spc      1 <1>        0.000
     10 H          -2.9460   -0.7968    0.4270 H.spc      1 <1>        0.000
     11 H          -0.3779   -0.8853    1.0514 H.spc      1 <1>        0.000
     12 H          -0.0239   -0.9777   -0.3927 H.spc      1 <1>        0.000
@<TRIPOS>BOND
     1    1    2 1  
     2    1    3 1  
     3    2    4 1  
     4    3    4 1  
     5    1    5 1  
     6    1    6 1  
     7    2    7 1  
     8    2    8 1  
     9    3    9 1  
    10    3   10 1  
    11    4   11 1  
    12    4   12 1  
