#      Rotatable Fragment
#      Build by yxyuan
#
# Name:          frag5-660-25/41815
# Creation time: Sat Jun  5 12:53:02 2010


@<TRIPOS>MOLECULE
frag5-660-25/41815
   14    14     1     1     1
SMALL
USER_CHARGES


@<TRIPOS>ATOM
      1 S1          4.6595    1.1959   -0.3653 S.3        1 <1>        0.000
      2 C19         5.6328   -0.0938   -1.0310 C.ar       1 <1>        0.000
      3 C20         5.8657   -0.2111   -2.4247 C.ar       1 <1>        0.000
      4 C21         6.7182   -1.1507   -2.9078 C.ar       1 <1>        0.000
      5 C22         7.4287   -2.0220   -2.0398 C.ar       1 <1>        0.000
      6 C23         7.2291   -1.8666   -0.6388 C.ar       1 <1>        0.000
      7 C24         6.3759   -0.9261   -0.1506 C.ar       1 <1>        0.000
      8 O5          8.2721   -2.9840   -2.5669 O.3        1 <1>        0.000
      9 H           4.6042    1.0700    0.9576 H.spc      1 <1>        0.000
     10 H           5.3550    0.4600   -3.1153 H.spc      1 <1>        0.000
     11 H           6.8605   -1.2383   -3.9849 H.spc      1 <1>        0.000
     12 H           7.7689   -2.5119    0.0543 H.spc      1 <1>        0.000
     13 H           6.2610   -0.8096    0.9271 H.spc      1 <1>        0.000
     14 H           8.6715   -3.4844   -1.8516 H.spc      1 <1>        0.000
@<TRIPOS>BOND
     1    1    2 1  
     2    2    3 ar 
     3    2    7 ar 
     4    3    4 ar 
     5    4    5 ar 
     6    5    6 ar 
     7    5    8 1  
     8    6    7 ar 
     9    1    9 1  
    10    3   10 1  
    11    4   11 1  
    12    6   12 1  
    13    7   13 1  
    14    8   14 1  
# Name:          frag5-660-25/41815 -- energy: -0.396462
# Creation time: Sat Jun  5 12:53:02 2010


@<TRIPOS>MOLECULE
frag5-660-25/41815 -- energy: -0.396462
   14    14     1     1     1
SMALL
USER_CHARGES


@<TRIPOS>ATOM
      1 S1          4.6595    1.1959   -0.3653 S.3        1 <1>        0.000
      2 C19         5.6328   -0.0938   -1.0310 C.ar       1 <1>        0.000
      3 C20         5.8657   -0.2111   -2.4247 C.ar       1 <1>        0.000
      4 C21         6.7182   -1.1507   -2.9078 C.ar       1 <1>        0.000
      5 C22         7.4287   -2.0220   -2.0398 C.ar       1 <1>        0.000
      6 C23         7.2291   -1.8666   -0.6388 C.ar       1 <1>        0.000
      7 C24         6.3759   -0.9261   -0.1506 C.ar       1 <1>        0.000
      8 O5          8.2721   -2.9840   -2.5669 O.3        1 <1>        0.000
      9 H           4.6042    1.0700    0.9576 H.spc      1 <1>        0.000
     10 H           5.3550    0.4600   -3.1153 H.spc      1 <1>        0.000
     11 H           6.8605   -1.2383   -3.9849 H.spc      1 <1>        0.000
     12 H           7.7689   -2.5119    0.0543 H.spc      1 <1>        0.000
     13 H           6.2610   -0.8096    0.9271 H.spc      1 <1>        0.000
     14 H           8.6715   -3.4844   -1.8516 H.spc      1 <1>        0.000
@<TRIPOS>BOND
     1    1    2 1  
     2    2    3 ar 
     3    2    7 ar 
     4    3    4 ar 
     5    4    5 ar 
     6    5    6 ar 
     7    5    8 1  
     8    6    7 ar 
     9    1    9 1  
    10    3   10 1  
    11    4   11 1  
    12    6   12 1  
    13    7   13 1  
    14    8   14 1  
