#      Rotatable Fragment
#      Build by yxyuan
#
# Name:          frag3-089-47948/96164
# Creation time: Sat Jun  5 12:52:21 2010


@<TRIPOS>MOLECULE
frag3-089-47948/96164
    6     5     1     1     1
SMALL
USER_CHARGES


@<TRIPOS>ATOM
      1 C4          0.6466   -0.0995   -0.0495 C.2        1 <1>        0.000
      2 N2         -0.6868    0.0893    0.0549 N.am       1 <1>        0.000
      3 O2          1.5051    0.7432   -0.2436 O.2        1 <1>        0.000
      4 H           0.9959   -1.1270    0.0518 H.spc      1 <1>        0.000
      5 H          -1.0773    1.0277   -0.0307 H.spc      1 <1>        0.000
      6 H          -1.3032   -0.7065    0.2194 H.spc      1 <1>        0.000
@<TRIPOS>BOND
     1    1    2 am 
     2    1    3 2  
     3    1    4 1  
     4    2    5 1  
     5    2    6 1  
# Name:          frag3-089-47948/96164 -- energy: -0.083700
# Creation time: Sat Jun  5 12:52:21 2010


@<TRIPOS>MOLECULE
frag3-089-47948/96164 -- energy: -0.083700
    6     5     1     1     1
SMALL
USER_CHARGES


@<TRIPOS>ATOM
      1 C4          0.6466   -0.0995   -0.0495 C.2        1 <1>        0.000
      2 N2         -0.6868    0.0893    0.0549 N.am       1 <1>        0.000
      3 O2          1.5051    0.7432   -0.2436 O.2        1 <1>        0.000
      4 H           0.9959   -1.1270    0.0518 H.spc      1 <1>        0.000
      5 H          -1.0773    1.0277   -0.0307 H.spc      1 <1>        0.000
      6 H          -1.3032   -0.7065    0.2194 H.spc      1 <1>        0.000
@<TRIPOS>BOND
     1    1    2 am 
     2    1    3 2  
     3    1    4 1  
     4    2    5 1  
     5    2    6 1  
