#      Rotatable Fragment
#      Build by yxyuan
#
# Name:          frag2-067-2/92655
# Creation time: Sat Jun  5 12:51:58 2010


@<TRIPOS>MOLECULE
frag2-067-2/92655
   32    36     1     1     1
SMALL
USER_CHARGES


@<TRIPOS>ATOM
      1 C1          0.3493   -0.2272    0.0009 C.ar       1 <1>        0.000
      2 C2          1.7370    0.0411   -0.0547 C.ar       1 <1>        0.000
      3 C3          2.1992    1.3552   -0.1319 C.ar       1 <1>        0.000
      4 C4          1.2759    2.3966   -0.1536 C.ar       1 <1>        0.000
      5 C5         -0.0936    2.1543   -0.1009 C.ar       1 <1>        0.000
      6 C6         -0.6025    0.8376   -0.0213 C.ar       1 <1>        0.000
      7 C7         -1.9892    0.5298    0.0352 C.ar       1 <1>        0.000
      8 C8         -2.3903   -0.8269    0.1141 C.ar       1 <1>        0.000
      9 C17        -3.7533   -1.1722    0.1727 C.ar       1 <1>        0.000
     10 C9         -1.4363   -1.8416    0.1342 C.ar       1 <1>        0.000
     11 C10        -0.0792   -1.5563    0.0785 C.ar       1 <1>        0.000
     12 C11         0.8553   -2.6008    0.1001 C.ar       1 <1>        0.000
     13 C12         2.2147   -2.3330    0.0448 C.ar       1 <1>        0.000
     14 C13         2.6664   -1.0149   -0.0325 C.ar       1 <1>        0.000
     15 C14         4.0413   -0.7385   -0.0883 C.ar       1 <1>        0.000
     16 C15         4.4935    0.5725   -0.1654 C.ar       1 <1>        0.000
     17 C16         3.5781    1.6175   -0.1870 C.ar       1 <1>        0.000
     18 C18        -4.7353   -0.2013    0.1525 C.ar       1 <1>        0.000
     19 C19        -4.3700    1.1298    0.0761 C.ar       1 <1>        0.000
     20 C20        -3.0168    1.5036    0.0188 C.ar       1 <1>        0.000
     21 H           1.6333    3.4246   -0.2132 H.spc      1 <1>        0.000
     22 H          -0.7867    2.9953   -0.1214 H.spc      1 <1>        0.000
     23 H          -4.0384   -2.2224    0.2350 H.spc      1 <1>        0.000
     24 H          -1.7619   -2.8800    0.1949 H.spc      1 <1>        0.000
     25 H           0.5103   -3.6330    0.1609 H.spc      1 <1>        0.000
     26 H           2.9319   -3.1536    0.0617 H.spc      1 <1>        0.000
     27 H           4.7593   -1.5585   -0.0710 H.spc      1 <1>        0.000
     28 H           5.5625    0.7808   -0.2088 H.spc      1 <1>        0.000
     29 H           3.9320    2.6467   -0.2470 H.spc      1 <1>        0.000
     30 H          -5.7877   -0.4817    0.1964 H.spc      1 <1>        0.000
     31 H          -5.1418    1.8993    0.0601 H.spc      1 <1>        0.000
     32 H          -2.7540    2.5599   -0.0392 H.spc      1 <1>        0.000
@<TRIPOS>BOND
     1    1    2 ar 
     2   10   11 ar 
     3    2   14 ar 
     4    2    3 ar 
     5   16   17 ar 
     6    3   17 ar 
     7   14   15 ar 
     8    4    5 ar 
     9   19   20 ar 
    10    8   10 ar 
    11    1   11 ar 
    12    5    6 ar 
    13   15   16 ar 
    14   12   13 ar 
    15    7   20 ar 
    16    7    8 ar 
    17    6    7 ar 
    18    3    4 ar 
    19    8    9 ar 
    20   11   12 ar 
    21   13   14 ar 
    22    1    6 ar 
    23   18   19 ar 
    24    9   18 ar 
    25    4   21 1  
    26    5   22 1  
    27    9   23 1  
    28   10   24 1  
    29   12   25 1  
    30   13   26 1  
    31   15   27 1  
    32   16   28 1  
    33   17   29 1  
    34   18   30 1  
    35   19   31 1  
    36   20   32 1  
# Name:          frag2-067-2/92655 -- energy: -1.638936
# Creation time: Sat Jun  5 12:51:58 2010


@<TRIPOS>MOLECULE
frag2-067-2/92655 -- energy: -1.638936
   32    36     1     1     1
SMALL
USER_CHARGES


@<TRIPOS>ATOM
      1 C1          0.3493   -0.2272    0.0009 C.ar       1 <1>        0.000
      2 C2          1.7370    0.0411   -0.0547 C.ar       1 <1>        0.000
      3 C3          2.1992    1.3552   -0.1319 C.ar       1 <1>        0.000
      4 C4          1.2759    2.3966   -0.1536 C.ar       1 <1>        0.000
      5 C5         -0.0936    2.1543   -0.1009 C.ar       1 <1>        0.000
      6 C6         -0.6025    0.8376   -0.0213 C.ar       1 <1>        0.000
      7 C7         -1.9892    0.5298    0.0352 C.ar       1 <1>        0.000
      8 C8         -2.3903   -0.8269    0.1141 C.ar       1 <1>        0.000
      9 C17        -3.7533   -1.1722    0.1727 C.ar       1 <1>        0.000
     10 C9         -1.4363   -1.8416    0.1342 C.ar       1 <1>        0.000
     11 C10        -0.0792   -1.5563    0.0785 C.ar       1 <1>        0.000
     12 C11         0.8553   -2.6008    0.1001 C.ar       1 <1>        0.000
     13 C12         2.2147   -2.3330    0.0448 C.ar       1 <1>        0.000
     14 C13         2.6664   -1.0149   -0.0325 C.ar       1 <1>        0.000
     15 C14         4.0413   -0.7385   -0.0883 C.ar       1 <1>        0.000
     16 C15         4.4935    0.5725   -0.1654 C.ar       1 <1>        0.000
     17 C16         3.5781    1.6175   -0.1870 C.ar       1 <1>        0.000
     18 C18        -4.7353   -0.2013    0.1525 C.ar       1 <1>        0.000
     19 C19        -4.3700    1.1298    0.0761 C.ar       1 <1>        0.000
     20 C20        -3.0168    1.5036    0.0188 C.ar       1 <1>        0.000
     21 H           1.6333    3.4246   -0.2132 H.spc      1 <1>        0.000
     22 H          -0.7867    2.9953   -0.1214 H.spc      1 <1>        0.000
     23 H          -4.0384   -2.2224    0.2350 H.spc      1 <1>        0.000
     24 H          -1.7619   -2.8800    0.1949 H.spc      1 <1>        0.000
     25 H           0.5103   -3.6330    0.1609 H.spc      1 <1>        0.000
     26 H           2.9319   -3.1536    0.0617 H.spc      1 <1>        0.000
     27 H           4.7593   -1.5585   -0.0710 H.spc      1 <1>        0.000
     28 H           5.5625    0.7808   -0.2088 H.spc      1 <1>        0.000
     29 H           3.9320    2.6467   -0.2470 H.spc      1 <1>        0.000
     30 H          -5.7877   -0.4817    0.1964 H.spc      1 <1>        0.000
     31 H          -5.1418    1.8993    0.0601 H.spc      1 <1>        0.000
     32 H          -2.7540    2.5599   -0.0392 H.spc      1 <1>        0.000
@<TRIPOS>BOND
     1    1    2 ar 
     2   10   11 ar 
     3    2   14 ar 
     4    2    3 ar 
     5   16   17 ar 
     6    3   17 ar 
     7   14   15 ar 
     8    4    5 ar 
     9   19   20 ar 
    10    8   10 ar 
    11    1   11 ar 
    12    5    6 ar 
    13   15   16 ar 
    14   12   13 ar 
    15    7   20 ar 
    16    7    8 ar 
    17    6    7 ar 
    18    3    4 ar 
    19    8    9 ar 
    20   11   12 ar 
    21   13   14 ar 
    22    1    6 ar 
    23   18   19 ar 
    24    9   18 ar 
    25    4   21 1  
    26    5   22 1  
    27    9   23 1  
    28   10   24 1  
    29   12   25 1  
    30   13   26 1  
    31   15   27 1  
    32   16   28 1  
    33   17   29 1  
    34   18   30 1  
    35   19   31 1  
    36   20   32 1  
