#      Rotatable Fragment
#      Build by yxyuan
#
# Name:          frag4-448-117/150395
# Creation time: Sat Jun  5 12:53:36 2010


@<TRIPOS>MOLECULE
frag4-448-117/150395
   11    11     1     1     1
SMALL
USER_CHARGES


@<TRIPOS>ATOM
      1 N3          0.5585    1.1965    0.0655 N.3        1 <1>        0.000
      2 C14         0.6096    2.6100    0.2163 C.3        1 <1>        0.000
      3 C15        -0.8656    1.1782   -0.0867 C.3        1 <1>        0.000
      4 C19        -0.9438    2.6974    0.2496 C.3        1 <1>        0.000
      5 H           0.9697    0.6207    0.8001 H.spc      1 <1>        0.000
      6 H           1.1613    3.2041   -0.5123 H.spc      1 <1>        0.000
      7 H           1.1851    3.0379    1.0371 H.spc      1 <1>        0.000
      8 H          -1.4584    0.4690    0.4910 H.spc      1 <1>        0.000
      9 H          -1.3018    0.8106   -1.0155 H.spc      1 <1>        0.000
     10 H          -1.5216    3.4163   -0.3313 H.spc      1 <1>        0.000
     11 H          -1.5088    3.1026    1.0891 H.spc      1 <1>        0.000
@<TRIPOS>BOND
     1    1    2 1  
     2    1    3 1  
     3    2    4 1  
     4    3    4 1  
     5    1    5 1  
     6    2    6 1  
     7    2    7 1  
     8    3    8 1  
     9    3    9 1  
    10    4   10 1  
    11    4   11 1  
# Name:          frag4-448-117/150395 -- energy: -0.411363
# Creation time: Sat Jun  5 12:53:36 2010


@<TRIPOS>MOLECULE
frag4-448-117/150395 -- energy: -0.411363
   11    11     1     1     1
SMALL
USER_CHARGES


@<TRIPOS>ATOM
      1 N3          0.5585    1.1965    0.0655 N.3        1 <1>        0.000
      2 C14         0.6096    2.6100    0.2163 C.3        1 <1>        0.000
      3 C15        -0.8656    1.1782   -0.0867 C.3        1 <1>        0.000
      4 C19        -0.9438    2.6974    0.2496 C.3        1 <1>        0.000
      5 H           0.9697    0.6207    0.8001 H.spc      1 <1>        0.000
      6 H           1.1613    3.2041   -0.5123 H.spc      1 <1>        0.000
      7 H           1.1851    3.0379    1.0371 H.spc      1 <1>        0.000
      8 H          -1.4584    0.4690    0.4910 H.spc      1 <1>        0.000
      9 H          -1.3018    0.8106   -1.0155 H.spc      1 <1>        0.000
     10 H          -1.5216    3.4163   -0.3313 H.spc      1 <1>        0.000
     11 H          -1.5088    3.1026    1.0891 H.spc      1 <1>        0.000
@<TRIPOS>BOND
     1    1    2 1  
     2    1    3 1  
     3    2    4 1  
     4    3    4 1  
     5    1    5 1  
     6    2    6 1  
     7    2    7 1  
     8    3    8 1  
     9    3    9 1  
    10    4   10 1  
    11    4   11 1  
