#      Rotatable Fragment
#      Build by yxyuan
#
# Name:          frag2-052-47/319335
# Creation time: Sat Jun  5 12:53:41 2010


@<TRIPOS>MOLECULE
frag2-052-47/319335
   23    25     1     1     1
SMALL
USER_CHARGES


@<TRIPOS>ATOM
      1 C1         -0.0012   -1.3149   -0.1454 C.ar       1 <1>        0.000
      2 C2          1.2096   -0.6215   -0.0362 C.ar       1 <1>        0.000
      3 C3         -1.2110   -0.6117   -0.1009 C.ar       1 <1>        0.000
      4 C5          1.1879    0.7689    0.1052 C.ar       1 <1>        0.000
      5 C6          2.4431   -1.2907   -0.0654 C.ar       1 <1>        0.000
      6 C7         -1.1852    0.7797    0.0444 C.ar       1 <1>        0.000
      7 C8         -2.4459   -1.2695   -0.2004 C.ar       1 <1>        0.000
      8 N3          0.0022    1.4180    0.1374 N.ar       1 <1>        0.000
      9 C12         2.3839    1.4795    0.2144 C.ar       1 <1>        0.000
     10 C13         3.6317   -0.5739    0.0470 C.ar       1 <1>        0.000
     11 C14        -2.3803    1.4992    0.0917 C.ar       1 <1>        0.000
     12 C15        -3.6331   -0.5434   -0.1512 C.ar       1 <1>        0.000
     13 C20         3.6025    0.8114    0.1865 C.ar       1 <1>        0.000
     14 C21        -3.6010    0.8390   -0.0055 C.ar       1 <1>        0.000
     15 H          -0.0023   -2.3984   -0.2646 H.spc      1 <1>        0.000
     16 H           2.4707   -2.3747   -0.1764 H.spc      1 <1>        0.000
     17 H          -2.4763   -2.3529   -0.3166 H.spc      1 <1>        0.000
     18 H           2.3624    2.5640    0.3221 H.spc      1 <1>        0.000
     19 H           4.5870   -1.0983    0.0257 H.spc      1 <1>        0.000
     20 H          -2.3571    2.5830    0.2053 H.spc      1 <1>        0.000
     21 H          -4.5899   -1.0600   -0.2271 H.spc      1 <1>        0.000
     22 H           4.5338    1.3709    0.2737 H.spc      1 <1>        0.000
     23 H          -4.5317    1.4051    0.0325 H.spc      1 <1>        0.000
@<TRIPOS>BOND
     1    2    4 ar 
     2    9   13 ar 
     3    4    8 ar 
     4    2    5 ar 
     5    1    2 ar 
     6    3    6 ar 
     7   11   14 ar 
     8    5   10 ar 
     9   12   14 ar 
    10   10   13 ar 
    11    3    7 ar 
    12    1    3 ar 
    13    4    9 ar 
    14    6   11 ar 
    15    7   12 ar 
    16    6    8 ar 
    17    1   15 1  
    18    5   16 1  
    19    7   17 1  
    20    9   18 1  
    21   10   19 1  
    22   11   20 1  
    23   12   21 1  
    24   13   22 1  
    25   14   23 1  
# Name:          frag2-052-47/319335 -- energy: -0.494657
# Creation time: Sat Jun  5 12:53:41 2010


@<TRIPOS>MOLECULE
frag2-052-47/319335 -- energy: -0.494657
   23    25     1     1     1
SMALL
USER_CHARGES


@<TRIPOS>ATOM
      1 C1         -0.0012   -1.3149   -0.1454 C.ar       1 <1>        0.000
      2 C2          1.2096   -0.6215   -0.0362 C.ar       1 <1>        0.000
      3 C3         -1.2110   -0.6117   -0.1009 C.ar       1 <1>        0.000
      4 C5          1.1879    0.7689    0.1052 C.ar       1 <1>        0.000
      5 C6          2.4431   -1.2907   -0.0654 C.ar       1 <1>        0.000
      6 C7         -1.1852    0.7797    0.0444 C.ar       1 <1>        0.000
      7 C8         -2.4459   -1.2695   -0.2004 C.ar       1 <1>        0.000
      8 N3          0.0022    1.4180    0.1374 N.ar       1 <1>        0.000
      9 C12         2.3839    1.4795    0.2144 C.ar       1 <1>        0.000
     10 C13         3.6317   -0.5739    0.0470 C.ar       1 <1>        0.000
     11 C14        -2.3803    1.4992    0.0917 C.ar       1 <1>        0.000
     12 C15        -3.6331   -0.5434   -0.1512 C.ar       1 <1>        0.000
     13 C20         3.6025    0.8114    0.1865 C.ar       1 <1>        0.000
     14 C21        -3.6010    0.8390   -0.0055 C.ar       1 <1>        0.000
     15 H          -0.0023   -2.3984   -0.2646 H.spc      1 <1>        0.000
     16 H           2.4707   -2.3747   -0.1764 H.spc      1 <1>        0.000
     17 H          -2.4763   -2.3529   -0.3166 H.spc      1 <1>        0.000
     18 H           2.3624    2.5640    0.3221 H.spc      1 <1>        0.000
     19 H           4.5870   -1.0983    0.0257 H.spc      1 <1>        0.000
     20 H          -2.3571    2.5830    0.2053 H.spc      1 <1>        0.000
     21 H          -4.5899   -1.0600   -0.2271 H.spc      1 <1>        0.000
     22 H           4.5338    1.3709    0.2737 H.spc      1 <1>        0.000
     23 H          -4.5317    1.4051    0.0325 H.spc      1 <1>        0.000
@<TRIPOS>BOND
     1    2    4 ar 
     2    9   13 ar 
     3    4    8 ar 
     4    2    5 ar 
     5    1    2 ar 
     6    3    6 ar 
     7   11   14 ar 
     8    5   10 ar 
     9   12   14 ar 
    10   10   13 ar 
    11    3    7 ar 
    12    1    3 ar 
    13    4    9 ar 
    14    6   11 ar 
    15    7   12 ar 
    16    6    8 ar 
    17    1   15 1  
    18    5   16 1  
    19    7   17 1  
    20    9   18 1  
    21   10   19 1  
    22   11   20 1  
    23   12   21 1  
    24   13   22 1  
    25   14   23 1  
