#      Rotatable Fragment
#      Build by yxyuan
#
# Name:          frag5-584-40/41815
# Creation time: Sat Jun  5 12:52:56 2010


@<TRIPOS>MOLECULE
frag5-584-40/41815
   36    39     1     1     1
SMALL
USER_CHARGES


@<TRIPOS>ATOM
      1 C6         -2.3251    0.1836   -0.2334 C.3        1 <1>        0.000
      2 C7         -2.7253   -0.5524   -1.5202 C.3        1 <1>        0.000
      3 C8         -1.4896   -0.7760   -2.4024 C.3        1 <1>        0.000
      4 C9         -0.2523   -1.3832   -1.7203 C.3        1 <1>        0.000
      5 C10         0.1384   -0.3134   -0.7290 C.ar       1 <1>        0.000
      6 C11        -0.8323    0.4321   -0.0212 C.ar       1 <1>        0.000
      7 C12        -0.4438    1.4210    0.9084 C.ar       1 <1>        0.000
      8 C21         5.5958    3.5087    2.6768 C.ar       1 <1>        0.000
      9 C13         0.9287    1.6768    1.1016 C.ar       1 <1>        0.000
     10 C14         1.8927    0.9541    0.3919 C.ar       1 <1>        0.000
     11 C15         1.4848   -0.0246   -0.5076 C.ar       1 <1>        0.000
     12 C16         3.3533    1.2371    0.6047 C.2        1 <1>        0.000
     13 C17         3.8163    2.2835    1.5771 C.ar       1 <1>        0.000
     14 C18         2.8709    3.0167    2.3014 C.ar       1 <1>        0.000
     15 C19         3.2665    4.0083    3.2280 C.ar       1 <1>        0.000
     16 C20         4.6496    4.2305    3.3926 C.ar       1 <1>        0.000
     17 C22         5.1791    2.5357    1.7692 C.ar       1 <1>        0.000
     18 O3          2.3369    4.7201    3.9331 O.3        1 <1>        0.000
     19 C23         1.4021    2.7304    2.0777 C.2        1 <1>        0.000
     20 O4          0.5604    3.3777    2.7102 O.2        1 <1>        0.000
     21 O5          4.1922    0.5968   -0.0326 O.2        1 <1>        0.000
     22 O6         -1.4309    2.0951    1.5882 O.3        1 <1>        0.000
     23 H          -2.7878    1.1686   -0.2945 H.spc      1 <1>        0.000
     24 H          -2.6431   -0.4562    0.5898 H.spc      1 <1>        0.000
     25 H          -3.1604   -1.5176   -1.2609 H.spc      1 <1>        0.000
     26 H          -3.4519    0.0491   -2.0664 H.spc      1 <1>        0.000
     27 H          -1.7924   -1.4924   -3.1661 H.spc      1 <1>        0.000
     28 H          -1.1861    0.2119   -2.7488 H.spc      1 <1>        0.000
     29 H          -0.4552   -2.3453   -1.2498 H.spc      1 <1>        0.000
     30 H           0.5456   -1.6238   -2.4229 H.spc      1 <1>        0.000
     31 H           6.6585    3.7018    2.8237 H.spc      1 <1>        0.000
     32 H           2.2416   -0.5841   -1.0574 H.spc      1 <1>        0.000
     33 H           4.9847    4.9888    4.1003 H.spc      1 <1>        0.000
     34 H           5.9196    1.9680    1.2058 H.spc      1 <1>        0.000
     35 H           1.4566    4.4279    3.6855 H.spc      1 <1>        0.000
     36 H          -1.0298    2.7334    2.1827 H.spc      1 <1>        0.000
@<TRIPOS>BOND
     1    6    7 ar 
     2    5    6 ar 
     3    4    5 1  
     4    7   22 1  
     5    7    9 ar 
     6    3    4 1  
     7    9   10 ar 
     8    2    3 1  
     9    1    6 1  
    10    1    2 1  
    11    9   19 1  
    12    5   11 ar 
    13   19   20 2  
    14    8   17 ar 
    15   15   18 1  
    16   15   16 ar 
    17   16    8 ar 
    18   14   15 ar 
    19   14   19 1  
    20   13   17 ar 
    21   13   14 ar 
    22   12   21 2  
    23   12   13 1  
    24   10   12 1  
    25   10   11 ar 
    26    1   23 1  
    27    1   24 1  
    28    2   25 1  
    29    2   26 1  
    30    3   27 1  
    31    3   28 1  
    32    4   29 1  
    33    4   30 1  
    34    8   31 1  
    35   11   32 1  
    36   16   33 1  
    37   17   34 1  
    38   18   35 1  
    39   22   36 1  
