#      Rotatable Fragment
#      Build by yxyuan
#
# Name:          frag4-447-118/150395
# Creation time: Sat Jun  5 12:53:36 2010


@<TRIPOS>MOLECULE
frag4-447-118/150395
   11    11     1     1     1
SMALL
USER_CHARGES


@<TRIPOS>ATOM
      1 N3          2.9683   -2.4785    0.3905 N.3        1 <1>        0.000
      2 C31         4.4123   -2.4720    0.3962 C.3        1 <1>        0.000
      3 C32         2.9170   -3.8915    0.1291 C.3        1 <1>        0.000
      4 C35         4.4579   -3.9559   -0.0684 C.3        1 <1>        0.000
      5 H           2.4788   -1.8459   -0.2424 H.spc      1 <1>        0.000
      6 H           4.9394   -2.1827    1.3054 H.spc      1 <1>        0.000
      7 H           4.9432   -1.7166   -0.1831 H.spc      1 <1>        0.000
      8 H           2.2657   -4.2601   -0.6634 H.spc      1 <1>        0.000
      9 H           2.4492   -4.5489    0.8619 H.spc      1 <1>        0.000
     10 H           5.0937   -4.7125    0.3914 H.spc      1 <1>        0.000
     11 H           4.9343   -4.2842   -0.9922 H.spc      1 <1>        0.000
@<TRIPOS>BOND
     1    1    2 1  
     2    1    3 1  
     3    2    4 1  
     4    3    4 1  
     5    1    5 1  
     6    2    6 1  
     7    2    7 1  
     8    3    8 1  
     9    3    9 1  
    10    4   10 1  
    11    4   11 1  
# Name:          frag4-447-118/150395 -- energy: -0.410334
# Creation time: Sat Jun  5 12:53:36 2010


@<TRIPOS>MOLECULE
frag4-447-118/150395 -- energy: -0.410334
   11    11     1     1     1
SMALL
USER_CHARGES


@<TRIPOS>ATOM
      1 N3          2.9683   -2.4785    0.3905 N.3        1 <1>        0.000
      2 C31         4.4123   -2.4720    0.3962 C.3        1 <1>        0.000
      3 C32         2.9170   -3.8915    0.1291 C.3        1 <1>        0.000
      4 C35         4.4579   -3.9559   -0.0684 C.3        1 <1>        0.000
      5 H           2.4788   -1.8459   -0.2424 H.spc      1 <1>        0.000
      6 H           4.9394   -2.1827    1.3054 H.spc      1 <1>        0.000
      7 H           4.9432   -1.7166   -0.1831 H.spc      1 <1>        0.000
      8 H           2.2657   -4.2601   -0.6634 H.spc      1 <1>        0.000
      9 H           2.4492   -4.5489    0.8619 H.spc      1 <1>        0.000
     10 H           5.0937   -4.7125    0.3914 H.spc      1 <1>        0.000
     11 H           4.9343   -4.2842   -0.9922 H.spc      1 <1>        0.000
@<TRIPOS>BOND
     1    1    2 1  
     2    1    3 1  
     3    2    4 1  
     4    3    4 1  
     5    1    5 1  
     6    2    6 1  
     7    2    7 1  
     8    3    8 1  
     9    3    9 1  
    10    4   10 1  
    11    4   11 1  
