#      Rotatable Fragment
#      Build by yxyuan
#
# Name:          frag5-645-27/41815
# Creation time: Sat Jun  5 12:53:01 2010


@<TRIPOS>MOLECULE
frag5-645-27/41815
   19    19     1     1     1
SMALL
USER_CHARGES


@<TRIPOS>ATOM
      1 C20        -4.4717   -2.1526    2.1644 C.3        1 <1>        0.000
      2 C21        -5.7995   -2.1138    1.3869 C.3        1 <1>        0.000
      3 C22        -7.0135   -2.2648    2.3201 C.3        1 <1>        0.000
      4 C23        -6.5603   -2.4475    3.7798 C.3        1 <1>        0.000
      5 C24        -5.6688   -1.2774    4.2338 C.3        1 <1>        0.000
      6 C25        -4.5145   -1.1346    3.2761 C.2        1 <1>        0.000
      7 C26        -3.5972   -0.1665    3.3940 C.2        1 <1>        0.000
      8 H          -3.6473   -1.9215    1.4899 H.spc      1 <1>        0.000
      9 H          -4.3249   -3.1470    2.5860 H.spc      1 <1>        0.000
     10 H          -5.8063   -2.9429    0.6794 H.spc      1 <1>        0.000
     11 H          -5.8730   -1.1502    0.8827 H.spc      1 <1>        0.000
     12 H          -7.6242   -1.3646    2.2514 H.spc      1 <1>        0.000
     13 H          -7.5837   -3.1426    2.0163 H.spc      1 <1>        0.000
     14 H          -7.4435   -2.4810    4.4177 H.spc      1 <1>        0.000
     15 H          -5.9874   -3.3718    3.8541 H.spc      1 <1>        0.000
     16 H          -5.2901   -1.4734    5.2369 H.spc      1 <1>        0.000
     17 H          -6.2514   -0.3562    4.2450 H.spc      1 <1>        0.000
     18 H          -2.7841   -0.0953    2.6716 H.spc      1 <1>        0.000
     19 H          -3.6635    0.5504    4.2124 H.spc      1 <1>        0.000
@<TRIPOS>BOND
     1    6    7 2  
     2    4    5 1  
     3    3    4 1  
     4    5    6 1  
     5    1    2 1  
     6    1    6 1  
     7    2    3 1  
     8    1    8 1  
     9    1    9 1  
    10    2   10 1  
    11    2   11 1  
    12    3   12 1  
    13    3   13 1  
    14    4   14 1  
    15    4   15 1  
    16    5   16 1  
    17    5   17 1  
    18    7   18 1  
    19    7   19 1  
# Name:          frag5-645-27/41815
# Creation time: Sat Jun  5 12:53:01 2010


@<TRIPOS>MOLECULE
frag5-645-27/41815
   19    19     1     1     1
SMALL
USER_CHARGES


@<TRIPOS>ATOM
      1 C20        -4.6930   -1.4638    1.7848 C.3        1 <1>        0.000
      2 C21        -5.6373   -2.6414    1.6218 C.3        1 <1>        0.000
      3 C22        -6.9439   -2.5527    2.3744 C.3        1 <1>        0.000
      4 C23        -6.8611   -1.7980    3.6822 C.3        1 <1>        0.000
      5 C24        -5.4628   -1.6815    4.2462 C.3        1 <1>        0.000
      6 C25        -4.5148   -1.1122    3.2360 C.2        1 <1>        0.000
      7 C26        -3.5126   -0.3076    3.6095 C.2        1 <1>        0.000
      8 H          -5.1148   -0.6031    1.2659 H.spc      1 <1>        0.000
      9 H          -3.7224   -1.7339    1.3689 H.spc      1 <1>        0.000
     10 H          -5.1136   -3.5106    2.0198 H.spc      1 <1>        0.000
     11 H          -5.8960   -2.6817    0.5637 H.spc      1 <1>        0.000
     12 H          -7.6442   -2.0128    1.7371 H.spc      1 <1>        0.000
     13 H          -7.2461   -3.5726    2.6121 H.spc      1 <1>        0.000
     14 H          -7.2151   -0.7850    3.4908 H.spc      1 <1>        0.000
     15 H          -7.4553   -2.3510    4.4097 H.spc      1 <1>        0.000
     16 H          -5.1167   -2.6769    4.5247 H.spc      1 <1>        0.000
     17 H          -5.4909   -1.0165    5.1094 H.spc      1 <1>        0.000
     18 H          -2.8270    0.0918    2.8622 H.spc      1 <1>        0.000
     19 H          -3.3820   -0.0518    4.6610 H.spc      1 <1>        0.000
@<TRIPOS>BOND
     1    6    7 2  
     2    4    5 1  
     3    3    4 1  
     4    5    6 1  
     5    1    2 1  
     6    1    6 1  
     7    2    3 1  
     8    1    8 1  
     9    1    9 1  
    10    2   10 1  
    11    2   11 1  
    12    3   12 1  
    13    3   13 1  
    14    4   14 1  
    15    4   15 1  
    16    5   16 1  
    17    5   17 1  
    18    7   18 1  
    19    7   19 1  
# Name:          frag5-645-27/41815 -- energy: -1.119475
# Creation time: Sat Jun  5 12:53:01 2010


@<TRIPOS>MOLECULE
frag5-645-27/41815 -- energy: -1.119475
   19    19     1     1     1
SMALL
USER_CHARGES


@<TRIPOS>ATOM
      1 C20        -4.4717   -2.1526    2.1644 C.3        1 <1>        0.000
      2 C21        -5.7995   -2.1138    1.3869 C.3        1 <1>        0.000
      3 C22        -7.0135   -2.2648    2.3201 C.3        1 <1>        0.000
      4 C23        -6.5603   -2.4475    3.7798 C.3        1 <1>        0.000
      5 C24        -5.6688   -1.2774    4.2338 C.3        1 <1>        0.000
      6 C25        -4.5145   -1.1346    3.2761 C.2        1 <1>        0.000
      7 C26        -3.5972   -0.1665    3.3940 C.2        1 <1>        0.000
      8 H          -3.6473   -1.9215    1.4899 H.spc      1 <1>        0.000
      9 H          -4.3249   -3.1470    2.5860 H.spc      1 <1>        0.000
     10 H          -5.8063   -2.9429    0.6794 H.spc      1 <1>        0.000
     11 H          -5.8730   -1.1502    0.8827 H.spc      1 <1>        0.000
     12 H          -7.6242   -1.3646    2.2514 H.spc      1 <1>        0.000
     13 H          -7.5837   -3.1426    2.0163 H.spc      1 <1>        0.000
     14 H          -7.4435   -2.4810    4.4177 H.spc      1 <1>        0.000
     15 H          -5.9874   -3.3718    3.8541 H.spc      1 <1>        0.000
     16 H          -5.2901   -1.4734    5.2369 H.spc      1 <1>        0.000
     17 H          -6.2514   -0.3562    4.2450 H.spc      1 <1>        0.000
     18 H          -2.7841   -0.0953    2.6716 H.spc      1 <1>        0.000
     19 H          -3.6635    0.5504    4.2124 H.spc      1 <1>        0.000
@<TRIPOS>BOND
     1    6    7 2  
     2    4    5 1  
     3    3    4 1  
     4    5    6 1  
     5    1    2 1  
     6    1    6 1  
     7    2    3 1  
     8    1    8 1  
     9    1    9 1  
    10    2   10 1  
    11    2   11 1  
    12    3   12 1  
    13    3   13 1  
    14    4   14 1  
    15    4   15 1  
    16    5   16 1  
    17    5   17 1  
    18    7   18 1  
    19    7   19 1  
# Name:          frag5-645-27/41815 -- energy: -1.576521
# Creation time: Sat Jun  5 12:53:01 2010


@<TRIPOS>MOLECULE
frag5-645-27/41815 -- energy: -1.576521
   19    19     1     1     1
SMALL
USER_CHARGES


@<TRIPOS>ATOM
      1 C20        -4.6930   -1.4638    1.7848 C.3        1 <1>        0.000
      2 C21        -5.6373   -2.6414    1.6218 C.3        1 <1>        0.000
      3 C22        -6.9439   -2.5527    2.3744 C.3        1 <1>        0.000
      4 C23        -6.8611   -1.7980    3.6822 C.3        1 <1>        0.000
      5 C24        -5.4628   -1.6815    4.2462 C.3        1 <1>        0.000
      6 C25        -4.5148   -1.1122    3.2360 C.2        1 <1>        0.000
      7 C26        -3.5126   -0.3076    3.6095 C.2        1 <1>        0.000
      8 H          -5.1148   -0.6031    1.2659 H.spc      1 <1>        0.000
      9 H          -3.7224   -1.7339    1.3689 H.spc      1 <1>        0.000
     10 H          -5.1136   -3.5106    2.0198 H.spc      1 <1>        0.000
     11 H          -5.8960   -2.6817    0.5637 H.spc      1 <1>        0.000
     12 H          -7.6442   -2.0128    1.7371 H.spc      1 <1>        0.000
     13 H          -7.2461   -3.5726    2.6121 H.spc      1 <1>        0.000
     14 H          -7.2151   -0.7850    3.4908 H.spc      1 <1>        0.000
     15 H          -7.4553   -2.3510    4.4097 H.spc      1 <1>        0.000
     16 H          -5.1167   -2.6769    4.5247 H.spc      1 <1>        0.000
     17 H          -5.4909   -1.0165    5.1094 H.spc      1 <1>        0.000
     18 H          -2.8270    0.0918    2.8622 H.spc      1 <1>        0.000
     19 H          -3.3820   -0.0518    4.6610 H.spc      1 <1>        0.000
@<TRIPOS>BOND
     1    6    7 2  
     2    4    5 1  
     3    3    4 1  
     4    5    6 1  
     5    1    2 1  
     6    1    6 1  
     7    2    3 1  
     8    1    8 1  
     9    1    9 1  
    10    2   10 1  
    11    2   11 1  
    12    3   12 1  
    13    3   13 1  
    14    4   14 1  
    15    4   15 1  
    16    5   16 1  
    17    5   17 1  
    18    7   18 1  
    19    7   19 1  
