#      Rotatable Fragment
#      Build by yxyuan
#
# Name:          frag5-531-90/41815
# Creation time: Sat Jun  5 12:52:51 2010


@<TRIPOS>MOLECULE
frag5-531-90/41815
   14    14     1     1     1
SMALL
USER_CHARGES


@<TRIPOS>ATOM
      1 O4         -2.6367    0.7126   -0.6153 O.3        1 <1>        0.000
      2 C13        -1.9568   -0.2535    0.0494 C.2        1 <1>        0.000
      3 O5         -2.5422   -1.1278    0.6613 O.2        1 <1>        0.000
      4 C14        -0.4867   -0.2393    0.0190 C.ar       1 <1>        0.000
      5 C15         0.2510   -1.4340   -0.1044 C.ar       1 <1>        0.000
      6 N1          1.6182   -1.3885   -0.1260 N.ar       1 <1>        0.000
      7 C16         2.3408   -0.2510   -0.0412 C.ar       1 <1>        0.000
      8 C17         1.6556    0.9596    0.0836 C.ar       1 <1>        0.000
      9 C18         0.2363    0.9689    0.1132 C.ar       1 <1>        0.000
     10 H          -2.0133    1.3098   -1.0352 H.spc      1 <1>        0.000
     11 H          -0.2658   -2.3905   -0.1823 H.spc      1 <1>        0.000
     12 H           3.4301   -0.2769   -0.0694 H.spc      1 <1>        0.000
     13 H           2.2095    1.8954    0.1581 H.spc      1 <1>        0.000
     14 H          -0.2978    1.9142    0.2092 H.spc      1 <1>        0.000
@<TRIPOS>BOND
     1    1    2 1  
     2    2    3 2  
     3    2    4 1  
     4    4    5 ar 
     5    4    9 ar 
     6    5    6 ar 
     7    6    7 ar 
     8    7    8 ar 
     9    8    9 ar 
    10    1   10 1  
    11    5   11 1  
    12    7   12 1  
    13    8   13 1  
    14    9   14 1  
# Name:          frag5-531-90/41815
# Creation time: Sat Jun  5 12:52:51 2010


@<TRIPOS>MOLECULE
frag5-531-90/41815
   14    14     1     1     1
SMALL
USER_CHARGES


@<TRIPOS>ATOM
      1 O4         -2.6141   -0.8001    1.0155 O.3        1 <1>        0.000
      2 C13        -1.9613   -0.2082   -0.0102 C.2        1 <1>        0.000
      3 O5         -2.5593    0.3303   -0.9220 O.2        1 <1>        0.000
      4 C14        -0.4866   -0.2171   -0.0094 C.ar       1 <1>        0.000
      5 C15         0.2350   -1.4211    0.1085 C.ar       1 <1>        0.000
      6 N1          1.6011   -1.3942    0.1094 N.ar       1 <1>        0.000
      7 C16         2.3404   -0.2713   -0.0033 C.ar       1 <1>        0.000
      8 C17         1.6716    0.9493   -0.1221 C.ar       1 <1>        0.000
      9 C18         0.2527    0.9797   -0.1267 C.ar       1 <1>        0.000
     10 H          -1.9751   -1.1662    1.6313 H.spc      1 <1>        0.000
     11 H          -0.2940   -2.3699    0.1986 H.spc      1 <1>        0.000
     12 H           3.4295   -0.3153   -0.0017 H.spc      1 <1>        0.000
     13 H           2.2381    1.8762   -0.2111 H.spc      1 <1>        0.000
     14 H          -0.2689    1.9321   -0.2213 H.spc      1 <1>        0.000
@<TRIPOS>BOND
     1    1    2 1  
     2    2    3 2  
     3    2    4 1  
     4    4    5 ar 
     5    4    9 ar 
     6    5    6 ar 
     7    6    7 ar 
     8    7    8 ar 
     9    8    9 ar 
    10    1   10 1  
    11    5   11 1  
    12    7   12 1  
    13    8   13 1  
    14    9   14 1  
# Name:          frag5-531-90/41815
# Creation time: Sat Jun  5 12:52:51 2010


@<TRIPOS>MOLECULE
frag5-531-90/41815
   14    14     1     1     1
SMALL
USER_CHARGES


@<TRIPOS>ATOM
      1 O4         -2.6238    0.8830    0.3105 O.3        1 <1>        0.000
      2 C13        -1.9579   -0.2601    0.0173 C.2        1 <1>        0.000
      3 O5         -2.5540   -1.2901   -0.2371 O.2        1 <1>        0.000
      4 C14        -0.4868   -0.2430    0.0028 C.ar       1 <1>        0.000
      5 C15         0.2581   -1.4037    0.2934 C.ar       1 <1>        0.000
      6 N1          1.6250   -1.3550    0.2753 N.ar       1 <1>        0.000
      7 C16         2.3411   -0.2477   -0.0138 C.ar       1 <1>        0.000
      8 C17         1.6486    0.9292   -0.3077 C.ar       1 <1>        0.000
      9 C18         0.2291    0.9345   -0.3011 C.ar       1 <1>        0.000
     10 H          -1.9919    1.5851    0.4821 H.spc      1 <1>        0.000
     11 H          -0.2530   -2.3365    0.5316 H.spc      1 <1>        0.000
     12 H           3.4308   -0.2714   -0.0178 H.spc      1 <1>        0.000
     13 H           2.1971    1.8417   -0.5416 H.spc      1 <1>        0.000
     14 H          -0.3107    1.8529   -0.5320 H.spc      1 <1>        0.000
@<TRIPOS>BOND
     1    1    2 1  
     2    2    3 2  
     3    2    4 1  
     4    4    5 ar 
     5    4    9 ar 
     6    5    6 ar 
     7    6    7 ar 
     8    7    8 ar 
     9    8    9 ar 
    10    1   10 1  
    11    5   11 1  
    12    7   12 1  
    13    8   13 1  
    14    9   14 1  
# Name:          frag5-531-90/41815 -- energy: -0.403661
# Creation time: Sat Jun  5 12:52:51 2010


@<TRIPOS>MOLECULE
frag5-531-90/41815 -- energy: -0.403661
   14    14     1     1     1
SMALL
USER_CHARGES


@<TRIPOS>ATOM
      1 O4         -2.6367    0.7126   -0.6153 O.3        1 <1>        0.000
      2 C13        -1.9568   -0.2535    0.0494 C.2        1 <1>        0.000
      3 O5         -2.5422   -1.1278    0.6613 O.2        1 <1>        0.000
      4 C14        -0.4867   -0.2393    0.0190 C.ar       1 <1>        0.000
      5 C15         0.2510   -1.4340   -0.1044 C.ar       1 <1>        0.000
      6 N1          1.6182   -1.3885   -0.1260 N.ar       1 <1>        0.000
      7 C16         2.3408   -0.2510   -0.0412 C.ar       1 <1>        0.000
      8 C17         1.6556    0.9596    0.0836 C.ar       1 <1>        0.000
      9 C18         0.2363    0.9689    0.1132 C.ar       1 <1>        0.000
     10 H          -2.0133    1.3098   -1.0352 H.spc      1 <1>        0.000
     11 H          -0.2658   -2.3905   -0.1823 H.spc      1 <1>        0.000
     12 H           3.4301   -0.2769   -0.0694 H.spc      1 <1>        0.000
     13 H           2.2095    1.8954    0.1581 H.spc      1 <1>        0.000
     14 H          -0.2978    1.9142    0.2092 H.spc      1 <1>        0.000
@<TRIPOS>BOND
     1    1    2 1  
     2    2    3 2  
     3    2    4 1  
     4    4    5 ar 
     5    4    9 ar 
     6    5    6 ar 
     7    6    7 ar 
     8    7    8 ar 
     9    8    9 ar 
    10    1   10 1  
    11    5   11 1  
    12    7   12 1  
    13    8   13 1  
    14    9   14 1  
# Name:          frag5-531-90/41815 -- energy: -0.511476
# Creation time: Sat Jun  5 12:52:51 2010


@<TRIPOS>MOLECULE
frag5-531-90/41815 -- energy: -0.511476
   14    14     1     1     1
SMALL
USER_CHARGES


@<TRIPOS>ATOM
      1 O4         -2.6141   -0.8001    1.0155 O.3        1 <1>        0.000
      2 C13        -1.9613   -0.2082   -0.0102 C.2        1 <1>        0.000
      3 O5         -2.5593    0.3303   -0.9220 O.2        1 <1>        0.000
      4 C14        -0.4866   -0.2171   -0.0094 C.ar       1 <1>        0.000
      5 C15         0.2350   -1.4211    0.1085 C.ar       1 <1>        0.000
      6 N1          1.6011   -1.3942    0.1094 N.ar       1 <1>        0.000
      7 C16         2.3404   -0.2713   -0.0033 C.ar       1 <1>        0.000
      8 C17         1.6716    0.9493   -0.1221 C.ar       1 <1>        0.000
      9 C18         0.2527    0.9797   -0.1267 C.ar       1 <1>        0.000
     10 H          -1.9751   -1.1662    1.6313 H.spc      1 <1>        0.000
     11 H          -0.2940   -2.3699    0.1986 H.spc      1 <1>        0.000
     12 H           3.4295   -0.3153   -0.0017 H.spc      1 <1>        0.000
     13 H           2.2381    1.8762   -0.2111 H.spc      1 <1>        0.000
     14 H          -0.2689    1.9321   -0.2213 H.spc      1 <1>        0.000
@<TRIPOS>BOND
     1    1    2 1  
     2    2    3 2  
     3    2    4 1  
     4    4    5 ar 
     5    4    9 ar 
     6    5    6 ar 
     7    6    7 ar 
     8    7    8 ar 
     9    8    9 ar 
    10    1   10 1  
    11    5   11 1  
    12    7   12 1  
    13    8   13 1  
    14    9   14 1  
# Name:          frag5-531-90/41815 -- energy: -0.055251
# Creation time: Sat Jun  5 12:52:51 2010


@<TRIPOS>MOLECULE
frag5-531-90/41815 -- energy: -0.055251
   14    14     1     1     1
SMALL
USER_CHARGES


@<TRIPOS>ATOM
      1 O4         -2.6238    0.8830    0.3105 O.3        1 <1>        0.000
      2 C13        -1.9579   -0.2601    0.0173 C.2        1 <1>        0.000
      3 O5         -2.5540   -1.2901   -0.2371 O.2        1 <1>        0.000
      4 C14        -0.4868   -0.2430    0.0028 C.ar       1 <1>        0.000
      5 C15         0.2581   -1.4037    0.2934 C.ar       1 <1>        0.000
      6 N1          1.6250   -1.3550    0.2753 N.ar       1 <1>        0.000
      7 C16         2.3411   -0.2477   -0.0138 C.ar       1 <1>        0.000
      8 C17         1.6486    0.9292   -0.3077 C.ar       1 <1>        0.000
      9 C18         0.2291    0.9345   -0.3011 C.ar       1 <1>        0.000
     10 H          -1.9919    1.5851    0.4821 H.spc      1 <1>        0.000
     11 H          -0.2530   -2.3365    0.5316 H.spc      1 <1>        0.000
     12 H           3.4308   -0.2714   -0.0178 H.spc      1 <1>        0.000
     13 H           2.1971    1.8417   -0.5416 H.spc      1 <1>        0.000
     14 H          -0.3107    1.8529   -0.5320 H.spc      1 <1>        0.000
@<TRIPOS>BOND
     1    1    2 1  
     2    2    3 2  
     3    2    4 1  
     4    4    5 ar 
     5    4    9 ar 
     6    5    6 ar 
     7    6    7 ar 
     8    7    8 ar 
     9    8    9 ar 
    10    1   10 1  
    11    5   11 1  
    12    7   12 1  
    13    8   13 1  
    14    9   14 1  
