#      Rotatable Fragment
#      Build by yxyuan
#
# Name:          frag5-626-31/41815
# Creation time: Sat Jun  5 12:52:59 2010


@<TRIPOS>MOLECULE
frag5-626-31/41815
   44    45     1     1     1
SMALL
USER_CHARGES


@<TRIPOS>ATOM
      1 N1         -0.8399   -3.0587   -2.0173 N.am       1 <1>        0.000
      2 C1          0.1691   -2.8316   -3.0224 C.3        1 <1>        0.000
      3 C2          1.2339   -3.8981   -3.0991 C.2        1 <1>        0.000
      4 N2          0.9179   -5.2090   -3.0863 N.am       1 <1>        0.000
      5 C3         -0.3517   -5.9375   -3.1231 C.3        1 <1>        0.000
      6 C4         -0.1444   -7.2912   -2.4929 C.3        1 <1>        0.000
      7 C5          1.3272   -7.5607   -2.7651 C.3        1 <1>        0.000
      8 C6          1.9523   -6.2143   -3.0294 C.3        1 <1>        0.000
      9 O1         -5.1305   -2.4802   -2.5771 O.3        1 <1>        0.000
     10 C8         -0.7671   -6.1206   -4.5967 C.2        1 <1>        0.000
     11 N3         -2.0577   -6.1197   -4.9868 N.am       1 <1>        0.000
     12 C9         -3.2549   -5.8126   -4.2552 C.3        1 <1>        0.000
     13 C10        -4.5221   -5.9447   -5.0928 C.2        1 <1>        0.000
     14 N4         -5.6892   -5.4048   -4.6668 N.am       1 <1>        0.000
     15 C11        -5.9434   -4.5982   -3.4939 C.3        1 <1>        0.000
     16 C12        -5.4597   -3.1753   -3.6776 C.2        1 <1>        0.000
     17 C13        -4.2221   -1.4161   -2.7631 C.3        1 <1>        0.000
     18 C14        -2.7753   -1.7822   -3.0306 C.3        1 <1>        0.000
     19 C15        -2.1274   -2.6583   -1.9628 C.2        1 <1>        0.000
     20 O2         -2.7689   -3.0411   -0.9804 O.2        1 <1>        0.000
     21 O14        -5.3346   -2.7064   -4.8105 O.2        1 <1>        0.000
     22 O15        -4.4851   -6.5612   -6.1622 O.2        1 <1>        0.000
     23 O16         0.0918   -6.3418   -5.4579 O.2        1 <1>        0.000
     24 O17         2.4206   -3.5692   -3.2163 O.2        1 <1>        0.000
     25 H          -0.5301   -3.6116   -1.2181 H.spc      1 <1>        0.000
     26 H           0.6715   -1.8998   -2.7628 H.spc      1 <1>        0.000
     27 H          -0.3398   -2.8214   -3.9863 H.spc      1 <1>        0.000
     28 H          -1.1254   -5.3911   -2.5837 H.spc      1 <1>        0.000
     29 H          -0.3923   -7.3101   -1.4316 H.spc      1 <1>        0.000
     30 H          -0.8015   -8.0579   -2.9034 H.spc      1 <1>        0.000
     31 H           1.8014   -8.0576   -1.9188 H.spc      1 <1>        0.000
     32 H           1.4559   -8.2303   -3.6155 H.spc      1 <1>        0.000
     33 H           2.4869   -6.2410   -3.9789 H.spc      1 <1>        0.000
     34 H           2.6507   -5.9733   -2.2280 H.spc      1 <1>        0.000
     35 H          -2.2086   -6.3798   -5.9615 H.spc      1 <1>        0.000
     36 H          -3.3289   -6.5217   -3.4307 H.spc      1 <1>        0.000
     37 H          -3.1836   -4.7760   -3.9257 H.spc      1 <1>        0.000
     38 H          -6.5011   -5.5934   -5.2548 H.spc      1 <1>        0.000
     39 H          -7.0191   -4.5755   -3.3191 H.spc      1 <1>        0.000
     40 H          -5.4076   -5.0372   -2.6523 H.spc      1 <1>        0.000
     41 H          -4.5635   -0.8864   -3.6524 H.spc      1 <1>        0.000
     42 H          -4.2192   -0.8609   -1.8251 H.spc      1 <1>        0.000
     43 H          -2.7604   -2.3528   -3.9592 H.spc      1 <1>        0.000
     44 H          -2.2130   -0.8488   -3.0572 H.spc      1 <1>        0.000
@<TRIPOS>BOND
     1    3    4 am 
     2    1   19 am 
     3    1    2 1  
     4    2    3 1  
     5   19   20 2  
     6   18   19 1  
     7   16   21 2  
     8   17   18 1  
     9   16    9 1  
    10    9   17 1  
    11   15   16 1  
    12   14   15 1  
    13   13   22 2  
    14   13   14 am 
    15   12   13 1  
    16   11   12 1  
    17   10   23 2  
    18   10   11 am 
    19    7    8 1  
    20    6    7 1  
    21    5   10 1  
    22    5    6 1  
    23    4    8 1  
    24    4    5 1  
    25    3   24 2  
    26    1   25 1  
    27    2   26 1  
    28    2   27 1  
    29    5   28 1  
    30    6   29 1  
    31    6   30 1  
    32    7   31 1  
    33    7   32 1  
    34    8   33 1  
    35    8   34 1  
    36   11   35 1  
    37   12   36 1  
    38   12   37 1  
    39   14   38 1  
    40   15   39 1  
    41   15   40 1  
    42   17   41 1  
    43   17   42 1  
    44   18   43 1  
    45   18   44 1  
# Name:          frag5-626-31/41815
# Creation time: Sat Jun  5 12:52:59 2010


@<TRIPOS>MOLECULE
frag5-626-31/41815
   44    45     1     1     1
SMALL
USER_CHARGES


@<TRIPOS>ATOM
      1 N1         -0.9632   -2.5511   -1.4436 N.am       1 <1>        0.000
      2 C1         -0.8509   -3.8956   -1.9363 C.3        1 <1>        0.000
      3 C2          0.4743   -4.1372   -2.6473 C.2        1 <1>        0.000
      4 N2          0.7818   -5.3793   -3.1024 N.am       1 <1>        0.000
      5 C3         -0.0059   -6.6103   -3.0529 C.3        1 <1>        0.000
      6 C4          0.9733   -7.7675   -3.0544 C.3        1 <1>        0.000
      7 C5          2.2140   -7.2335   -3.7171 C.3        1 <1>        0.000
      8 C6          2.0896   -5.7396   -3.6072 C.3        1 <1>        0.000
      9 O1         -4.5134   -3.6007   -3.2402 O.3        1 <1>        0.000
     10 C8         -1.0463   -6.6155   -4.2372 C.2        1 <1>        0.000
     11 N3         -2.3889   -6.8188   -3.9967 N.am       1 <1>        0.000
     12 C9         -3.4203   -7.0768   -5.0012 C.3        1 <1>        0.000
     13 C10        -4.5655   -6.0548   -5.0995 C.2        1 <1>        0.000
     14 N4         -4.3840   -4.8133   -5.6510 N.am       1 <1>        0.000
     15 C11        -5.3742   -3.7454   -5.5346 C.3        1 <1>        0.000
     16 C12        -5.3165   -3.0810   -4.1799 C.2        1 <1>        0.000
     17 C13        -4.0246   -2.7195   -2.2660 C.3        1 <1>        0.000
     18 C14        -2.9314   -1.8003   -2.7448 C.3        1 <1>        0.000
     19 C15        -1.8144   -1.5626   -1.7764 C.2        1 <1>        0.000
     20 O2         -1.6864   -0.4435   -1.2788 O.2        1 <1>        0.000
     21 O14        -5.9828   -2.0661   -3.9845 O.2        1 <1>        0.000
     22 O15        -5.6595   -6.3749   -4.6425 O.2        1 <1>        0.000
     23 O16        -0.6297   -6.4502   -5.3901 O.2        1 <1>        0.000
     24 O17         1.2636   -3.1959   -2.7819 O.2        1 <1>        0.000
     25 H          -0.2858   -2.3044   -0.7220 H.spc      1 <1>        0.000
     26 H          -1.6559   -4.0636   -2.6518 H.spc      1 <1>        0.000
     27 H          -0.9090   -4.5750   -1.0859 H.spc      1 <1>        0.000
     28 H          -0.6091   -6.6967   -2.1491 H.spc      1 <1>        0.000
     29 H           1.1779   -8.1224   -2.0443 H.spc      1 <1>        0.000
     30 H           0.5739   -8.6315   -3.5855 H.spc      1 <1>        0.000
     31 H           3.1219   -7.6030   -3.2403 H.spc      1 <1>        0.000
     32 H           2.2952   -7.5605   -4.7537 H.spc      1 <1>        0.000
     33 H           2.2235   -5.2981   -4.5947 H.spc      1 <1>        0.000
     34 H           2.8503   -5.3691   -2.9201 H.spc      1 <1>        0.000
     35 H          -2.6923   -6.7861   -3.0234 H.spc      1 <1>        0.000
     36 H          -2.9121   -7.0497   -5.9651 H.spc      1 <1>        0.000
     37 H          -3.8856   -8.0204   -4.7162 H.spc      1 <1>        0.000
     38 H          -3.5221   -4.6273   -6.1638 H.spc      1 <1>        0.000
     39 H          -5.1630   -2.9947   -6.2962 H.spc      1 <1>        0.000
     40 H          -6.3658   -4.1790   -5.6641 H.spc      1 <1>        0.000
     41 H          -4.8592   -2.0890   -1.9595 H.spc      1 <1>        0.000
     42 H          -3.6009   -3.3298   -1.4685 H.spc      1 <1>        0.000
     43 H          -2.4870   -2.2772   -3.6184 H.spc      1 <1>        0.000
     44 H          -3.3979   -0.8314   -2.9226 H.spc      1 <1>        0.000
@<TRIPOS>BOND
     1    3    4 am 
     2    1   19 am 
     3    1    2 1  
     4    2    3 1  
     5   19   20 2  
     6   18   19 1  
     7   16   21 2  
     8   17   18 1  
     9   16    9 1  
    10    9   17 1  
    11   15   16 1  
    12   14   15 1  
    13   13   22 2  
    14   13   14 am 
    15   12   13 1  
    16   11   12 1  
    17   10   23 2  
    18   10   11 am 
    19    7    8 1  
    20    6    7 1  
    21    5   10 1  
    22    5    6 1  
    23    4    8 1  
    24    4    5 1  
    25    3   24 2  
    26    1   25 1  
    27    2   26 1  
    28    2   27 1  
    29    5   28 1  
    30    6   29 1  
    31    6   30 1  
    32    7   31 1  
    33    7   32 1  
    34    8   33 1  
    35    8   34 1  
    36   11   35 1  
    37   12   36 1  
    38   12   37 1  
    39   14   38 1  
    40   15   39 1  
    41   15   40 1  
    42   17   41 1  
    43   17   42 1  
    44   18   43 1  
    45   18   44 1  
# Name:          frag5-626-31/41815
# Creation time: Sat Jun  5 12:52:59 2010


@<TRIPOS>MOLECULE
frag5-626-31/41815
   44    45     1     1     1
SMALL
USER_CHARGES


@<TRIPOS>ATOM
      1 N1         -1.2742   -2.3857   -2.1608 N.am       1 <1>        0.000
      2 C1         -1.0203   -3.7969   -2.2834 C.3        1 <1>        0.000
      3 C2          0.2771   -4.1199   -3.0157 C.2        1 <1>        0.000
      4 N2          0.5987   -5.4047   -3.3252 N.am       1 <1>        0.000
      5 C3         -0.1715   -6.6474   -3.2060 C.3        1 <1>        0.000
      6 C4          0.7963   -7.7518   -2.8476 C.3        1 <1>        0.000
      7 C5          2.1658   -7.2091   -3.1857 C.3        1 <1>        0.000
      8 C6          1.9216   -5.8252   -3.7308 C.3        1 <1>        0.000
      9 O1         -4.3552   -3.2741   -3.2115 O.3        1 <1>        0.000
     10 C8         -0.8395   -6.9523   -4.5731 C.2        1 <1>        0.000
     11 N3         -2.1589   -7.0192   -4.8103 N.am       1 <1>        0.000
     12 C9         -3.3424   -6.8574   -4.0178 C.3        1 <1>        0.000
     13 C10        -4.2760   -5.8365   -4.6535 C.2        1 <1>        0.000
     14 N4         -3.7508   -4.7762   -5.3188 N.am       1 <1>        0.000
     15 C11        -4.4961   -3.5832   -5.6473 C.3        1 <1>        0.000
     16 C12        -4.8608   -2.8306   -4.3819 C.2        1 <1>        0.000
     17 C13        -4.6463   -2.6091   -2.0112 C.3        1 <1>        0.000
     18 C14        -3.5035   -2.4816   -1.0407 C.3        1 <1>        0.000
     19 C15        -2.3231   -1.7384   -1.6051 C.2        1 <1>        0.000
     20 O2         -2.3334   -0.5097   -1.5628 O.2        1 <1>        0.000
     21 O14        -5.5863   -1.8398   -4.4718 O.2        1 <1>        0.000
     22 O15        -5.4809   -5.9498   -4.4630 O.2        1 <1>        0.000
     23 O16        -0.1365   -7.1586   -5.5690 O.2        1 <1>        0.000
     24 O17         1.0350   -3.1764   -3.2734 O.2        1 <1>        0.000
     25 H          -0.5523   -1.7813   -2.5532 H.spc      1 <1>        0.000
     26 H          -1.8383   -4.2280   -2.8605 H.spc      1 <1>        0.000
     27 H          -0.9376   -4.2037   -1.2755 H.spc      1 <1>        0.000
     28 H          -0.9451   -6.5632   -2.4427 H.spc      1 <1>        0.000
     29 H           0.7218   -8.0238   -1.7947 H.spc      1 <1>        0.000
     30 H           0.5810   -8.6676   -3.3982 H.spc      1 <1>        0.000
     31 H           2.8158   -7.1869   -2.3110 H.spc      1 <1>        0.000
     32 H           2.6801   -7.8407   -3.9101 H.spc      1 <1>        0.000
     33 H           1.9944   -5.8334   -4.8183 H.spc      1 <1>        0.000
     34 H           2.6693   -5.1332   -3.3432 H.spc      1 <1>        0.000
     35 H          -2.3691   -7.2365   -5.7845 H.spc      1 <1>        0.000
     36 H          -3.8579   -7.8155   -3.9524 H.spc      1 <1>        0.000
     37 H          -3.0584   -6.5071   -3.0255 H.spc      1 <1>        0.000
     38 H          -2.7725   -4.8247   -5.6034 H.spc      1 <1>        0.000
     39 H          -3.8831   -2.9418   -6.2806 H.spc      1 <1>        0.000
     40 H          -5.4094   -3.8652   -6.1713 H.spc      1 <1>        0.000
     41 H          -4.9343   -1.5937   -2.2834 H.spc      1 <1>        0.000
     42 H          -5.4124   -3.2001   -1.5093 H.spc      1 <1>        0.000
     43 H          -3.8645   -1.9205   -0.1787 H.spc      1 <1>        0.000
     44 H          -3.1697   -3.4887   -0.7908 H.spc      1 <1>        0.000
@<TRIPOS>BOND
     1    3    4 am 
     2    1   19 am 
     3    1    2 1  
     4    2    3 1  
     5   19   20 2  
     6   18   19 1  
     7   16   21 2  
     8   17   18 1  
     9   16    9 1  
    10    9   17 1  
    11   15   16 1  
    12   14   15 1  
    13   13   22 2  
    14   13   14 am 
    15   12   13 1  
    16   11   12 1  
    17   10   23 2  
    18   10   11 am 
    19    7    8 1  
    20    6    7 1  
    21    5   10 1  
    22    5    6 1  
    23    4    8 1  
    24    4    5 1  
    25    3   24 2  
    26    1   25 1  
    27    2   26 1  
    28    2   27 1  
    29    5   28 1  
    30    6   29 1  
    31    6   30 1  
    32    7   31 1  
    33    7   32 1  
    34    8   33 1  
    35    8   34 1  
    36   11   35 1  
    37   12   36 1  
    38   12   37 1  
    39   14   38 1  
    40   15   39 1  
    41   15   40 1  
    42   17   41 1  
    43   17   42 1  
    44   18   43 1  
    45   18   44 1  
# Name:          frag5-626-31/41815
# Creation time: Sat Jun  5 12:52:59 2010


@<TRIPOS>MOLECULE
frag5-626-31/41815
   44    45     1     1     1
SMALL
USER_CHARGES


@<TRIPOS>ATOM
      1 N1         -0.8661   -2.3229   -1.9589 N.am       1 <1>        0.000
      2 C1         -0.9632   -3.7265   -2.2497 C.3        1 <1>        0.000
      3 C2          0.4028   -4.3704   -2.4376 C.2        1 <1>        0.000
      4 N2          0.5332   -5.5800   -3.0407 N.am       1 <1>        0.000
      5 C3         -0.5108   -6.4337   -3.6154 C.3        1 <1>        0.000
      6 C4          0.0820   -7.8057   -3.8679 C.3        1 <1>        0.000
      7 C5          1.5791   -7.5942   -3.8736 C.3        1 <1>        0.000
      8 C6          1.7984   -6.2593   -3.2164 C.3        1 <1>        0.000
      9 O1         -4.3308   -3.1660   -3.2706 O.3        1 <1>        0.000
     10 C8         -1.0550   -5.7294   -4.8946 C.2        1 <1>        0.000
     11 N3         -2.2574   -6.0118   -5.4443 N.am       1 <1>        0.000
     12 C9         -3.2514   -7.0342   -5.1957 C.3        1 <1>        0.000
     13 C10        -4.3912   -6.6931   -4.2195 C.2        1 <1>        0.000
     14 N4         -5.1603   -5.5850   -4.2802 N.am       1 <1>        0.000
     15 C11        -5.2304   -4.4597   -5.1980 C.3        1 <1>        0.000
     16 C12        -4.8181   -3.1632   -4.5290 C.2        1 <1>        0.000
     17 C13        -4.0573   -1.9110   -2.6835 C.3        1 <1>        0.000
     18 C14        -3.2652   -1.8681   -1.4027 C.3        1 <1>        0.000
     19 C15        -1.8300   -1.4619   -1.5888 C.2        1 <1>        0.000
     20 O2         -1.5458   -0.2786   -1.3959 O.2        1 <1>        0.000
     21 O14        -4.9527   -2.1264   -5.1843 O.2        1 <1>        0.000
     22 O15        -4.6714   -7.5276   -3.3454 O.2        1 <1>        0.000
     23 O16        -0.3893   -4.8596   -5.4736 O.2        1 <1>        0.000
     24 O17         1.3895   -3.7652   -1.9999 O.2        1 <1>        0.000
     25 H           0.0679   -1.9223   -2.0457 H.spc      1 <1>        0.000
     26 H          -1.5234   -3.8427   -3.1775 H.spc      1 <1>        0.000
     27 H          -1.4551   -4.2140   -1.4080 H.spc      1 <1>        0.000
     28 H          -1.3586   -6.5789   -2.9459 H.spc      1 <1>        0.000
     29 H          -0.2205   -8.5218   -3.1039 H.spc      1 <1>        0.000
     30 H          -0.2684   -8.2287   -4.8094 H.spc      1 <1>        0.000
     31 H           2.0973   -8.3917   -3.3411 H.spc      1 <1>        0.000
     32 H           1.9812   -7.6117   -4.8866 H.spc      1 <1>        0.000
     33 H           2.4470   -5.6515   -3.8472 H.spc      1 <1>        0.000
     34 H           2.2619   -6.4115   -2.2417 H.spc      1 <1>        0.000
     35 H          -2.5193   -5.3690   -6.1917 H.spc      1 <1>        0.000
     36 H          -3.7323   -7.2162   -6.1568 H.spc      1 <1>        0.000
     37 H          -2.7117   -7.8637   -4.7388 H.spc      1 <1>        0.000
     38 H          -5.8369   -5.5245   -3.5193 H.spc      1 <1>        0.000
     39 H          -4.5488   -4.6500   -6.0270 H.spc      1 <1>        0.000
     40 H          -6.2610   -4.3578   -5.5381 H.spc      1 <1>        0.000
     41 H          -3.4431   -1.3845   -3.4140 H.spc      1 <1>        0.000
     42 H          -5.0335   -1.4999   -2.4265 H.spc      1 <1>        0.000
     43 H          -3.7320   -1.1241   -0.7571 H.spc      1 <1>        0.000
     44 H          -3.2661   -2.8756   -0.9866 H.spc      1 <1>        0.000
@<TRIPOS>BOND
     1    3    4 am 
     2    1   19 am 
     3    1    2 1  
     4    2    3 1  
     5   19   20 2  
     6   18   19 1  
     7   16   21 2  
     8   17   18 1  
     9   16    9 1  
    10    9   17 1  
    11   15   16 1  
    12   14   15 1  
    13   13   22 2  
    14   13   14 am 
    15   12   13 1  
    16   11   12 1  
    17   10   23 2  
    18   10   11 am 
    19    7    8 1  
    20    6    7 1  
    21    5   10 1  
    22    5    6 1  
    23    4    8 1  
    24    4    5 1  
    25    3   24 2  
    26    1   25 1  
    27    2   26 1  
    28    2   27 1  
    29    5   28 1  
    30    6   29 1  
    31    6   30 1  
    32    7   31 1  
    33    7   32 1  
    34    8   33 1  
    35    8   34 1  
    36   11   35 1  
    37   12   36 1  
    38   12   37 1  
    39   14   38 1  
    40   15   39 1  
    41   15   40 1  
    42   17   41 1  
    43   17   42 1  
    44   18   43 1  
    45   18   44 1  
# Name:          frag5-626-31/41815
# Creation time: Sat Jun  5 12:52:59 2010


@<TRIPOS>MOLECULE
frag5-626-31/41815
   44    45     1     1     1
SMALL
USER_CHARGES


@<TRIPOS>ATOM
      1 N1         -0.6256   -1.9187   -2.5701 N.am       1 <1>        0.000
      2 C1         -0.5983   -3.0772   -3.4081 C.3        1 <1>        0.000
      3 C2          0.4968   -4.0518   -2.9372 C.2        1 <1>        0.000
      4 N2          0.2925   -5.3994   -3.0405 N.am       1 <1>        0.000
      5 C3         -0.8501   -6.0672   -3.6219 C.3        1 <1>        0.000
      6 C4         -0.9477   -7.4345   -3.0270 C.3        1 <1>        0.000
      7 C5          0.4849   -7.7918   -2.7659 C.3        1 <1>        0.000
      8 C6          1.1481   -6.4560   -2.5314 C.3        1 <1>        0.000
      9 O1         -4.1898   -3.2642   -3.3011 O.3        1 <1>        0.000
     10 C8         -0.6827   -6.0746   -5.1646 C.2        1 <1>        0.000
     11 N3         -1.7219   -5.7733   -5.9817 N.am       1 <1>        0.000
     12 C9         -2.9984   -5.2533   -5.5963 C.3        1 <1>        0.000
     13 C10        -3.9054   -6.2701   -4.9068 C.2        1 <1>        0.000
     14 N4         -5.0664   -5.8679   -4.3384 N.am       1 <1>        0.000
     15 C11        -5.7964   -4.6494   -4.5786 C.3        1 <1>        0.000
     16 C12        -5.4461   -3.4198   -3.7670 C.2        1 <1>        0.000
     17 C13        -3.8645   -2.1572   -2.4765 C.3        1 <1>        0.000
     18 C14        -2.8048   -2.3915   -1.4254 C.3        1 <1>        0.000
     19 C15        -1.4908   -1.6444   -1.5690 C.2        1 <1>        0.000
     20 O2         -1.2235   -0.7693   -0.7493 O.2        1 <1>        0.000
     21 O14        -6.3250   -2.5820   -3.6048 O.2        1 <1>        0.000
     22 O15        -3.5822   -7.4564   -4.8472 O.2        1 <1>        0.000
     23 O16         0.4025   -6.3724   -5.6725 O.2        1 <1>        0.000
     24 O17         1.5335   -3.5914   -2.4850 O.2        1 <1>        0.000
     25 H           0.0925   -1.2168   -2.7491 H.spc      1 <1>        0.000
     26 H          -0.3854   -2.7706   -4.4322 H.spc      1 <1>        0.000
     27 H          -1.5656   -3.5769   -3.3561 H.spc      1 <1>        0.000
     28 H          -1.7861   -5.5528   -3.4041 H.spc      1 <1>        0.000
     29 H          -1.5605   -7.4603   -2.1259 H.spc      1 <1>        0.000
     30 H          -1.4476   -8.1463   -3.6840 H.spc      1 <1>        0.000
     31 H           0.5977   -8.4673   -1.9179 H.spc      1 <1>        0.000
     32 H           0.9347   -8.3405   -3.5934 H.spc      1 <1>        0.000
     33 H           2.1075   -6.4293   -3.0481 H.spc      1 <1>        0.000
     34 H           1.3099   -6.3115   -1.4632 H.spc      1 <1>        0.000
     35 H          -1.5785   -5.9346   -6.9786 H.spc      1 <1>        0.000
     36 H          -2.8164   -4.4489   -4.8836 H.spc      1 <1>        0.000
     37 H          -3.5051   -4.9359   -6.5077 H.spc      1 <1>        0.000
     38 H          -5.4747   -6.5065   -3.6558 H.spc      1 <1>        0.000
     39 H          -5.5693   -4.3818   -5.6106 H.spc      1 <1>        0.000
     40 H          -6.8280   -4.8800   -4.3125 H.spc      1 <1>        0.000
     41 H          -3.4670   -1.3906   -3.1416 H.spc      1 <1>        0.000
     42 H          -4.7765   -1.9039   -1.9359 H.spc      1 <1>        0.000
     43 H          -3.2394   -2.0399   -0.4897 H.spc      1 <1>        0.000
     44 H          -2.5490   -3.4484   -1.4997 H.spc      1 <1>        0.000
@<TRIPOS>BOND
     1    3    4 am 
     2    1   19 am 
     3    1    2 1  
     4    2    3 1  
     5   19   20 2  
     6   18   19 1  
     7   16   21 2  
     8   17   18 1  
     9   16    9 1  
    10    9   17 1  
    11   15   16 1  
    12   14   15 1  
    13   13   22 2  
    14   13   14 am 
    15   12   13 1  
    16   11   12 1  
    17   10   23 2  
    18   10   11 am 
    19    7    8 1  
    20    6    7 1  
    21    5   10 1  
    22    5    6 1  
    23    4    8 1  
    24    4    5 1  
    25    3   24 2  
    26    1   25 1  
    27    2   26 1  
    28    2   27 1  
    29    5   28 1  
    30    6   29 1  
    31    6   30 1  
    32    7   31 1  
    33    7   32 1  
    34    8   33 1  
    35    8   34 1  
    36   11   35 1  
    37   12   36 1  
    38   12   37 1  
    39   14   38 1  
    40   15   39 1  
    41   15   40 1  
    42   17   41 1  
    43   17   42 1  
    44   18   43 1  
    45   18   44 1  
# Name:          frag5-626-31/41815
# Creation time: Sat Jun  5 12:52:59 2010


@<TRIPOS>MOLECULE
frag5-626-31/41815
   44    45     1     1     1
SMALL
USER_CHARGES


@<TRIPOS>ATOM
      1 N1         -0.7491   -2.1337   -2.0039 N.am       1 <1>        0.000
      2 C1         -0.7566   -3.3951   -2.6889 C.3        1 <1>        0.000
      3 C2          0.5995   -4.0612   -2.8732 C.2        1 <1>        0.000
      4 N2          0.6605   -5.4020   -3.0974 N.am       1 <1>        0.000
      5 C3         -0.4251   -6.3699   -3.2510 C.3        1 <1>        0.000
      6 C4          0.0606   -7.6751   -2.6836 C.3        1 <1>        0.000
      7 C5          1.5306   -7.6553   -3.0072 C.3        1 <1>        0.000
      8 C6          1.8761   -6.1884   -3.0899 C.3        1 <1>        0.000
      9 O1         -4.2568   -2.9562   -3.9493 O.3        1 <1>        0.000
     10 C8         -0.7875   -6.5204   -4.7509 C.2        1 <1>        0.000
     11 N3         -2.0534   -6.4454   -5.2079 N.am       1 <1>        0.000
     12 C9         -3.2756   -6.0648   -4.5557 C.3        1 <1>        0.000
     13 C10        -4.4316   -5.9711   -5.5412 C.2        1 <1>        0.000
     14 N4         -5.5405   -5.2420   -5.2920 N.am       1 <1>        0.000
     15 C11        -6.0631   -4.6823   -4.0645 C.3        1 <1>        0.000
     16 C12        -5.3399   -3.5254   -3.3965 C.2        1 <1>        0.000
     17 C13        -3.6615   -1.8443   -3.2944 C.3        1 <1>        0.000
     18 C14        -3.2182   -1.9337   -1.8459 C.3        1 <1>        0.000
     19 C15        -1.8211   -1.4374   -1.5564 C.2        1 <1>        0.000
     20 O2         -1.6722   -0.3979   -0.9188 O.2        1 <1>        0.000
     21 O14        -5.7909   -3.1446   -2.3122 O.2        1 <1>        0.000
     22 O15        -4.3609   -6.5909   -6.6087 O.2        1 <1>        0.000
     23 O16         0.1046   -6.7411   -5.5777 O.2        1 <1>        0.000
     24 O17         1.6108   -3.3556   -2.7990 O.2        1 <1>        0.000
     25 H           0.1656   -1.7151   -1.8354 H.spc      1 <1>        0.000
     26 H          -1.1397   -3.1978   -3.6901 H.spc      1 <1>        0.000
     27 H          -1.3503   -4.0732   -2.0759 H.spc      1 <1>        0.000
     28 H          -1.3231   -6.0424   -2.7271 H.spc      1 <1>        0.000
     29 H          -0.1368   -7.7724   -1.6161 H.spc      1 <1>        0.000
     30 H          -0.4544   -8.5381   -3.1056 H.spc      1 <1>        0.000
     31 H           2.1231   -8.1740   -2.2536 H.spc      1 <1>        0.000
     32 H           1.7530   -8.1816   -3.9354 H.spc      1 <1>        0.000
     33 H           2.4351   -5.9994   -4.0064 H.spc      1 <1>        0.000
     34 H           2.4818   -5.9101   -2.2275 H.spc      1 <1>        0.000
     35 H          -2.1627   -6.7042   -6.1885 H.spc      1 <1>        0.000
     36 H          -3.5188   -6.8227   -3.8110 H.spc      1 <1>        0.000
     37 H          -3.1318   -5.0852   -4.0998 H.spc      1 <1>        0.000
     38 H          -6.1113   -5.0521   -6.1157 H.spc      1 <1>        0.000
     39 H          -7.0361   -4.2757   -4.3402 H.spc      1 <1>        0.000
     40 H          -6.0027   -5.4973   -3.3433 H.spc      1 <1>        0.000
     41 H          -2.7348   -1.6797   -3.8441 H.spc      1 <1>        0.000
     42 H          -4.4501   -1.0919   -3.2829 H.spc      1 <1>        0.000
     43 H          -3.8958   -1.2980   -1.2760 H.spc      1 <1>        0.000
     44 H          -3.2302   -2.9918   -1.5842 H.spc      1 <1>        0.000
@<TRIPOS>BOND
     1    3    4 am 
     2    1   19 am 
     3    1    2 1  
     4    2    3 1  
     5   19   20 2  
     6   18   19 1  
     7   16   21 2  
     8   17   18 1  
     9   16    9 1  
    10    9   17 1  
    11   15   16 1  
    12   14   15 1  
    13   13   22 2  
    14   13   14 am 
    15   12   13 1  
    16   11   12 1  
    17   10   23 2  
    18   10   11 am 
    19    7    8 1  
    20    6    7 1  
    21    5   10 1  
    22    5    6 1  
    23    4    8 1  
    24    4    5 1  
    25    3   24 2  
    26    1   25 1  
    27    2   26 1  
    28    2   27 1  
    29    5   28 1  
    30    6   29 1  
    31    6   30 1  
    32    7   31 1  
    33    7   32 1  
    34    8   33 1  
    35    8   34 1  
    36   11   35 1  
    37   12   36 1  
    38   12   37 1  
    39   14   38 1  
    40   15   39 1  
    41   15   40 1  
    42   17   41 1  
    43   17   42 1  
    44   18   43 1  
    45   18   44 1  
# Name:          frag5-626-31/41815
# Creation time: Sat Jun  5 12:52:59 2010


@<TRIPOS>MOLECULE
frag5-626-31/41815
   44    45     1     1     1
SMALL
USER_CHARGES


@<TRIPOS>ATOM
      1 N1         -1.2555   -2.2522   -2.2938 N.am       1 <1>        0.000
      2 C1         -1.1122   -3.6687   -2.4993 C.3        1 <1>        0.000
      3 C2          0.3328   -4.1397   -2.7201 C.2        1 <1>        0.000
      4 N2          0.5733   -5.4157   -3.1323 N.am       1 <1>        0.000
      5 C3         -0.4017   -6.4440   -3.4528 C.3        1 <1>        0.000
      6 C4          0.2431   -7.7912   -3.2655 C.3        1 <1>        0.000
      7 C5          1.6972   -7.5213   -3.5501 C.3        1 <1>        0.000
      8 C6          1.8698   -6.0516   -3.2457 C.3        1 <1>        0.000
      9 O1         -4.6543   -3.2950   -3.0431 O.3        1 <1>        0.000
     10 C8         -0.9253   -6.2442   -4.8937 C.2        1 <1>        0.000
     11 N3         -2.2070   -6.5080   -5.2362 N.am       1 <1>        0.000
     12 C9         -3.2646   -7.0857   -4.4528 C.3        1 <1>        0.000
     13 C10        -4.6593   -6.4703   -4.5041 C.2        1 <1>        0.000
     14 N4         -4.9804   -5.2367   -4.9285 N.am       1 <1>        0.000
     15 C11        -4.2303   -4.0778   -5.3483 C.3        1 <1>        0.000
     16 C12        -4.1542   -3.0313   -4.2608 C.2        1 <1>        0.000
     17 C13        -4.6569   -2.2640   -2.0785 C.3        1 <1>        0.000
     18 C14        -3.4812   -2.1175   -1.1440 C.3        1 <1>        0.000
     19 C15        -2.2335   -1.5134   -1.7289 C.2        1 <1>        0.000
     20 O2         -2.1289   -0.2832   -1.7007 O.2        1 <1>        0.000
     21 O14        -3.6327   -1.9500   -4.5343 O.2        1 <1>        0.000
     22 O15        -5.5906   -7.1612   -4.0728 O.2        1 <1>        0.000
     23 O16        -0.1627   -5.8632   -5.7867 O.2        1 <1>        0.000
     24 O17         1.2537   -3.3475   -2.4933 O.2        1 <1>        0.000
     25 H          -0.4695   -1.7023   -2.6405 H.spc      1 <1>        0.000
     26 H          -1.6693   -3.9171   -3.4026 H.spc      1 <1>        0.000
     27 H          -1.4721   -4.1594   -1.5950 H.spc      1 <1>        0.000
     28 H          -1.2631   -6.3784   -2.7882 H.spc      1 <1>        0.000
     29 H           0.0793   -8.2001   -2.2685 H.spc      1 <1>        0.000
     30 H          -0.1786   -8.5532   -3.9209 H.spc      1 <1>        0.000
     31 H           2.3564   -8.1457   -2.9471 H.spc      1 <1>        0.000
     32 H           1.9658   -7.7619   -4.5787 H.spc      1 <1>        0.000
     33 H           2.4315   -5.5810   -4.0526 H.spc      1 <1>        0.000
     34 H           2.4082   -5.9403   -2.3045 H.spc      1 <1>        0.000
     35 H          -2.4607   -6.2601   -6.1925 H.spc      1 <1>        0.000
     36 H          -3.3905   -8.0905   -4.8561 H.spc      1 <1>        0.000
     37 H          -2.9440   -6.9588   -3.4188 H.spc      1 <1>        0.000
     38 H          -5.9883   -5.0839   -4.9616 H.spc      1 <1>        0.000
     39 H          -3.2157   -4.3959   -5.5880 H.spc      1 <1>        0.000
     40 H          -4.7332   -3.6391   -6.2101 H.spc      1 <1>        0.000
     41 H          -4.6650   -1.3418   -2.6595 H.spc      1 <1>        0.000
     42 H          -5.5001   -2.4961   -1.4279 H.spc      1 <1>        0.000
     43 H          -3.8046   -1.4392   -0.3544 H.spc      1 <1>        0.000
     44 H          -3.2124   -3.1276   -0.8348 H.spc      1 <1>        0.000
@<TRIPOS>BOND
     1    3    4 am 
     2    1   19 am 
     3    1    2 1  
     4    2    3 1  
     5   19   20 2  
     6   18   19 1  
     7   16   21 2  
     8   17   18 1  
     9   16    9 1  
    10    9   17 1  
    11   15   16 1  
    12   14   15 1  
    13   13   22 2  
    14   13   14 am 
    15   12   13 1  
    16   11   12 1  
    17   10   23 2  
    18   10   11 am 
    19    7    8 1  
    20    6    7 1  
    21    5   10 1  
    22    5    6 1  
    23    4    8 1  
    24    4    5 1  
    25    3   24 2  
    26    1   25 1  
    27    2   26 1  
    28    2   27 1  
    29    5   28 1  
    30    6   29 1  
    31    6   30 1  
    32    7   31 1  
    33    7   32 1  
    34    8   33 1  
    35    8   34 1  
    36   11   35 1  
    37   12   36 1  
    38   12   37 1  
    39   14   38 1  
    40   15   39 1  
    41   15   40 1  
    42   17   41 1  
    43   17   42 1  
    44   18   43 1  
    45   18   44 1  
# Name:          frag5-626-31/41815
# Creation time: Sat Jun  5 12:52:59 2010


@<TRIPOS>MOLECULE
frag5-626-31/41815
   44    45     1     1     1
SMALL
USER_CHARGES


@<TRIPOS>ATOM
      1 N1         -0.7472   -2.3812   -1.9998 N.am       1 <1>        0.000
      2 C1         -0.7179   -3.1425   -3.2215 C.3        1 <1>        0.000
      3 C2          0.5643   -3.9449   -3.3181 C.2        1 <1>        0.000
      4 N2          0.5940   -5.2976   -3.2274 N.am       1 <1>        0.000
      5 C3         -0.5222   -6.2337   -3.1907 C.3        1 <1>        0.000
      6 C4         -0.1105   -7.3851   -2.3149 C.3        1 <1>        0.000
      7 C5          1.3714   -7.5041   -2.5850 C.3        1 <1>        0.000
      8 C6          1.7900   -6.0986   -2.9766 C.3        1 <1>        0.000
      9 O1         -4.4743   -3.2956   -2.4963 O.3        1 <1>        0.000
     10 C8         -0.8260   -6.6519   -4.6570 C.2        1 <1>        0.000
     11 N3         -2.0661   -6.6131   -5.1877 N.am       1 <1>        0.000
     12 C9         -3.2899   -6.1531   -4.6056 C.3        1 <1>        0.000
     13 C10        -4.4383   -6.0136   -5.5885 C.2        1 <1>        0.000
     14 N4         -5.5413   -5.3012   -5.2620 N.am       1 <1>        0.000
     15 C11        -5.8424   -4.7022   -3.9871 C.3        1 <1>        0.000
     16 C12        -5.0987   -3.4083   -3.6856 C.2        1 <1>        0.000
     17 C13        -4.2378   -1.9938   -1.9970 C.3        1 <1>        0.000
     18 C14        -2.9502   -1.2760   -2.3047 C.3        1 <1>        0.000
     19 C15        -1.7533   -1.6544   -1.4737 C.2        1 <1>        0.000
     20 O2         -1.7083   -1.2923   -0.2955 O.2        1 <1>        0.000
     21 O14        -5.0979   -2.5017   -4.5181 O.2        1 <1>        0.000
     22 O15        -4.3600   -6.5623   -6.6881 O.2        1 <1>        0.000
     23 O16         0.0965   -7.0417   -5.3818 O.2        1 <1>        0.000
     24 O17         1.6048   -3.2845   -3.4037 O.2        1 <1>        0.000
     25 H           0.1153   -2.3935   -1.4554 H.spc      1 <1>        0.000
     26 H          -0.7703   -2.4565   -4.0669 H.spc      1 <1>        0.000
     27 H          -1.5655   -3.8278   -3.2315 H.spc      1 <1>        0.000
     28 H          -1.4354   -5.8096   -2.7732 H.spc      1 <1>        0.000
     29 H          -0.3359   -7.2167   -1.2618 H.spc      1 <1>        0.000
     30 H          -0.6557   -8.3021   -2.5384 H.spc      1 <1>        0.000
     31 H           1.9203   -7.8711   -1.7178 H.spc      1 <1>        0.000
     32 H           1.5909   -8.2322   -3.3659 H.spc      1 <1>        0.000
     33 H           2.4028   -6.1354   -3.8772 H.spc      1 <1>        0.000
     34 H           2.3700   -5.6500   -2.1701 H.spc      1 <1>        0.000
     35 H          -2.1423   -6.9626   -6.1429 H.spc      1 <1>        0.000
     36 H          -3.5906   -6.8946   -3.8655 H.spc      1 <1>        0.000
     37 H          -3.0967   -5.1614   -4.1966 H.spc      1 <1>        0.000
     38 H          -6.2351   -5.1745   -5.9989 H.spc      1 <1>        0.000
     39 H          -6.9043   -4.4566   -4.0002 H.spc      1 <1>        0.000
     40 H          -5.5408   -5.4209   -3.2251 H.spc      1 <1>        0.000
     41 H          -5.0049   -1.3820   -2.4718 H.spc      1 <1>        0.000
     42 H          -4.2204   -2.1218   -0.9147 H.spc      1 <1>        0.000
     43 H          -2.6980   -1.5369   -3.3325 H.spc      1 <1>        0.000
     44 H          -3.1370   -0.2216   -2.1013 H.spc      1 <1>        0.000
@<TRIPOS>BOND
     1    3    4 am 
     2    1   19 am 
     3    1    2 1  
     4    2    3 1  
     5   19   20 2  
     6   18   19 1  
     7   16   21 2  
     8   17   18 1  
     9   16    9 1  
    10    9   17 1  
    11   15   16 1  
    12   14   15 1  
    13   13   22 2  
    14   13   14 am 
    15   12   13 1  
    16   11   12 1  
    17   10   23 2  
    18   10   11 am 
    19    7    8 1  
    20    6    7 1  
    21    5   10 1  
    22    5    6 1  
    23    4    8 1  
    24    4    5 1  
    25    3   24 2  
    26    1   25 1  
    27    2   26 1  
    28    2   27 1  
    29    5   28 1  
    30    6   29 1  
    31    6   30 1  
    32    7   31 1  
    33    7   32 1  
    34    8   33 1  
    35    8   34 1  
    36   11   35 1  
    37   12   36 1  
    38   12   37 1  
    39   14   38 1  
    40   15   39 1  
    41   15   40 1  
    42   17   41 1  
    43   17   42 1  
    44   18   43 1  
    45   18   44 1  
# Name:          frag5-626-31/41815
# Creation time: Sat Jun  5 12:52:59 2010


@<TRIPOS>MOLECULE
frag5-626-31/41815
   44    45     1     1     1
SMALL
USER_CHARGES


@<TRIPOS>ATOM
      1 N1         -1.4930   -2.7950   -3.2921 N.am       1 <1>        0.000
      2 C1         -1.5622   -3.9002   -2.3703 C.3        1 <1>        0.000
      3 C2         -0.1499   -4.3930   -2.1353 C.2        1 <1>        0.000
      4 N2          0.2691   -5.5277   -2.7574 N.am       1 <1>        0.000
      5 C3         -0.5125   -6.5471   -3.4610 C.3        1 <1>        0.000
      6 C4          0.2953   -7.8228   -3.4266 C.3        1 <1>        0.000
      7 C5          1.7264   -7.3411   -3.3933 C.3        1 <1>        0.000
      8 C6          1.6474   -5.9556   -2.8071 C.3        1 <1>        0.000
      9 O1         -4.5030   -2.8900   -2.0621 O.3        1 <1>        0.000
     10 C8         -0.8275   -6.0193   -4.8882 C.2        1 <1>        0.000
     11 N3         -1.9097   -6.3746   -5.6112 N.am       1 <1>        0.000
     12 C9         -3.0203   -7.2723   -5.3701 C.3        1 <1>        0.000
     13 C10        -4.2650   -6.5712   -4.8301 C.2        1 <1>        0.000
     14 N4         -4.1956   -5.2639   -4.4638 N.am       1 <1>        0.000
     15 C11        -5.2266   -4.5172   -3.7697 C.3        1 <1>        0.000
     16 C12        -4.7002   -3.1538   -3.3721 C.2        1 <1>        0.000
     17 C13        -4.0522   -1.5962   -1.6664 C.3        1 <1>        0.000
     18 C14        -2.6090   -1.1269   -1.8386 C.3        1 <1>        0.000
     19 C15        -1.8678   -1.5067   -3.0953 C.2        1 <1>        0.000
     20 O2         -1.6022   -0.6476   -3.9321 O.2        1 <1>        0.000
     21 O14        -4.4321   -2.3442   -4.2646 O.2        1 <1>        0.000
     22 O15        -5.3039   -7.2260   -4.7035 O.2        1 <1>        0.000
     23 O16        -0.0560   -5.2193   -5.4357 O.2        1 <1>        0.000
     24 O17         0.5890   -3.7219   -1.4200 O.2        1 <1>        0.000
     25 H          -1.1121   -3.0098   -4.2136 H.spc      1 <1>        0.000
     26 H          -2.1791   -4.6991   -2.7817 H.spc      1 <1>        0.000
     27 H          -2.0143   -3.5826   -1.4307 H.spc      1 <1>        0.000
     28 H          -1.4764   -6.7598   -2.9987 H.spc      1 <1>        0.000
     29 H           0.0475   -8.4483   -2.5690 H.spc      1 <1>        0.000
     30 H           0.0932   -8.4656   -4.2834 H.spc      1 <1>        0.000
     31 H           2.3639   -7.9982   -2.8017 H.spc      1 <1>        0.000
     32 H           2.1788   -7.3389   -4.3850 H.spc      1 <1>        0.000
     33 H           2.2181   -5.2663   -3.4294 H.spc      1 <1>        0.000
     34 H           2.0599   -5.9654   -1.7982 H.spc      1 <1>        0.000
     35 H          -1.9554   -5.9134   -6.5198 H.spc      1 <1>        0.000
     36 H          -3.2880   -7.7256   -6.3245 H.spc      1 <1>        0.000
     37 H          -2.7001   -7.9950   -4.6196 H.spc      1 <1>        0.000
     38 H          -3.3393   -4.7620   -4.6989 H.spc      1 <1>        0.000
     39 H          -6.0846   -4.3916   -4.4302 H.spc      1 <1>        0.000
     40 H          -5.5225   -5.0626   -2.8736 H.spc      1 <1>        0.000
     41 H          -4.6095   -0.9285   -2.3234 H.spc      1 <1>        0.000
     42 H          -4.1803   -1.6100   -0.5840 H.spc      1 <1>        0.000
     43 H          -2.6664   -0.0387   -1.8621 H.spc      1 <1>        0.000
     44 H          -2.0575   -1.6056   -1.0294 H.spc      1 <1>        0.000
@<TRIPOS>BOND
     1    3    4 am 
     2    1   19 am 
     3    1    2 1  
     4    2    3 1  
     5   19   20 2  
     6   18   19 1  
     7   16   21 2  
     8   17   18 1  
     9   16    9 1  
    10    9   17 1  
    11   15   16 1  
    12   14   15 1  
    13   13   22 2  
    14   13   14 am 
    15   12   13 1  
    16   11   12 1  
    17   10   23 2  
    18   10   11 am 
    19    7    8 1  
    20    6    7 1  
    21    5   10 1  
    22    5    6 1  
    23    4    8 1  
    24    4    5 1  
    25    3   24 2  
    26    1   25 1  
    27    2   26 1  
    28    2   27 1  
    29    5   28 1  
    30    6   29 1  
    31    6   30 1  
    32    7   31 1  
    33    7   32 1  
    34    8   33 1  
    35    8   34 1  
    36   11   35 1  
    37   12   36 1  
    38   12   37 1  
    39   14   38 1  
    40   15   39 1  
    41   15   40 1  
    42   17   41 1  
    43   17   42 1  
    44   18   43 1  
    45   18   44 1  
# Name:          frag5-626-31/41815
# Creation time: Sat Jun  5 12:52:59 2010


@<TRIPOS>MOLECULE
frag5-626-31/41815
   44    45     1     1     1
SMALL
USER_CHARGES


@<TRIPOS>ATOM
      1 N1         -0.7307   -2.2322   -2.3456 N.am       1 <1>        0.000
      2 C1         -0.6481   -2.9790   -3.5864 C.3        1 <1>        0.000
      3 C2          0.6287   -3.7935   -3.4863 C.2        1 <1>        0.000
      4 N2          0.6022   -5.1271   -3.2394 N.am       1 <1>        0.000
      5 C3         -0.5386   -6.0249   -3.0862 C.3        1 <1>        0.000
      6 C4         -0.0959   -7.1891   -2.2387 C.3        1 <1>        0.000
      7 C5          1.3603   -7.3351   -2.6053 C.3        1 <1>        0.000
      8 C6          1.7775   -5.9434   -3.0101 C.3        1 <1>        0.000
      9 O1         -5.1450   -2.9444   -2.5644 O.3        1 <1>        0.000
     10 C8         -0.9710   -6.5069   -4.4945 C.2        1 <1>        0.000
     11 N3         -2.2406   -6.5504   -4.9131 N.am       1 <1>        0.000
     12 C9         -3.4982   -6.1011   -4.3761 C.3        1 <1>        0.000
     13 C10        -4.5228   -5.9715   -5.5066 C.2        1 <1>        0.000
     14 N4         -5.5331   -5.0824   -5.4965 N.am       1 <1>        0.000
     15 C11        -6.0439   -4.2027   -4.4666 C.3        1 <1>        0.000
     16 C12        -5.0272   -3.2427   -3.8733 C.2        1 <1>        0.000
     17 C13        -4.0929   -2.2113   -1.9857 C.3        1 <1>        0.000
     18 C14        -2.9248   -3.0009   -1.4661 C.3        1 <1>        0.000
     19 C15        -1.6580   -2.2132   -1.3614 C.2        1 <1>        0.000
     20 O2         -1.4834   -1.4957   -0.3725 O.2        1 <1>        0.000
     21 O14        -4.1359   -2.7871   -4.5917 O.2        1 <1>        0.000
     22 O15        -4.4271   -6.7383   -6.4723 O.2        1 <1>        0.000
     23 O16        -0.1074   -6.8941   -5.2875 O.2        1 <1>        0.000
     24 O17         1.6948   -3.1667   -3.5401 O.2        1 <1>        0.000
     25 H           0.0573   -1.6046   -2.1856 H.spc      1 <1>        0.000
     26 H          -0.6315   -2.3156   -4.4511 H.spc      1 <1>        0.000
     27 H          -1.5196   -3.6186   -3.7260 H.spc      1 <1>        0.000
     28 H          -1.3828   -5.5280   -2.6082 H.spc      1 <1>        0.000
     29 H          -0.2502   -7.0208   -1.1729 H.spc      1 <1>        0.000
     30 H          -0.6734   -8.0943   -2.4265 H.spc      1 <1>        0.000
     31 H           1.9572   -7.7208   -1.7788 H.spc      1 <1>        0.000
     32 H           1.5140   -8.0607   -3.4041 H.spc      1 <1>        0.000
     33 H           2.3653   -5.9951   -3.9265 H.spc      1 <1>        0.000
     34 H           2.3751   -5.4999   -2.2137 H.spc      1 <1>        0.000
     35 H          -2.3404   -7.0061   -5.8202 H.spc      1 <1>        0.000
     36 H          -3.8575   -6.8231   -3.6428 H.spc      1 <1>        0.000
     37 H          -3.3619   -5.1311   -3.8980 H.spc      1 <1>        0.000
     38 H          -6.0339   -5.0158   -6.3826 H.spc      1 <1>        0.000
     39 H          -6.8169   -3.5914   -4.9323 H.spc      1 <1>        0.000
     40 H          -6.3851   -4.8405   -3.6512 H.spc      1 <1>        0.000
     41 H          -3.6972   -1.5774   -2.7792 H.spc      1 <1>        0.000
     42 H          -4.5208   -1.7045   -1.1208 H.spc      1 <1>        0.000
     43 H          -3.1818   -3.3359   -0.4612 H.spc      1 <1>        0.000
     44 H          -2.7439   -3.8129   -2.1704 H.spc      1 <1>        0.000
@<TRIPOS>BOND
     1    3    4 am 
     2    1   19 am 
     3    1    2 1  
     4    2    3 1  
     5   19   20 2  
     6   18   19 1  
     7   16   21 2  
     8   17   18 1  
     9   16    9 1  
    10    9   17 1  
    11   15   16 1  
    12   14   15 1  
    13   13   22 2  
    14   13   14 am 
    15   12   13 1  
    16   11   12 1  
    17   10   23 2  
    18   10   11 am 
    19    7    8 1  
    20    6    7 1  
    21    5   10 1  
    22    5    6 1  
    23    4    8 1  
    24    4    5 1  
    25    3   24 2  
    26    1   25 1  
    27    2   26 1  
    28    2   27 1  
    29    5   28 1  
    30    6   29 1  
    31    6   30 1  
    32    7   31 1  
    33    7   32 1  
    34    8   33 1  
    35    8   34 1  
    36   11   35 1  
    37   12   36 1  
    38   12   37 1  
    39   14   38 1  
    40   15   39 1  
    41   15   40 1  
    42   17   41 1  
    43   17   42 1  
    44   18   43 1  
    45   18   44 1  
# Name:          frag5-626-31/41815
# Creation time: Sat Jun  5 12:52:59 2010


@<TRIPOS>MOLECULE
frag5-626-31/41815
   44    45     1     1     1
SMALL
USER_CHARGES


@<TRIPOS>ATOM
      1 N1         -0.8577   -1.9806   -3.0451 N.am       1 <1>        0.000
      2 C1         -0.7905   -3.3184   -3.5792 C.3        1 <1>        0.000
      3 C2          0.3997   -4.1379   -3.0558 C.2        1 <1>        0.000
      4 N2          0.3009   -5.4957   -2.9584 N.am       1 <1>        0.000
      5 C3         -0.7797   -6.3578   -3.4274 C.3        1 <1>        0.000
      6 C4         -0.7637   -7.6118   -2.5998 C.3        1 <1>        0.000
      7 C5          0.6827   -7.7702   -2.2112 C.3        1 <1>        0.000
      8 C6          1.2653   -6.3802   -2.3280 C.3        1 <1>        0.000
      9 O1         -4.3456   -3.9865   -2.2839 O.3        1 <1>        0.000
     10 C8         -0.5426   -6.5943   -4.9373 C.2        1 <1>        0.000
     11 N3         -1.4806   -6.4381   -5.8924 N.am       1 <1>        0.000
     12 C9         -2.9222   -6.4777   -5.8967 C.3        1 <1>        0.000
     13 C10        -3.6806   -5.3850   -5.1622 C.2        1 <1>        0.000
     14 N4         -4.7590   -5.7232   -4.4010 N.am       1 <1>        0.000
     15 C11        -5.8355   -4.8342   -4.0352 C.3        1 <1>        0.000
     16 C12        -5.4648   -3.7881   -3.0088 C.2        1 <1>        0.000
     17 C13        -3.7142   -2.8493   -1.7484 C.3        1 <1>        0.000
     18 C14        -3.3329   -1.7450   -2.7038 C.3        1 <1>        0.000
     19 C15        -1.9140   -1.2420   -2.6468 C.2        1 <1>        0.000
     20 O2         -1.7230   -0.0984   -2.2144 O.2        1 <1>        0.000
     21 O14        -6.1904   -2.8078   -2.8761 O.2        1 <1>        0.000
     22 O15        -3.3223   -4.2132   -5.2949 O.2        1 <1>        0.000
     23 O16         0.5802   -6.9566   -5.3273 O.2        1 <1>        0.000
     24 O17         1.4292   -3.5413   -2.7324 O.2        1 <1>        0.000
     25 H           0.0449   -1.5146   -2.9530 H.spc      1 <1>        0.000
     26 H          -0.6743   -3.2310   -4.6595 H.spc      1 <1>        0.000
     27 H          -1.7000   -3.8358   -3.2739 H.spc      1 <1>        0.000
     28 H          -1.7723   -5.9221   -3.3130 H.spc      1 <1>        0.000
     29 H          -1.4205   -7.5440   -1.7325 H.spc      1 <1>        0.000
     30 H          -1.1421   -8.4746   -3.1479 H.spc      1 <1>        0.000
     31 H           0.7917   -8.1737   -1.2045 H.spc      1 <1>        0.000
     32 H           1.2005   -8.4836   -2.8524 H.spc      1 <1>        0.000
     33 H           2.1706   -6.4179   -2.9340 H.spc      1 <1>        0.000
     34 H           1.5038   -6.0040   -1.3332 H.spc      1 <1>        0.000
     35 H          -1.0843   -6.2510   -6.8134 H.spc      1 <1>        0.000
     36 H          -3.2068   -6.3676   -6.9431 H.spc      1 <1>        0.000
     37 H          -3.1831   -7.4016   -5.3805 H.spc      1 <1>        0.000
     38 H          -4.8096   -6.6838   -4.0618 H.spc      1 <1>        0.000
     39 H          -6.1309   -4.3025   -4.9397 H.spc      1 <1>        0.000
     40 H          -6.6204   -5.4488   -3.5945 H.spc      1 <1>        0.000
     41 H          -4.4393   -2.4071   -1.0652 H.spc      1 <1>        0.000
     42 H          -2.7752   -3.2079   -1.3266 H.spc      1 <1>        0.000
     43 H          -3.4582   -2.1626   -3.7028 H.spc      1 <1>        0.000
     44 H          -3.9589   -0.8938   -2.4361 H.spc      1 <1>        0.000
@<TRIPOS>BOND
     1    3    4 am 
     2    1   19 am 
     3    1    2 1  
     4    2    3 1  
     5   19   20 2  
     6   18   19 1  
     7   16   21 2  
     8   17   18 1  
     9   16    9 1  
    10    9   17 1  
    11   15   16 1  
    12   14   15 1  
    13   13   22 2  
    14   13   14 am 
    15   12   13 1  
    16   11   12 1  
    17   10   23 2  
    18   10   11 am 
    19    7    8 1  
    20    6    7 1  
    21    5   10 1  
    22    5    6 1  
    23    4    8 1  
    24    4    5 1  
    25    3   24 2  
    26    1   25 1  
    27    2   26 1  
    28    2   27 1  
    29    5   28 1  
    30    6   29 1  
    31    6   30 1  
    32    7   31 1  
    33    7   32 1  
    34    8   33 1  
    35    8   34 1  
    36   11   35 1  
    37   12   36 1  
    38   12   37 1  
    39   14   38 1  
    40   15   39 1  
    41   15   40 1  
    42   17   41 1  
    43   17   42 1  
    44   18   43 1  
    45   18   44 1  
# Name:          frag5-626-31/41815
# Creation time: Sat Jun  5 12:52:59 2010


@<TRIPOS>MOLECULE
frag5-626-31/41815
   44    45     1     1     1
SMALL
USER_CHARGES


@<TRIPOS>ATOM
      1 N1         -1.6413   -2.8673   -1.1666 N.am       1 <1>        0.000
      2 C1         -1.3214   -4.1785   -1.6744 C.3        1 <1>        0.000
      3 C2          0.1339   -4.3489   -2.1040 C.2        1 <1>        0.000
      4 N2          0.5032   -5.3593   -2.9393 N.am       1 <1>        0.000
      5 C3         -0.2803   -6.4661   -3.5001 C.3        1 <1>        0.000
      6 C4          0.6768   -7.6188   -3.6965 C.3        1 <1>        0.000
      7 C5          1.9823   -6.9410   -4.0195 C.3        1 <1>        0.000
      8 C6          1.8755   -5.6089   -3.3286 C.3        1 <1>        0.000
      9 O1         -3.7196   -3.0164   -3.3835 O.3        1 <1>        0.000
     10 C8         -0.9405   -6.0606   -4.8519 C.2        1 <1>        0.000
     11 N3         -2.2686   -6.1633   -5.1008 N.am       1 <1>        0.000
     12 C9         -3.3609   -6.4975   -4.2252 C.3        1 <1>        0.000
     13 C10        -4.7640   -6.3147   -4.8112 C.2        1 <1>        0.000
     14 N4         -5.7090   -5.5562   -4.2036 N.am       1 <1>        0.000
     15 C11        -5.5455   -4.5784   -3.1599 C.3        1 <1>        0.000
     16 C12        -4.9484   -3.3440   -3.7984 C.2        1 <1>        0.000
     17 C13        -3.0038   -1.9777   -4.0044 C.3        1 <1>        0.000
     18 C14        -1.6900   -1.6529   -3.3462 C.3        1 <1>        0.000
     19 C15        -1.8001   -1.7080   -1.8450 C.2        1 <1>        0.000
     20 O2         -2.0937   -0.6742   -1.2322 O.2        1 <1>        0.000
     21 O14        -5.5502   -2.7458   -4.6852 O.2        1 <1>        0.000
     22 O15        -5.0391   -6.8681   -5.8806 O.2        1 <1>        0.000
     23 O16        -0.2269   -5.6260   -5.7632 O.2        1 <1>        0.000
     24 O17         0.9702   -3.5608   -1.6462 O.2        1 <1>        0.000
     25 H          -1.7649   -2.8056   -0.1560 H.spc      1 <1>        0.000
     26 H          -1.9376   -4.3386   -2.5592 H.spc      1 <1>        0.000
     27 H          -1.5023   -4.8878   -0.8668 H.spc      1 <1>        0.000
     28 H          -1.0929   -6.7411   -2.8276 H.spc      1 <1>        0.000
     29 H           0.7451   -8.2594   -2.8173 H.spc      1 <1>        0.000
     30 H           0.3540   -8.3002   -4.4836 H.spc      1 <1>        0.000
     31 H           2.8437   -7.5165   -3.6805 H.spc      1 <1>        0.000
     32 H           2.1431   -6.8401   -5.0928 H.spc      1 <1>        0.000
     33 H           2.2022   -4.8245   -4.0113 H.spc      1 <1>        0.000
     34 H           2.5044   -5.6160   -2.4384 H.spc      1 <1>        0.000
     35 H          -2.5381   -5.9727   -6.0659 H.spc      1 <1>        0.000
     36 H          -3.2586   -7.5582   -3.9961 H.spc      1 <1>        0.000
     37 H          -3.2919   -5.8200   -3.3741 H.spc      1 <1>        0.000
     38 H          -6.6650   -5.6974   -4.5300 H.spc      1 <1>        0.000
     39 H          -6.5040   -4.3466   -2.6955 H.spc      1 <1>        0.000
     40 H          -4.8935   -4.9593   -2.3739 H.spc      1 <1>        0.000
     41 H          -2.7820   -2.3034   -5.0207 H.spc      1 <1>        0.000
     42 H          -3.6222   -1.0820   -3.9462 H.spc      1 <1>        0.000
     43 H          -0.9510   -2.3873   -3.6666 H.spc      1 <1>        0.000
     44 H          -1.3978   -0.6434   -3.6354 H.spc      1 <1>        0.000
@<TRIPOS>BOND
     1    3    4 am 
     2    1   19 am 
     3    1    2 1  
     4    2    3 1  
     5   19   20 2  
     6   18   19 1  
     7   16   21 2  
     8   17   18 1  
     9   16    9 1  
    10    9   17 1  
    11   15   16 1  
    12   14   15 1  
    13   13   22 2  
    14   13   14 am 
    15   12   13 1  
    16   11   12 1  
    17   10   23 2  
    18   10   11 am 
    19    7    8 1  
    20    6    7 1  
    21    5   10 1  
    22    5    6 1  
    23    4    8 1  
    24    4    5 1  
    25    3   24 2  
    26    1   25 1  
    27    2   26 1  
    28    2   27 1  
    29    5   28 1  
    30    6   29 1  
    31    6   30 1  
    32    7   31 1  
    33    7   32 1  
    34    8   33 1  
    35    8   34 1  
    36   11   35 1  
    37   12   36 1  
    38   12   37 1  
    39   14   38 1  
    40   15   39 1  
    41   15   40 1  
    42   17   41 1  
    43   17   42 1  
    44   18   43 1  
    45   18   44 1  
# Name:          frag5-626-31/41815
# Creation time: Sat Jun  5 12:52:59 2010


@<TRIPOS>MOLECULE
frag5-626-31/41815
   44    45     1     1     1
SMALL
USER_CHARGES


@<TRIPOS>ATOM
      1 N1         -0.9019   -2.0869   -2.5044 N.am       1 <1>        0.000
      2 C1         -0.9387   -3.2774   -3.3010 C.3        1 <1>        0.000
      3 C2          0.3682   -4.0505   -3.1840 C.2        1 <1>        0.000
      4 N2          0.4134   -5.4069   -3.1994 N.am       1 <1>        0.000
      5 C3         -0.6293   -6.4161   -3.4367 C.3        1 <1>        0.000
      6 C4         -0.2795   -7.6018   -2.5654 C.3        1 <1>        0.000
      7 C5          1.2257   -7.5838   -2.5076 C.3        1 <1>        0.000
      8 C6          1.5841   -6.1456   -2.7652 C.3        1 <1>        0.000
      9 O1         -4.3666   -3.1596   -3.2034 O.3        1 <1>        0.000
     10 C8         -0.6396   -6.8496   -4.9281 C.2        1 <1>        0.000
     11 N3         -1.5180   -6.4550   -5.8640 N.am       1 <1>        0.000
     12 C9         -2.4823   -5.4065   -5.9456 C.3        1 <1>        0.000
     13 C10        -3.8420   -5.6181   -5.2929 C.2        1 <1>        0.000
     14 N4         -4.7817   -4.6533   -5.5076 N.am       1 <1>        0.000
     15 C11        -5.9418   -4.4045   -4.6997 C.3        1 <1>        0.000
     16 C12        -5.6413   -3.4775   -3.5351 C.2        1 <1>        0.000
     17 C13        -4.1766   -2.1515   -2.2268 C.3        1 <1>        0.000
     18 C14        -3.0522   -2.2349   -1.2189 C.3        1 <1>        0.000
     19 C15        -1.7390   -1.5926   -1.5860 C.2        1 <1>        0.000
     20 O2         -1.4266   -0.5564   -0.9930 O.2        1 <1>        0.000
     21 O14        -6.6183   -3.0317   -2.9370 O.2        1 <1>        0.000
     22 O15        -4.0318   -6.5845   -4.5664 O.2        1 <1>        0.000
     23 O16         0.2504   -7.6078   -5.3388 O.2        1 <1>        0.000
     24 O17         1.4040   -3.3812   -3.0594 O.2        1 <1>        0.000
     25 H          -0.0803   -1.5054   -2.6693 H.spc      1 <1>        0.000
     26 H          -1.0878   -2.9969   -4.3437 H.spc      1 <1>        0.000
     27 H          -1.7530   -3.9102   -2.9480 H.spc      1 <1>        0.000
     28 H          -1.6163   -6.0179   -3.2013 H.spc      1 <1>        0.000
     29 H          -0.7308   -7.5332   -1.5756 H.spc      1 <1>        0.000
     30 H          -0.6652   -8.5379   -2.9691 H.spc      1 <1>        0.000
     31 H           1.6061   -7.9387   -1.5498 H.spc      1 <1>        0.000
     32 H           1.6747   -8.2580   -3.2370 H.spc      1 <1>        0.000
     33 H           2.3433   -6.1017   -3.5461 H.spc      1 <1>        0.000
     34 H           1.9642   -5.7025   -1.8447 H.spc      1 <1>        0.000
     35 H          -1.4895   -7.0337   -6.7035 H.spc      1 <1>        0.000
     36 H          -2.0370   -4.5673   -5.4113 H.spc      1 <1>        0.000
     37 H          -2.6912   -5.2933   -7.0094 H.spc      1 <1>        0.000
     38 H          -4.6473   -4.0510   -6.3198 H.spc      1 <1>        0.000
     39 H          -6.6959   -3.9284   -5.3264 H.spc      1 <1>        0.000
     40 H          -6.2843   -5.3571   -4.2954 H.spc      1 <1>        0.000
     41 H          -3.9387   -1.2627   -2.8112 H.spc      1 <1>        0.000
     42 H          -5.0787   -2.2044   -1.6173 H.spc      1 <1>        0.000
     43 H          -3.4061   -1.6968   -0.3395 H.spc      1 <1>        0.000
     44 H          -2.8375   -3.2976   -1.1063 H.spc      1 <1>        0.000
@<TRIPOS>BOND
     1    3    4 am 
     2    1   19 am 
     3    1    2 1  
     4    2    3 1  
     5   19   20 2  
     6   18   19 1  
     7   16   21 2  
     8   17   18 1  
     9   16    9 1  
    10    9   17 1  
    11   15   16 1  
    12   14   15 1  
    13   13   22 2  
    14   13   14 am 
    15   12   13 1  
    16   11   12 1  
    17   10   23 2  
    18   10   11 am 
    19    7    8 1  
    20    6    7 1  
    21    5   10 1  
    22    5    6 1  
    23    4    8 1  
    24    4    5 1  
    25    3   24 2  
    26    1   25 1  
    27    2   26 1  
    28    2   27 1  
    29    5   28 1  
    30    6   29 1  
    31    6   30 1  
    32    7   31 1  
    33    7   32 1  
    34    8   33 1  
    35    8   34 1  
    36   11   35 1  
    37   12   36 1  
    38   12   37 1  
    39   14   38 1  
    40   15   39 1  
    41   15   40 1  
    42   17   41 1  
    43   17   42 1  
    44   18   43 1  
    45   18   44 1  
# Name:          frag5-626-31/41815 -- energy: -9.513676
# Creation time: Sat Jun  5 12:52:59 2010


@<TRIPOS>MOLECULE
frag5-626-31/41815 -- energy: -9.513676
   44    45     1     1     1
SMALL
USER_CHARGES


@<TRIPOS>ATOM
      1 N1         -0.8399   -3.0587   -2.0173 N.am       1 <1>        0.000
      2 C1          0.1691   -2.8316   -3.0224 C.3        1 <1>        0.000
      3 C2          1.2339   -3.8981   -3.0991 C.2        1 <1>        0.000
      4 N2          0.9179   -5.2090   -3.0863 N.am       1 <1>        0.000
      5 C3         -0.3517   -5.9375   -3.1231 C.3        1 <1>        0.000
      6 C4         -0.1444   -7.2912   -2.4929 C.3        1 <1>        0.000
      7 C5          1.3272   -7.5607   -2.7651 C.3        1 <1>        0.000
      8 C6          1.9523   -6.2143   -3.0294 C.3        1 <1>        0.000
      9 O1         -5.1305   -2.4802   -2.5771 O.3        1 <1>        0.000
     10 C8         -0.7671   -6.1206   -4.5967 C.2        1 <1>        0.000
     11 N3         -2.0577   -6.1197   -4.9868 N.am       1 <1>        0.000
     12 C9         -3.2549   -5.8126   -4.2552 C.3        1 <1>        0.000
     13 C10        -4.5221   -5.9447   -5.0928 C.2        1 <1>        0.000
     14 N4         -5.6892   -5.4048   -4.6668 N.am       1 <1>        0.000
     15 C11        -5.9434   -4.5982   -3.4939 C.3        1 <1>        0.000
     16 C12        -5.4597   -3.1753   -3.6776 C.2        1 <1>        0.000
     17 C13        -4.2221   -1.4161   -2.7631 C.3        1 <1>        0.000
     18 C14        -2.7753   -1.7822   -3.0306 C.3        1 <1>        0.000
     19 C15        -2.1274   -2.6583   -1.9628 C.2        1 <1>        0.000
     20 O2         -2.7689   -3.0411   -0.9804 O.2        1 <1>        0.000
     21 O14        -5.3346   -2.7064   -4.8105 O.2        1 <1>        0.000
     22 O15        -4.4851   -6.5612   -6.1622 O.2        1 <1>        0.000
     23 O16         0.0918   -6.3418   -5.4579 O.2        1 <1>        0.000
     24 O17         2.4206   -3.5692   -3.2163 O.2        1 <1>        0.000
     25 H          -0.5301   -3.6116   -1.2181 H.spc      1 <1>        0.000
     26 H           0.6715   -1.8998   -2.7628 H.spc      1 <1>        0.000
     27 H          -0.3398   -2.8214   -3.9863 H.spc      1 <1>        0.000
     28 H          -1.1254   -5.3911   -2.5837 H.spc      1 <1>        0.000
     29 H          -0.3923   -7.3101   -1.4316 H.spc      1 <1>        0.000
     30 H          -0.8015   -8.0579   -2.9034 H.spc      1 <1>        0.000
     31 H           1.8014   -8.0576   -1.9188 H.spc      1 <1>        0.000
     32 H           1.4559   -8.2303   -3.6155 H.spc      1 <1>        0.000
     33 H           2.4869   -6.2410   -3.9789 H.spc      1 <1>        0.000
     34 H           2.6507   -5.9733   -2.2280 H.spc      1 <1>        0.000
     35 H          -2.2086   -6.3798   -5.9615 H.spc      1 <1>        0.000
     36 H          -3.3289   -6.5217   -3.4307 H.spc      1 <1>        0.000
     37 H          -3.1836   -4.7760   -3.9257 H.spc      1 <1>        0.000
     38 H          -6.5011   -5.5934   -5.2548 H.spc      1 <1>        0.000
     39 H          -7.0191   -4.5755   -3.3191 H.spc      1 <1>        0.000
     40 H          -5.4076   -5.0372   -2.6523 H.spc      1 <1>        0.000
     41 H          -4.5635   -0.8864   -3.6524 H.spc      1 <1>        0.000
     42 H          -4.2192   -0.8609   -1.8251 H.spc      1 <1>        0.000
     43 H          -2.7604   -2.3528   -3.9592 H.spc      1 <1>        0.000
     44 H          -2.2130   -0.8488   -3.0572 H.spc      1 <1>        0.000
@<TRIPOS>BOND
     1    3    4 am 
     2    1   19 am 
     3    1    2 1  
     4    2    3 1  
     5   19   20 2  
     6   18   19 1  
     7   16   21 2  
     8   17   18 1  
     9   16    9 1  
    10    9   17 1  
    11   15   16 1  
    12   14   15 1  
    13   13   22 2  
    14   13   14 am 
    15   12   13 1  
    16   11   12 1  
    17   10   23 2  
    18   10   11 am 
    19    7    8 1  
    20    6    7 1  
    21    5   10 1  
    22    5    6 1  
    23    4    8 1  
    24    4    5 1  
    25    3   24 2  
    26    1   25 1  
    27    2   26 1  
    28    2   27 1  
    29    5   28 1  
    30    6   29 1  
    31    6   30 1  
    32    7   31 1  
    33    7   32 1  
    34    8   33 1  
    35    8   34 1  
    36   11   35 1  
    37   12   36 1  
    38   12   37 1  
    39   14   38 1  
    40   15   39 1  
    41   15   40 1  
    42   17   41 1  
    43   17   42 1  
    44   18   43 1  
    45   18   44 1  
# Name:          frag5-626-31/41815 -- energy: -8.759525
# Creation time: Sat Jun  5 12:53:00 2010


@<TRIPOS>MOLECULE
frag5-626-31/41815 -- energy: -8.759525
   44    45     1     1     1
SMALL
USER_CHARGES


@<TRIPOS>ATOM
      1 N1         -0.9632   -2.5511   -1.4436 N.am       1 <1>        0.000
      2 C1         -0.8509   -3.8956   -1.9363 C.3        1 <1>        0.000
      3 C2          0.4743   -4.1372   -2.6473 C.2        1 <1>        0.000
      4 N2          0.7818   -5.3793   -3.1024 N.am       1 <1>        0.000
      5 C3         -0.0059   -6.6103   -3.0529 C.3        1 <1>        0.000
      6 C4          0.9733   -7.7675   -3.0544 C.3        1 <1>        0.000
      7 C5          2.2140   -7.2335   -3.7171 C.3        1 <1>        0.000
      8 C6          2.0896   -5.7396   -3.6072 C.3        1 <1>        0.000
      9 O1         -4.5134   -3.6007   -3.2402 O.3        1 <1>        0.000
     10 C8         -1.0463   -6.6155   -4.2372 C.2        1 <1>        0.000
     11 N3         -2.3889   -6.8188   -3.9967 N.am       1 <1>        0.000
     12 C9         -3.4203   -7.0768   -5.0012 C.3        1 <1>        0.000
     13 C10        -4.5655   -6.0548   -5.0995 C.2        1 <1>        0.000
     14 N4         -4.3840   -4.8133   -5.6510 N.am       1 <1>        0.000
     15 C11        -5.3742   -3.7454   -5.5346 C.3        1 <1>        0.000
     16 C12        -5.3165   -3.0810   -4.1799 C.2        1 <1>        0.000
     17 C13        -4.0246   -2.7195   -2.2660 C.3        1 <1>        0.000
     18 C14        -2.9314   -1.8003   -2.7448 C.3        1 <1>        0.000
     19 C15        -1.8144   -1.5626   -1.7764 C.2        1 <1>        0.000
     20 O2         -1.6864   -0.4435   -1.2788 O.2        1 <1>        0.000
     21 O14        -5.9828   -2.0661   -3.9845 O.2        1 <1>        0.000
     22 O15        -5.6595   -6.3749   -4.6425 O.2        1 <1>        0.000
     23 O16        -0.6297   -6.4502   -5.3901 O.2        1 <1>        0.000
     24 O17         1.2636   -3.1959   -2.7819 O.2        1 <1>        0.000
     25 H          -0.2858   -2.3044   -0.7220 H.spc      1 <1>        0.000
     26 H          -1.6559   -4.0636   -2.6518 H.spc      1 <1>        0.000
     27 H          -0.9090   -4.5750   -1.0859 H.spc      1 <1>        0.000
     28 H          -0.6091   -6.6967   -2.1491 H.spc      1 <1>        0.000
     29 H           1.1779   -8.1224   -2.0443 H.spc      1 <1>        0.000
     30 H           0.5739   -8.6315   -3.5855 H.spc      1 <1>        0.000
     31 H           3.1219   -7.6030   -3.2403 H.spc      1 <1>        0.000
     32 H           2.2952   -7.5605   -4.7537 H.spc      1 <1>        0.000
     33 H           2.2235   -5.2981   -4.5947 H.spc      1 <1>        0.000
     34 H           2.8503   -5.3691   -2.9201 H.spc      1 <1>        0.000
     35 H          -2.6923   -6.7861   -3.0234 H.spc      1 <1>        0.000
     36 H          -2.9121   -7.0497   -5.9651 H.spc      1 <1>        0.000
     37 H          -3.8856   -8.0204   -4.7162 H.spc      1 <1>        0.000
     38 H          -3.5221   -4.6273   -6.1638 H.spc      1 <1>        0.000
     39 H          -5.1630   -2.9947   -6.2962 H.spc      1 <1>        0.000
     40 H          -6.3658   -4.1790   -5.6641 H.spc      1 <1>        0.000
     41 H          -4.8592   -2.0890   -1.9595 H.spc      1 <1>        0.000
     42 H          -3.6009   -3.3298   -1.4685 H.spc      1 <1>        0.000
     43 H          -2.4870   -2.2772   -3.6184 H.spc      1 <1>        0.000
     44 H          -3.3979   -0.8314   -2.9226 H.spc      1 <1>        0.000
@<TRIPOS>BOND
     1    3    4 am 
     2    1   19 am 
     3    1    2 1  
     4    2    3 1  
     5   19   20 2  
     6   18   19 1  
     7   16   21 2  
     8   17   18 1  
     9   16    9 1  
    10    9   17 1  
    11   15   16 1  
    12   14   15 1  
    13   13   22 2  
    14   13   14 am 
    15   12   13 1  
    16   11   12 1  
    17   10   23 2  
    18   10   11 am 
    19    7    8 1  
    20    6    7 1  
    21    5   10 1  
    22    5    6 1  
    23    4    8 1  
    24    4    5 1  
    25    3   24 2  
    26    1   25 1  
    27    2   26 1  
    28    2   27 1  
    29    5   28 1  
    30    6   29 1  
    31    6   30 1  
    32    7   31 1  
    33    7   32 1  
    34    8   33 1  
    35    8   34 1  
    36   11   35 1  
    37   12   36 1  
    38   12   37 1  
    39   14   38 1  
    40   15   39 1  
    41   15   40 1  
    42   17   41 1  
    43   17   42 1  
    44   18   43 1  
    45   18   44 1  
# Name:          frag5-626-31/41815 -- energy: -8.780054
# Creation time: Sat Jun  5 12:53:00 2010


@<TRIPOS>MOLECULE
frag5-626-31/41815 -- energy: -8.780054
   44    45     1     1     1
SMALL
USER_CHARGES


@<TRIPOS>ATOM
      1 N1         -1.2742   -2.3857   -2.1608 N.am       1 <1>        0.000
      2 C1         -1.0203   -3.7969   -2.2834 C.3        1 <1>        0.000
      3 C2          0.2771   -4.1199   -3.0157 C.2        1 <1>        0.000
      4 N2          0.5987   -5.4047   -3.3252 N.am       1 <1>        0.000
      5 C3         -0.1715   -6.6474   -3.2060 C.3        1 <1>        0.000
      6 C4          0.7963   -7.7518   -2.8476 C.3        1 <1>        0.000
      7 C5          2.1658   -7.2091   -3.1857 C.3        1 <1>        0.000
      8 C6          1.9216   -5.8252   -3.7308 C.3        1 <1>        0.000
      9 O1         -4.3552   -3.2741   -3.2115 O.3        1 <1>        0.000
     10 C8         -0.8395   -6.9523   -4.5731 C.2        1 <1>        0.000
     11 N3         -2.1589   -7.0192   -4.8103 N.am       1 <1>        0.000
     12 C9         -3.3424   -6.8574   -4.0178 C.3        1 <1>        0.000
     13 C10        -4.2760   -5.8365   -4.6535 C.2        1 <1>        0.000
     14 N4         -3.7508   -4.7762   -5.3188 N.am       1 <1>        0.000
     15 C11        -4.4961   -3.5832   -5.6473 C.3        1 <1>        0.000
     16 C12        -4.8608   -2.8306   -4.3819 C.2        1 <1>        0.000
     17 C13        -4.6463   -2.6091   -2.0112 C.3        1 <1>        0.000
     18 C14        -3.5035   -2.4816   -1.0407 C.3        1 <1>        0.000
     19 C15        -2.3231   -1.7384   -1.6051 C.2        1 <1>        0.000
     20 O2         -2.3334   -0.5097   -1.5628 O.2        1 <1>        0.000
     21 O14        -5.5863   -1.8398   -4.4718 O.2        1 <1>        0.000
     22 O15        -5.4809   -5.9498   -4.4630 O.2        1 <1>        0.000
     23 O16        -0.1365   -7.1586   -5.5690 O.2        1 <1>        0.000
     24 O17         1.0350   -3.1764   -3.2734 O.2        1 <1>        0.000
     25 H          -0.5523   -1.7813   -2.5532 H.spc      1 <1>        0.000
     26 H          -1.8383   -4.2280   -2.8605 H.spc      1 <1>        0.000
     27 H          -0.9376   -4.2037   -1.2755 H.spc      1 <1>        0.000
     28 H          -0.9451   -6.5632   -2.4427 H.spc      1 <1>        0.000
     29 H           0.7218   -8.0238   -1.7947 H.spc      1 <1>        0.000
     30 H           0.5810   -8.6676   -3.3982 H.spc      1 <1>        0.000
     31 H           2.8158   -7.1869   -2.3110 H.spc      1 <1>        0.000
     32 H           2.6801   -7.8407   -3.9101 H.spc      1 <1>        0.000
     33 H           1.9944   -5.8334   -4.8183 H.spc      1 <1>        0.000
     34 H           2.6693   -5.1332   -3.3432 H.spc      1 <1>        0.000
     35 H          -2.3691   -7.2365   -5.7845 H.spc      1 <1>        0.000
     36 H          -3.8579   -7.8155   -3.9524 H.spc      1 <1>        0.000
     37 H          -3.0584   -6.5071   -3.0255 H.spc      1 <1>        0.000
     38 H          -2.7725   -4.8247   -5.6034 H.spc      1 <1>        0.000
     39 H          -3.8831   -2.9418   -6.2806 H.spc      1 <1>        0.000
     40 H          -5.4094   -3.8652   -6.1713 H.spc      1 <1>        0.000
     41 H          -4.9343   -1.5937   -2.2834 H.spc      1 <1>        0.000
     42 H          -5.4124   -3.2001   -1.5093 H.spc      1 <1>        0.000
     43 H          -3.8645   -1.9205   -0.1787 H.spc      1 <1>        0.000
     44 H          -3.1697   -3.4887   -0.7908 H.spc      1 <1>        0.000
@<TRIPOS>BOND
     1    3    4 am 
     2    1   19 am 
     3    1    2 1  
     4    2    3 1  
     5   19   20 2  
     6   18   19 1  
     7   16   21 2  
     8   17   18 1  
     9   16    9 1  
    10    9   17 1  
    11   15   16 1  
    12   14   15 1  
    13   13   22 2  
    14   13   14 am 
    15   12   13 1  
    16   11   12 1  
    17   10   23 2  
    18   10   11 am 
    19    7    8 1  
    20    6    7 1  
    21    5   10 1  
    22    5    6 1  
    23    4    8 1  
    24    4    5 1  
    25    3   24 2  
    26    1   25 1  
    27    2   26 1  
    28    2   27 1  
    29    5   28 1  
    30    6   29 1  
    31    6   30 1  
    32    7   31 1  
    33    7   32 1  
    34    8   33 1  
    35    8   34 1  
    36   11   35 1  
    37   12   36 1  
    38   12   37 1  
    39   14   38 1  
    40   15   39 1  
    41   15   40 1  
    42   17   41 1  
    43   17   42 1  
    44   18   43 1  
    45   18   44 1  
# Name:          frag5-626-31/41815 -- energy: -8.963505
# Creation time: Sat Jun  5 12:53:00 2010


@<TRIPOS>MOLECULE
frag5-626-31/41815 -- energy: -8.963505
   44    45     1     1     1
SMALL
USER_CHARGES


@<TRIPOS>ATOM
      1 N1         -0.8661   -2.3229   -1.9589 N.am       1 <1>        0.000
      2 C1         -0.9632   -3.7265   -2.2497 C.3        1 <1>        0.000
      3 C2          0.4028   -4.3704   -2.4376 C.2        1 <1>        0.000
      4 N2          0.5332   -5.5800   -3.0407 N.am       1 <1>        0.000
      5 C3         -0.5108   -6.4337   -3.6154 C.3        1 <1>        0.000
      6 C4          0.0820   -7.8057   -3.8679 C.3        1 <1>        0.000
      7 C5          1.5791   -7.5942   -3.8736 C.3        1 <1>        0.000
      8 C6          1.7984   -6.2593   -3.2164 C.3        1 <1>        0.000
      9 O1         -4.3308   -3.1660   -3.2706 O.3        1 <1>        0.000
     10 C8         -1.0550   -5.7294   -4.8946 C.2        1 <1>        0.000
     11 N3         -2.2574   -6.0118   -5.4443 N.am       1 <1>        0.000
     12 C9         -3.2514   -7.0342   -5.1957 C.3        1 <1>        0.000
     13 C10        -4.3912   -6.6931   -4.2195 C.2        1 <1>        0.000
     14 N4         -5.1603   -5.5850   -4.2802 N.am       1 <1>        0.000
     15 C11        -5.2304   -4.4597   -5.1980 C.3        1 <1>        0.000
     16 C12        -4.8181   -3.1632   -4.5290 C.2        1 <1>        0.000
     17 C13        -4.0573   -1.9110   -2.6835 C.3        1 <1>        0.000
     18 C14        -3.2652   -1.8681   -1.4027 C.3        1 <1>        0.000
     19 C15        -1.8300   -1.4619   -1.5888 C.2        1 <1>        0.000
     20 O2         -1.5458   -0.2786   -1.3959 O.2        1 <1>        0.000
     21 O14        -4.9527   -2.1264   -5.1843 O.2        1 <1>        0.000
     22 O15        -4.6714   -7.5276   -3.3454 O.2        1 <1>        0.000
     23 O16        -0.3893   -4.8596   -5.4736 O.2        1 <1>        0.000
     24 O17         1.3895   -3.7652   -1.9999 O.2        1 <1>        0.000
     25 H           0.0679   -1.9223   -2.0457 H.spc      1 <1>        0.000
     26 H          -1.5234   -3.8427   -3.1775 H.spc      1 <1>        0.000
     27 H          -1.4551   -4.2140   -1.4080 H.spc      1 <1>        0.000
     28 H          -1.3586   -6.5789   -2.9459 H.spc      1 <1>        0.000
     29 H          -0.2205   -8.5218   -3.1039 H.spc      1 <1>        0.000
     30 H          -0.2684   -8.2287   -4.8094 H.spc      1 <1>        0.000
     31 H           2.0973   -8.3917   -3.3411 H.spc      1 <1>        0.000
     32 H           1.9812   -7.6117   -4.8866 H.spc      1 <1>        0.000
     33 H           2.4470   -5.6515   -3.8472 H.spc      1 <1>        0.000
     34 H           2.2619   -6.4115   -2.2417 H.spc      1 <1>        0.000
     35 H          -2.5193   -5.3690   -6.1917 H.spc      1 <1>        0.000
     36 H          -3.7323   -7.2162   -6.1568 H.spc      1 <1>        0.000
     37 H          -2.7117   -7.8637   -4.7388 H.spc      1 <1>        0.000
     38 H          -5.8369   -5.5245   -3.5193 H.spc      1 <1>        0.000
     39 H          -4.5488   -4.6500   -6.0270 H.spc      1 <1>        0.000
     40 H          -6.2610   -4.3578   -5.5381 H.spc      1 <1>        0.000
     41 H          -3.4431   -1.3845   -3.4140 H.spc      1 <1>        0.000
     42 H          -5.0335   -1.4999   -2.4265 H.spc      1 <1>        0.000
     43 H          -3.7320   -1.1241   -0.7571 H.spc      1 <1>        0.000
     44 H          -3.2661   -2.8756   -0.9866 H.spc      1 <1>        0.000
@<TRIPOS>BOND
     1    3    4 am 
     2    1   19 am 
     3    1    2 1  
     4    2    3 1  
     5   19   20 2  
     6   18   19 1  
     7   16   21 2  
     8   17   18 1  
     9   16    9 1  
    10    9   17 1  
    11   15   16 1  
    12   14   15 1  
    13   13   22 2  
    14   13   14 am 
    15   12   13 1  
    16   11   12 1  
    17   10   23 2  
    18   10   11 am 
    19    7    8 1  
    20    6    7 1  
    21    5   10 1  
    22    5    6 1  
    23    4    8 1  
    24    4    5 1  
    25    3   24 2  
    26    1   25 1  
    27    2   26 1  
    28    2   27 1  
    29    5   28 1  
    30    6   29 1  
    31    6   30 1  
    32    7   31 1  
    33    7   32 1  
    34    8   33 1  
    35    8   34 1  
    36   11   35 1  
    37   12   36 1  
    38   12   37 1  
    39   14   38 1  
    40   15   39 1  
    41   15   40 1  
    42   17   41 1  
    43   17   42 1  
    44   18   43 1  
    45   18   44 1  
# Name:          frag5-626-31/41815 -- energy: -10.102566
# Creation time: Sat Jun  5 12:53:00 2010


@<TRIPOS>MOLECULE
frag5-626-31/41815 -- energy: -10.102566
   44    45     1     1     1
SMALL
USER_CHARGES


@<TRIPOS>ATOM
      1 N1         -0.6256   -1.9187   -2.5701 N.am       1 <1>        0.000
      2 C1         -0.5983   -3.0772   -3.4081 C.3        1 <1>        0.000
      3 C2          0.4968   -4.0518   -2.9372 C.2        1 <1>        0.000
      4 N2          0.2925   -5.3994   -3.0405 N.am       1 <1>        0.000
      5 C3         -0.8501   -6.0672   -3.6219 C.3        1 <1>        0.000
      6 C4         -0.9477   -7.4345   -3.0270 C.3        1 <1>        0.000
      7 C5          0.4849   -7.7918   -2.7659 C.3        1 <1>        0.000
      8 C6          1.1481   -6.4560   -2.5314 C.3        1 <1>        0.000
      9 O1         -4.1898   -3.2642   -3.3011 O.3        1 <1>        0.000
     10 C8         -0.6827   -6.0746   -5.1646 C.2        1 <1>        0.000
     11 N3         -1.7219   -5.7733   -5.9817 N.am       1 <1>        0.000
     12 C9         -2.9984   -5.2533   -5.5963 C.3        1 <1>        0.000
     13 C10        -3.9054   -6.2701   -4.9068 C.2        1 <1>        0.000
     14 N4         -5.0664   -5.8679   -4.3384 N.am       1 <1>        0.000
     15 C11        -5.7964   -4.6494   -4.5786 C.3        1 <1>        0.000
     16 C12        -5.4461   -3.4198   -3.7670 C.2        1 <1>        0.000
     17 C13        -3.8645   -2.1572   -2.4765 C.3        1 <1>        0.000
     18 C14        -2.8048   -2.3915   -1.4254 C.3        1 <1>        0.000
     19 C15        -1.4908   -1.6444   -1.5690 C.2        1 <1>        0.000
     20 O2         -1.2235   -0.7693   -0.7493 O.2        1 <1>        0.000
     21 O14        -6.3250   -2.5820   -3.6048 O.2        1 <1>        0.000
     22 O15        -3.5822   -7.4564   -4.8472 O.2        1 <1>        0.000
     23 O16         0.4025   -6.3724   -5.6725 O.2        1 <1>        0.000
     24 O17         1.5335   -3.5914   -2.4850 O.2        1 <1>        0.000
     25 H           0.0925   -1.2168   -2.7491 H.spc      1 <1>        0.000
     26 H          -0.3854   -2.7706   -4.4322 H.spc      1 <1>        0.000
     27 H          -1.5656   -3.5769   -3.3561 H.spc      1 <1>        0.000
     28 H          -1.7861   -5.5528   -3.4041 H.spc      1 <1>        0.000
     29 H          -1.5605   -7.4603   -2.1259 H.spc      1 <1>        0.000
     30 H          -1.4476   -8.1463   -3.6840 H.spc      1 <1>        0.000
     31 H           0.5977   -8.4673   -1.9179 H.spc      1 <1>        0.000
     32 H           0.9347   -8.3405   -3.5934 H.spc      1 <1>        0.000
     33 H           2.1075   -6.4293   -3.0481 H.spc      1 <1>        0.000
     34 H           1.3099   -6.3115   -1.4632 H.spc      1 <1>        0.000
     35 H          -1.5785   -5.9346   -6.9786 H.spc      1 <1>        0.000
     36 H          -2.8164   -4.4489   -4.8836 H.spc      1 <1>        0.000
     37 H          -3.5051   -4.9359   -6.5077 H.spc      1 <1>        0.000
     38 H          -5.4747   -6.5065   -3.6558 H.spc      1 <1>        0.000
     39 H          -5.5693   -4.3818   -5.6106 H.spc      1 <1>        0.000
     40 H          -6.8280   -4.8800   -4.3125 H.spc      1 <1>        0.000
     41 H          -3.4670   -1.3906   -3.1416 H.spc      1 <1>        0.000
     42 H          -4.7765   -1.9039   -1.9359 H.spc      1 <1>        0.000
     43 H          -3.2394   -2.0399   -0.4897 H.spc      1 <1>        0.000
     44 H          -2.5490   -3.4484   -1.4997 H.spc      1 <1>        0.000
@<TRIPOS>BOND
     1    3    4 am 
     2    1   19 am 
     3    1    2 1  
     4    2    3 1  
     5   19   20 2  
     6   18   19 1  
     7   16   21 2  
     8   17   18 1  
     9   16    9 1  
    10    9   17 1  
    11   15   16 1  
    12   14   15 1  
    13   13   22 2  
    14   13   14 am 
    15   12   13 1  
    16   11   12 1  
    17   10   23 2  
    18   10   11 am 
    19    7    8 1  
    20    6    7 1  
    21    5   10 1  
    22    5    6 1  
    23    4    8 1  
    24    4    5 1  
    25    3   24 2  
    26    1   25 1  
    27    2   26 1  
    28    2   27 1  
    29    5   28 1  
    30    6   29 1  
    31    6   30 1  
    32    7   31 1  
    33    7   32 1  
    34    8   33 1  
    35    8   34 1  
    36   11   35 1  
    37   12   36 1  
    38   12   37 1  
    39   14   38 1  
    40   15   39 1  
    41   15   40 1  
    42   17   41 1  
    43   17   42 1  
    44   18   43 1  
    45   18   44 1  
# Name:          frag5-626-31/41815 -- energy: -8.782009
# Creation time: Sat Jun  5 12:53:00 2010


@<TRIPOS>MOLECULE
frag5-626-31/41815 -- energy: -8.782009
   44    45     1     1     1
SMALL
USER_CHARGES


@<TRIPOS>ATOM
      1 N1         -0.7491   -2.1337   -2.0039 N.am       1 <1>        0.000
      2 C1         -0.7566   -3.3951   -2.6889 C.3        1 <1>        0.000
      3 C2          0.5995   -4.0612   -2.8732 C.2        1 <1>        0.000
      4 N2          0.6605   -5.4020   -3.0974 N.am       1 <1>        0.000
      5 C3         -0.4251   -6.3699   -3.2510 C.3        1 <1>        0.000
      6 C4          0.0606   -7.6751   -2.6836 C.3        1 <1>        0.000
      7 C5          1.5306   -7.6553   -3.0072 C.3        1 <1>        0.000
      8 C6          1.8761   -6.1884   -3.0899 C.3        1 <1>        0.000
      9 O1         -4.2568   -2.9562   -3.9493 O.3        1 <1>        0.000
     10 C8         -0.7875   -6.5204   -4.7509 C.2        1 <1>        0.000
     11 N3         -2.0534   -6.4454   -5.2079 N.am       1 <1>        0.000
     12 C9         -3.2756   -6.0648   -4.5557 C.3        1 <1>        0.000
     13 C10        -4.4316   -5.9711   -5.5412 C.2        1 <1>        0.000
     14 N4         -5.5405   -5.2420   -5.2920 N.am       1 <1>        0.000
     15 C11        -6.0631   -4.6823   -4.0645 C.3        1 <1>        0.000
     16 C12        -5.3399   -3.5254   -3.3965 C.2        1 <1>        0.000
     17 C13        -3.6615   -1.8443   -3.2944 C.3        1 <1>        0.000
     18 C14        -3.2182   -1.9337   -1.8459 C.3        1 <1>        0.000
     19 C15        -1.8211   -1.4374   -1.5564 C.2        1 <1>        0.000
     20 O2         -1.6722   -0.3979   -0.9188 O.2        1 <1>        0.000
     21 O14        -5.7909   -3.1446   -2.3122 O.2        1 <1>        0.000
     22 O15        -4.3609   -6.5909   -6.6087 O.2        1 <1>        0.000
     23 O16         0.1046   -6.7411   -5.5777 O.2        1 <1>        0.000
     24 O17         1.6108   -3.3556   -2.7990 O.2        1 <1>        0.000
     25 H           0.1656   -1.7151   -1.8354 H.spc      1 <1>        0.000
     26 H          -1.1397   -3.1978   -3.6901 H.spc      1 <1>        0.000
     27 H          -1.3503   -4.0732   -2.0759 H.spc      1 <1>        0.000
     28 H          -1.3231   -6.0424   -2.7271 H.spc      1 <1>        0.000
     29 H          -0.1368   -7.7724   -1.6161 H.spc      1 <1>        0.000
     30 H          -0.4544   -8.5381   -3.1056 H.spc      1 <1>        0.000
     31 H           2.1231   -8.1740   -2.2536 H.spc      1 <1>        0.000
     32 H           1.7530   -8.1816   -3.9354 H.spc      1 <1>        0.000
     33 H           2.4351   -5.9994   -4.0064 H.spc      1 <1>        0.000
     34 H           2.4818   -5.9101   -2.2275 H.spc      1 <1>        0.000
     35 H          -2.1627   -6.7042   -6.1885 H.spc      1 <1>        0.000
     36 H          -3.5188   -6.8227   -3.8110 H.spc      1 <1>        0.000
     37 H          -3.1318   -5.0852   -4.0998 H.spc      1 <1>        0.000
     38 H          -6.1113   -5.0521   -6.1157 H.spc      1 <1>        0.000
     39 H          -7.0361   -4.2757   -4.3402 H.spc      1 <1>        0.000
     40 H          -6.0027   -5.4973   -3.3433 H.spc      1 <1>        0.000
     41 H          -2.7348   -1.6797   -3.8441 H.spc      1 <1>        0.000
     42 H          -4.4501   -1.0919   -3.2829 H.spc      1 <1>        0.000
     43 H          -3.8958   -1.2980   -1.2760 H.spc      1 <1>        0.000
     44 H          -3.2302   -2.9918   -1.5842 H.spc      1 <1>        0.000
@<TRIPOS>BOND
     1    3    4 am 
     2    1   19 am 
     3    1    2 1  
     4    2    3 1  
     5   19   20 2  
     6   18   19 1  
     7   16   21 2  
     8   17   18 1  
     9   16    9 1  
    10    9   17 1  
    11   15   16 1  
    12   14   15 1  
    13   13   22 2  
    14   13   14 am 
    15   12   13 1  
    16   11   12 1  
    17   10   23 2  
    18   10   11 am 
    19    7    8 1  
    20    6    7 1  
    21    5   10 1  
    22    5    6 1  
    23    4    8 1  
    24    4    5 1  
    25    3   24 2  
    26    1   25 1  
    27    2   26 1  
    28    2   27 1  
    29    5   28 1  
    30    6   29 1  
    31    6   30 1  
    32    7   31 1  
    33    7   32 1  
    34    8   33 1  
    35    8   34 1  
    36   11   35 1  
    37   12   36 1  
    38   12   37 1  
    39   14   38 1  
    40   15   39 1  
    41   15   40 1  
    42   17   41 1  
    43   17   42 1  
    44   18   43 1  
    45   18   44 1  
# Name:          frag5-626-31/41815 -- energy: -9.121158
# Creation time: Sat Jun  5 12:53:00 2010


@<TRIPOS>MOLECULE
frag5-626-31/41815 -- energy: -9.121158
   44    45     1     1     1
SMALL
USER_CHARGES


@<TRIPOS>ATOM
      1 N1         -1.2555   -2.2522   -2.2938 N.am       1 <1>        0.000
      2 C1         -1.1122   -3.6687   -2.4993 C.3        1 <1>        0.000
      3 C2          0.3328   -4.1397   -2.7201 C.2        1 <1>        0.000
      4 N2          0.5733   -5.4157   -3.1323 N.am       1 <1>        0.000
      5 C3         -0.4017   -6.4440   -3.4528 C.3        1 <1>        0.000
      6 C4          0.2431   -7.7912   -3.2655 C.3        1 <1>        0.000
      7 C5          1.6972   -7.5213   -3.5501 C.3        1 <1>        0.000
      8 C6          1.8698   -6.0516   -3.2457 C.3        1 <1>        0.000
      9 O1         -4.6543   -3.2950   -3.0431 O.3        1 <1>        0.000
     10 C8         -0.9253   -6.2442   -4.8937 C.2        1 <1>        0.000
     11 N3         -2.2070   -6.5080   -5.2362 N.am       1 <1>        0.000
     12 C9         -3.2646   -7.0857   -4.4528 C.3        1 <1>        0.000
     13 C10        -4.6593   -6.4703   -4.5041 C.2        1 <1>        0.000
     14 N4         -4.9804   -5.2367   -4.9285 N.am       1 <1>        0.000
     15 C11        -4.2303   -4.0778   -5.3483 C.3        1 <1>        0.000
     16 C12        -4.1542   -3.0313   -4.2608 C.2        1 <1>        0.000
     17 C13        -4.6569   -2.2640   -2.0785 C.3        1 <1>        0.000
     18 C14        -3.4812   -2.1175   -1.1440 C.3        1 <1>        0.000
     19 C15        -2.2335   -1.5134   -1.7289 C.2        1 <1>        0.000
     20 O2         -2.1289   -0.2832   -1.7007 O.2        1 <1>        0.000
     21 O14        -3.6327   -1.9500   -4.5343 O.2        1 <1>        0.000
     22 O15        -5.5906   -7.1612   -4.0728 O.2        1 <1>        0.000
     23 O16        -0.1627   -5.8632   -5.7867 O.2        1 <1>        0.000
     24 O17         1.2537   -3.3475   -2.4933 O.2        1 <1>        0.000
     25 H          -0.4695   -1.7023   -2.6405 H.spc      1 <1>        0.000
     26 H          -1.6693   -3.9171   -3.4026 H.spc      1 <1>        0.000
     27 H          -1.4721   -4.1594   -1.5950 H.spc      1 <1>        0.000
     28 H          -1.2631   -6.3784   -2.7882 H.spc      1 <1>        0.000
     29 H           0.0793   -8.2001   -2.2685 H.spc      1 <1>        0.000
     30 H          -0.1786   -8.5532   -3.9209 H.spc      1 <1>        0.000
     31 H           2.3564   -8.1457   -2.9471 H.spc      1 <1>        0.000
     32 H           1.9658   -7.7619   -4.5787 H.spc      1 <1>        0.000
     33 H           2.4315   -5.5810   -4.0526 H.spc      1 <1>        0.000
     34 H           2.4082   -5.9403   -2.3045 H.spc      1 <1>        0.000
     35 H          -2.4607   -6.2601   -6.1925 H.spc      1 <1>        0.000
     36 H          -3.3905   -8.0905   -4.8561 H.spc      1 <1>        0.000
     37 H          -2.9440   -6.9588   -3.4188 H.spc      1 <1>        0.000
     38 H          -5.9883   -5.0839   -4.9616 H.spc      1 <1>        0.000
     39 H          -3.2157   -4.3959   -5.5880 H.spc      1 <1>        0.000
     40 H          -4.7332   -3.6391   -6.2101 H.spc      1 <1>        0.000
     41 H          -4.6650   -1.3418   -2.6595 H.spc      1 <1>        0.000
     42 H          -5.5001   -2.4961   -1.4279 H.spc      1 <1>        0.000
     43 H          -3.8046   -1.4392   -0.3544 H.spc      1 <1>        0.000
     44 H          -3.2124   -3.1276   -0.8348 H.spc      1 <1>        0.000
@<TRIPOS>BOND
     1    3    4 am 
     2    1   19 am 
     3    1    2 1  
     4    2    3 1  
     5   19   20 2  
     6   18   19 1  
     7   16   21 2  
     8   17   18 1  
     9   16    9 1  
    10    9   17 1  
    11   15   16 1  
    12   14   15 1  
    13   13   22 2  
    14   13   14 am 
    15   12   13 1  
    16   11   12 1  
    17   10   23 2  
    18   10   11 am 
    19    7    8 1  
    20    6    7 1  
    21    5   10 1  
    22    5    6 1  
    23    4    8 1  
    24    4    5 1  
    25    3   24 2  
    26    1   25 1  
    27    2   26 1  
    28    2   27 1  
    29    5   28 1  
    30    6   29 1  
    31    6   30 1  
    32    7   31 1  
    33    7   32 1  
    34    8   33 1  
    35    8   34 1  
    36   11   35 1  
    37   12   36 1  
    38   12   37 1  
    39   14   38 1  
    40   15   39 1  
    41   15   40 1  
    42   17   41 1  
    43   17   42 1  
    44   18   43 1  
    45   18   44 1  
# Name:          frag5-626-31/41815 -- energy: -8.722251
# Creation time: Sat Jun  5 12:53:00 2010


@<TRIPOS>MOLECULE
frag5-626-31/41815 -- energy: -8.722251
   44    45     1     1     1
SMALL
USER_CHARGES


@<TRIPOS>ATOM
      1 N1         -0.7472   -2.3812   -1.9998 N.am       1 <1>        0.000
      2 C1         -0.7179   -3.1425   -3.2215 C.3        1 <1>        0.000
      3 C2          0.5643   -3.9449   -3.3181 C.2        1 <1>        0.000
      4 N2          0.5940   -5.2976   -3.2274 N.am       1 <1>        0.000
      5 C3         -0.5222   -6.2337   -3.1907 C.3        1 <1>        0.000
      6 C4         -0.1105   -7.3851   -2.3149 C.3        1 <1>        0.000
      7 C5          1.3714   -7.5041   -2.5850 C.3        1 <1>        0.000
      8 C6          1.7900   -6.0986   -2.9766 C.3        1 <1>        0.000
      9 O1         -4.4743   -3.2956   -2.4963 O.3        1 <1>        0.000
     10 C8         -0.8260   -6.6519   -4.6570 C.2        1 <1>        0.000
     11 N3         -2.0661   -6.6131   -5.1877 N.am       1 <1>        0.000
     12 C9         -3.2899   -6.1531   -4.6056 C.3        1 <1>        0.000
     13 C10        -4.4383   -6.0136   -5.5885 C.2        1 <1>        0.000
     14 N4         -5.5413   -5.3012   -5.2620 N.am       1 <1>        0.000
     15 C11        -5.8424   -4.7022   -3.9871 C.3        1 <1>        0.000
     16 C12        -5.0987   -3.4083   -3.6856 C.2        1 <1>        0.000
     17 C13        -4.2378   -1.9938   -1.9970 C.3        1 <1>        0.000
     18 C14        -2.9502   -1.2760   -2.3047 C.3        1 <1>        0.000
     19 C15        -1.7533   -1.6544   -1.4737 C.2        1 <1>        0.000
     20 O2         -1.7083   -1.2923   -0.2955 O.2        1 <1>        0.000
     21 O14        -5.0979   -2.5017   -4.5181 O.2        1 <1>        0.000
     22 O15        -4.3600   -6.5623   -6.6881 O.2        1 <1>        0.000
     23 O16         0.0965   -7.0417   -5.3818 O.2        1 <1>        0.000
     24 O17         1.6048   -3.2845   -3.4037 O.2        1 <1>        0.000
     25 H           0.1153   -2.3935   -1.4554 H.spc      1 <1>        0.000
     26 H          -0.7703   -2.4565   -4.0669 H.spc      1 <1>        0.000
     27 H          -1.5655   -3.8278   -3.2315 H.spc      1 <1>        0.000
     28 H          -1.4354   -5.8096   -2.7732 H.spc      1 <1>        0.000
     29 H          -0.3359   -7.2167   -1.2618 H.spc      1 <1>        0.000
     30 H          -0.6557   -8.3021   -2.5384 H.spc      1 <1>        0.000
     31 H           1.9203   -7.8711   -1.7178 H.spc      1 <1>        0.000
     32 H           1.5909   -8.2322   -3.3659 H.spc      1 <1>        0.000
     33 H           2.4028   -6.1354   -3.8772 H.spc      1 <1>        0.000
     34 H           2.3700   -5.6500   -2.1701 H.spc      1 <1>        0.000
     35 H          -2.1423   -6.9626   -6.1429 H.spc      1 <1>        0.000
     36 H          -3.5906   -6.8946   -3.8655 H.spc      1 <1>        0.000
     37 H          -3.0967   -5.1614   -4.1966 H.spc      1 <1>        0.000
     38 H          -6.2351   -5.1745   -5.9989 H.spc      1 <1>        0.000
     39 H          -6.9043   -4.4566   -4.0002 H.spc      1 <1>        0.000
     40 H          -5.5408   -5.4209   -3.2251 H.spc      1 <1>        0.000
     41 H          -5.0049   -1.3820   -2.4718 H.spc      1 <1>        0.000
     42 H          -4.2204   -2.1218   -0.9147 H.spc      1 <1>        0.000
     43 H          -2.6980   -1.5369   -3.3325 H.spc      1 <1>        0.000
     44 H          -3.1370   -0.2216   -2.1013 H.spc      1 <1>        0.000
@<TRIPOS>BOND
     1    3    4 am 
     2    1   19 am 
     3    1    2 1  
     4    2    3 1  
     5   19   20 2  
     6   18   19 1  
     7   16   21 2  
     8   17   18 1  
     9   16    9 1  
    10    9   17 1  
    11   15   16 1  
    12   14   15 1  
    13   13   22 2  
    14   13   14 am 
    15   12   13 1  
    16   11   12 1  
    17   10   23 2  
    18   10   11 am 
    19    7    8 1  
    20    6    7 1  
    21    5   10 1  
    22    5    6 1  
    23    4    8 1  
    24    4    5 1  
    25    3   24 2  
    26    1   25 1  
    27    2   26 1  
    28    2   27 1  
    29    5   28 1  
    30    6   29 1  
    31    6   30 1  
    32    7   31 1  
    33    7   32 1  
    34    8   33 1  
    35    8   34 1  
    36   11   35 1  
    37   12   36 1  
    38   12   37 1  
    39   14   38 1  
    40   15   39 1  
    41   15   40 1  
    42   17   41 1  
    43   17   42 1  
    44   18   43 1  
    45   18   44 1  
# Name:          frag5-626-31/41815 -- energy: -10.785866
# Creation time: Sat Jun  5 12:53:00 2010


@<TRIPOS>MOLECULE
frag5-626-31/41815 -- energy: -10.785866
   44    45     1     1     1
SMALL
USER_CHARGES


@<TRIPOS>ATOM
      1 N1         -1.4930   -2.7950   -3.2921 N.am       1 <1>        0.000
      2 C1         -1.5622   -3.9002   -2.3703 C.3        1 <1>        0.000
      3 C2         -0.1499   -4.3930   -2.1353 C.2        1 <1>        0.000
      4 N2          0.2691   -5.5277   -2.7574 N.am       1 <1>        0.000
      5 C3         -0.5125   -6.5471   -3.4610 C.3        1 <1>        0.000
      6 C4          0.2953   -7.8228   -3.4266 C.3        1 <1>        0.000
      7 C5          1.7264   -7.3411   -3.3933 C.3        1 <1>        0.000
      8 C6          1.6474   -5.9556   -2.8071 C.3        1 <1>        0.000
      9 O1         -4.5030   -2.8900   -2.0621 O.3        1 <1>        0.000
     10 C8         -0.8275   -6.0193   -4.8882 C.2        1 <1>        0.000
     11 N3         -1.9097   -6.3746   -5.6112 N.am       1 <1>        0.000
     12 C9         -3.0203   -7.2723   -5.3701 C.3        1 <1>        0.000
     13 C10        -4.2650   -6.5712   -4.8301 C.2        1 <1>        0.000
     14 N4         -4.1956   -5.2639   -4.4638 N.am       1 <1>        0.000
     15 C11        -5.2266   -4.5172   -3.7697 C.3        1 <1>        0.000
     16 C12        -4.7002   -3.1538   -3.3721 C.2        1 <1>        0.000
     17 C13        -4.0522   -1.5962   -1.6664 C.3        1 <1>        0.000
     18 C14        -2.6090   -1.1269   -1.8386 C.3        1 <1>        0.000
     19 C15        -1.8678   -1.5067   -3.0953 C.2        1 <1>        0.000
     20 O2         -1.6022   -0.6476   -3.9321 O.2        1 <1>        0.000
     21 O14        -4.4321   -2.3442   -4.2646 O.2        1 <1>        0.000
     22 O15        -5.3039   -7.2260   -4.7035 O.2        1 <1>        0.000
     23 O16        -0.0560   -5.2193   -5.4357 O.2        1 <1>        0.000
     24 O17         0.5890   -3.7219   -1.4200 O.2        1 <1>        0.000
     25 H          -1.1121   -3.0098   -4.2136 H.spc      1 <1>        0.000
     26 H          -2.1791   -4.6991   -2.7817 H.spc      1 <1>        0.000
     27 H          -2.0143   -3.5826   -1.4307 H.spc      1 <1>        0.000
     28 H          -1.4764   -6.7598   -2.9987 H.spc      1 <1>        0.000
     29 H           0.0475   -8.4483   -2.5690 H.spc      1 <1>        0.000
     30 H           0.0932   -8.4656   -4.2834 H.spc      1 <1>        0.000
     31 H           2.3639   -7.9982   -2.8017 H.spc      1 <1>        0.000
     32 H           2.1788   -7.3389   -4.3850 H.spc      1 <1>        0.000
     33 H           2.2181   -5.2663   -3.4294 H.spc      1 <1>        0.000
     34 H           2.0599   -5.9654   -1.7982 H.spc      1 <1>        0.000
     35 H          -1.9554   -5.9134   -6.5198 H.spc      1 <1>        0.000
     36 H          -3.2880   -7.7256   -6.3245 H.spc      1 <1>        0.000
     37 H          -2.7001   -7.9950   -4.6196 H.spc      1 <1>        0.000
     38 H          -3.3393   -4.7620   -4.6989 H.spc      1 <1>        0.000
     39 H          -6.0846   -4.3916   -4.4302 H.spc      1 <1>        0.000
     40 H          -5.5225   -5.0626   -2.8736 H.spc      1 <1>        0.000
     41 H          -4.6095   -0.9285   -2.3234 H.spc      1 <1>        0.000
     42 H          -4.1803   -1.6100   -0.5840 H.spc      1 <1>        0.000
     43 H          -2.6664   -0.0387   -1.8621 H.spc      1 <1>        0.000
     44 H          -2.0575   -1.6056   -1.0294 H.spc      1 <1>        0.000
@<TRIPOS>BOND
     1    3    4 am 
     2    1   19 am 
     3    1    2 1  
     4    2    3 1  
     5   19   20 2  
     6   18   19 1  
     7   16   21 2  
     8   17   18 1  
     9   16    9 1  
    10    9   17 1  
    11   15   16 1  
    12   14   15 1  
    13   13   22 2  
    14   13   14 am 
    15   12   13 1  
    16   11   12 1  
    17   10   23 2  
    18   10   11 am 
    19    7    8 1  
    20    6    7 1  
    21    5   10 1  
    22    5    6 1  
    23    4    8 1  
    24    4    5 1  
    25    3   24 2  
    26    1   25 1  
    27    2   26 1  
    28    2   27 1  
    29    5   28 1  
    30    6   29 1  
    31    6   30 1  
    32    7   31 1  
    33    7   32 1  
    34    8   33 1  
    35    8   34 1  
    36   11   35 1  
    37   12   36 1  
    38   12   37 1  
    39   14   38 1  
    40   15   39 1  
    41   15   40 1  
    42   17   41 1  
    43   17   42 1  
    44   18   43 1  
    45   18   44 1  
# Name:          frag5-626-31/41815 -- energy: -8.905451
# Creation time: Sat Jun  5 12:53:00 2010


@<TRIPOS>MOLECULE
frag5-626-31/41815 -- energy: -8.905451
   44    45     1     1     1
SMALL
USER_CHARGES


@<TRIPOS>ATOM
      1 N1         -0.7307   -2.2322   -2.3456 N.am       1 <1>        0.000
      2 C1         -0.6481   -2.9790   -3.5864 C.3        1 <1>        0.000
      3 C2          0.6287   -3.7935   -3.4863 C.2        1 <1>        0.000
      4 N2          0.6022   -5.1271   -3.2394 N.am       1 <1>        0.000
      5 C3         -0.5386   -6.0249   -3.0862 C.3        1 <1>        0.000
      6 C4         -0.0959   -7.1891   -2.2387 C.3        1 <1>        0.000
      7 C5          1.3603   -7.3351   -2.6053 C.3        1 <1>        0.000
      8 C6          1.7775   -5.9434   -3.0101 C.3        1 <1>        0.000
      9 O1         -5.1450   -2.9444   -2.5644 O.3        1 <1>        0.000
     10 C8         -0.9710   -6.5069   -4.4945 C.2        1 <1>        0.000
     11 N3         -2.2406   -6.5504   -4.9131 N.am       1 <1>        0.000
     12 C9         -3.4982   -6.1011   -4.3761 C.3        1 <1>        0.000
     13 C10        -4.5228   -5.9715   -5.5066 C.2        1 <1>        0.000
     14 N4         -5.5331   -5.0824   -5.4965 N.am       1 <1>        0.000
     15 C11        -6.0439   -4.2027   -4.4666 C.3        1 <1>        0.000
     16 C12        -5.0272   -3.2427   -3.8733 C.2        1 <1>        0.000
     17 C13        -4.0929   -2.2113   -1.9857 C.3        1 <1>        0.000
     18 C14        -2.9248   -3.0009   -1.4661 C.3        1 <1>        0.000
     19 C15        -1.6580   -2.2132   -1.3614 C.2        1 <1>        0.000
     20 O2         -1.4834   -1.4957   -0.3725 O.2        1 <1>        0.000
     21 O14        -4.1359   -2.7871   -4.5917 O.2        1 <1>        0.000
     22 O15        -4.4271   -6.7383   -6.4723 O.2        1 <1>        0.000
     23 O16        -0.1074   -6.8941   -5.2875 O.2        1 <1>        0.000
     24 O17         1.6948   -3.1667   -3.5401 O.2        1 <1>        0.000
     25 H           0.0573   -1.6046   -2.1856 H.spc      1 <1>        0.000
     26 H          -0.6315   -2.3156   -4.4511 H.spc      1 <1>        0.000
     27 H          -1.5196   -3.6186   -3.7260 H.spc      1 <1>        0.000
     28 H          -1.3828   -5.5280   -2.6082 H.spc      1 <1>        0.000
     29 H          -0.2502   -7.0208   -1.1729 H.spc      1 <1>        0.000
     30 H          -0.6734   -8.0943   -2.4265 H.spc      1 <1>        0.000
     31 H           1.9572   -7.7208   -1.7788 H.spc      1 <1>        0.000
     32 H           1.5140   -8.0607   -3.4041 H.spc      1 <1>        0.000
     33 H           2.3653   -5.9951   -3.9265 H.spc      1 <1>        0.000
     34 H           2.3751   -5.4999   -2.2137 H.spc      1 <1>        0.000
     35 H          -2.3404   -7.0061   -5.8202 H.spc      1 <1>        0.000
     36 H          -3.8575   -6.8231   -3.6428 H.spc      1 <1>        0.000
     37 H          -3.3619   -5.1311   -3.8980 H.spc      1 <1>        0.000
     38 H          -6.0339   -5.0158   -6.3826 H.spc      1 <1>        0.000
     39 H          -6.8169   -3.5914   -4.9323 H.spc      1 <1>        0.000
     40 H          -6.3851   -4.8405   -3.6512 H.spc      1 <1>        0.000
     41 H          -3.6972   -1.5774   -2.7792 H.spc      1 <1>        0.000
     42 H          -4.5208   -1.7045   -1.1208 H.spc      1 <1>        0.000
     43 H          -3.1818   -3.3359   -0.4612 H.spc      1 <1>        0.000
     44 H          -2.7439   -3.8129   -2.1704 H.spc      1 <1>        0.000
@<TRIPOS>BOND
     1    3    4 am 
     2    1   19 am 
     3    1    2 1  
     4    2    3 1  
     5   19   20 2  
     6   18   19 1  
     7   16   21 2  
     8   17   18 1  
     9   16    9 1  
    10    9   17 1  
    11   15   16 1  
    12   14   15 1  
    13   13   22 2  
    14   13   14 am 
    15   12   13 1  
    16   11   12 1  
    17   10   23 2  
    18   10   11 am 
    19    7    8 1  
    20    6    7 1  
    21    5   10 1  
    22    5    6 1  
    23    4    8 1  
    24    4    5 1  
    25    3   24 2  
    26    1   25 1  
    27    2   26 1  
    28    2   27 1  
    29    5   28 1  
    30    6   29 1  
    31    6   30 1  
    32    7   31 1  
    33    7   32 1  
    34    8   33 1  
    35    8   34 1  
    36   11   35 1  
    37   12   36 1  
    38   12   37 1  
    39   14   38 1  
    40   15   39 1  
    41   15   40 1  
    42   17   41 1  
    43   17   42 1  
    44   18   43 1  
    45   18   44 1  
# Name:          frag5-626-31/41815 -- energy: -10.481957
# Creation time: Sat Jun  5 12:53:00 2010


@<TRIPOS>MOLECULE
frag5-626-31/41815 -- energy: -10.481957
   44    45     1     1     1
SMALL
USER_CHARGES


@<TRIPOS>ATOM
      1 N1         -0.8577   -1.9806   -3.0451 N.am       1 <1>        0.000
      2 C1         -0.7905   -3.3184   -3.5792 C.3        1 <1>        0.000
      3 C2          0.3997   -4.1379   -3.0558 C.2        1 <1>        0.000
      4 N2          0.3009   -5.4957   -2.9584 N.am       1 <1>        0.000
      5 C3         -0.7797   -6.3578   -3.4274 C.3        1 <1>        0.000
      6 C4         -0.7637   -7.6118   -2.5998 C.3        1 <1>        0.000
      7 C5          0.6827   -7.7702   -2.2112 C.3        1 <1>        0.000
      8 C6          1.2653   -6.3802   -2.3280 C.3        1 <1>        0.000
      9 O1         -4.3456   -3.9865   -2.2839 O.3        1 <1>        0.000
     10 C8         -0.5426   -6.5943   -4.9373 C.2        1 <1>        0.000
     11 N3         -1.4806   -6.4381   -5.8924 N.am       1 <1>        0.000
     12 C9         -2.9222   -6.4777   -5.8967 C.3        1 <1>        0.000
     13 C10        -3.6806   -5.3850   -5.1622 C.2        1 <1>        0.000
     14 N4         -4.7590   -5.7232   -4.4010 N.am       1 <1>        0.000
     15 C11        -5.8355   -4.8342   -4.0352 C.3        1 <1>        0.000
     16 C12        -5.4648   -3.7881   -3.0088 C.2        1 <1>        0.000
     17 C13        -3.7142   -2.8493   -1.7484 C.3        1 <1>        0.000
     18 C14        -3.3329   -1.7450   -2.7038 C.3        1 <1>        0.000
     19 C15        -1.9140   -1.2420   -2.6468 C.2        1 <1>        0.000
     20 O2         -1.7230   -0.0984   -2.2144 O.2        1 <1>        0.000
     21 O14        -6.1904   -2.8078   -2.8761 O.2        1 <1>        0.000
     22 O15        -3.3223   -4.2132   -5.2949 O.2        1 <1>        0.000
     23 O16         0.5802   -6.9566   -5.3273 O.2        1 <1>        0.000
     24 O17         1.4292   -3.5413   -2.7324 O.2        1 <1>        0.000
     25 H           0.0449   -1.5146   -2.9530 H.spc      1 <1>        0.000
     26 H          -0.6743   -3.2310   -4.6595 H.spc      1 <1>        0.000
     27 H          -1.7000   -3.8358   -3.2739 H.spc      1 <1>        0.000
     28 H          -1.7723   -5.9221   -3.3130 H.spc      1 <1>        0.000
     29 H          -1.4205   -7.5440   -1.7325 H.spc      1 <1>        0.000
     30 H          -1.1421   -8.4746   -3.1479 H.spc      1 <1>        0.000
     31 H           0.7917   -8.1737   -1.2045 H.spc      1 <1>        0.000
     32 H           1.2005   -8.4836   -2.8524 H.spc      1 <1>        0.000
     33 H           2.1706   -6.4179   -2.9340 H.spc      1 <1>        0.000
     34 H           1.5038   -6.0040   -1.3332 H.spc      1 <1>        0.000
     35 H          -1.0843   -6.2510   -6.8134 H.spc      1 <1>        0.000
     36 H          -3.2068   -6.3676   -6.9431 H.spc      1 <1>        0.000
     37 H          -3.1831   -7.4016   -5.3805 H.spc      1 <1>        0.000
     38 H          -4.8096   -6.6838   -4.0618 H.spc      1 <1>        0.000
     39 H          -6.1309   -4.3025   -4.9397 H.spc      1 <1>        0.000
     40 H          -6.6204   -5.4488   -3.5945 H.spc      1 <1>        0.000
     41 H          -4.4393   -2.4071   -1.0652 H.spc      1 <1>        0.000
     42 H          -2.7752   -3.2079   -1.3266 H.spc      1 <1>        0.000
     43 H          -3.4582   -2.1626   -3.7028 H.spc      1 <1>        0.000
     44 H          -3.9589   -0.8938   -2.4361 H.spc      1 <1>        0.000
@<TRIPOS>BOND
     1    3    4 am 
     2    1   19 am 
     3    1    2 1  
     4    2    3 1  
     5   19   20 2  
     6   18   19 1  
     7   16   21 2  
     8   17   18 1  
     9   16    9 1  
    10    9   17 1  
    11   15   16 1  
    12   14   15 1  
    13   13   22 2  
    14   13   14 am 
    15   12   13 1  
    16   11   12 1  
    17   10   23 2  
    18   10   11 am 
    19    7    8 1  
    20    6    7 1  
    21    5   10 1  
    22    5    6 1  
    23    4    8 1  
    24    4    5 1  
    25    3   24 2  
    26    1   25 1  
    27    2   26 1  
    28    2   27 1  
    29    5   28 1  
    30    6   29 1  
    31    6   30 1  
    32    7   31 1  
    33    7   32 1  
    34    8   33 1  
    35    8   34 1  
    36   11   35 1  
    37   12   36 1  
    38   12   37 1  
    39   14   38 1  
    40   15   39 1  
    41   15   40 1  
    42   17   41 1  
    43   17   42 1  
    44   18   43 1  
    45   18   44 1  
# Name:          frag5-626-31/41815 -- energy: -10.376297
# Creation time: Sat Jun  5 12:53:00 2010


@<TRIPOS>MOLECULE
frag5-626-31/41815 -- energy: -10.376297
   44    45     1     1     1
SMALL
USER_CHARGES


@<TRIPOS>ATOM
      1 N1         -1.6413   -2.8673   -1.1666 N.am       1 <1>        0.000
      2 C1         -1.3214   -4.1785   -1.6744 C.3        1 <1>        0.000
      3 C2          0.1339   -4.3489   -2.1040 C.2        1 <1>        0.000
      4 N2          0.5032   -5.3593   -2.9393 N.am       1 <1>        0.000
      5 C3         -0.2803   -6.4661   -3.5001 C.3        1 <1>        0.000
      6 C4          0.6768   -7.6188   -3.6965 C.3        1 <1>        0.000
      7 C5          1.9823   -6.9410   -4.0195 C.3        1 <1>        0.000
      8 C6          1.8755   -5.6089   -3.3286 C.3        1 <1>        0.000
      9 O1         -3.7196   -3.0164   -3.3835 O.3        1 <1>        0.000
     10 C8         -0.9405   -6.0606   -4.8519 C.2        1 <1>        0.000
     11 N3         -2.2686   -6.1633   -5.1008 N.am       1 <1>        0.000
     12 C9         -3.3609   -6.4975   -4.2252 C.3        1 <1>        0.000
     13 C10        -4.7640   -6.3147   -4.8112 C.2        1 <1>        0.000
     14 N4         -5.7090   -5.5562   -4.2036 N.am       1 <1>        0.000
     15 C11        -5.5455   -4.5784   -3.1599 C.3        1 <1>        0.000
     16 C12        -4.9484   -3.3440   -3.7984 C.2        1 <1>        0.000
     17 C13        -3.0038   -1.9777   -4.0044 C.3        1 <1>        0.000
     18 C14        -1.6900   -1.6529   -3.3462 C.3        1 <1>        0.000
     19 C15        -1.8001   -1.7080   -1.8450 C.2        1 <1>        0.000
     20 O2         -2.0937   -0.6742   -1.2322 O.2        1 <1>        0.000
     21 O14        -5.5502   -2.7458   -4.6852 O.2        1 <1>        0.000
     22 O15        -5.0391   -6.8681   -5.8806 O.2        1 <1>        0.000
     23 O16        -0.2269   -5.6260   -5.7632 O.2        1 <1>        0.000
     24 O17         0.9702   -3.5608   -1.6462 O.2        1 <1>        0.000
     25 H          -1.7649   -2.8056   -0.1560 H.spc      1 <1>        0.000
     26 H          -1.9376   -4.3386   -2.5592 H.spc      1 <1>        0.000
     27 H          -1.5023   -4.8878   -0.8668 H.spc      1 <1>        0.000
     28 H          -1.0929   -6.7411   -2.8276 H.spc      1 <1>        0.000
     29 H           0.7451   -8.2594   -2.8173 H.spc      1 <1>        0.000
     30 H           0.3540   -8.3002   -4.4836 H.spc      1 <1>        0.000
     31 H           2.8437   -7.5165   -3.6805 H.spc      1 <1>        0.000
     32 H           2.1431   -6.8401   -5.0928 H.spc      1 <1>        0.000
     33 H           2.2022   -4.8245   -4.0113 H.spc      1 <1>        0.000
     34 H           2.5044   -5.6160   -2.4384 H.spc      1 <1>        0.000
     35 H          -2.5381   -5.9727   -6.0659 H.spc      1 <1>        0.000
     36 H          -3.2586   -7.5582   -3.9961 H.spc      1 <1>        0.000
     37 H          -3.2919   -5.8200   -3.3741 H.spc      1 <1>        0.000
     38 H          -6.6650   -5.6974   -4.5300 H.spc      1 <1>        0.000
     39 H          -6.5040   -4.3466   -2.6955 H.spc      1 <1>        0.000
     40 H          -4.8935   -4.9593   -2.3739 H.spc      1 <1>        0.000
     41 H          -2.7820   -2.3034   -5.0207 H.spc      1 <1>        0.000
     42 H          -3.6222   -1.0820   -3.9462 H.spc      1 <1>        0.000
     43 H          -0.9510   -2.3873   -3.6666 H.spc      1 <1>        0.000
     44 H          -1.3978   -0.6434   -3.6354 H.spc      1 <1>        0.000
@<TRIPOS>BOND
     1    3    4 am 
     2    1   19 am 
     3    1    2 1  
     4    2    3 1  
     5   19   20 2  
     6   18   19 1  
     7   16   21 2  
     8   17   18 1  
     9   16    9 1  
    10    9   17 1  
    11   15   16 1  
    12   14   15 1  
    13   13   22 2  
    14   13   14 am 
    15   12   13 1  
    16   11   12 1  
    17   10   23 2  
    18   10   11 am 
    19    7    8 1  
    20    6    7 1  
    21    5   10 1  
    22    5    6 1  
    23    4    8 1  
    24    4    5 1  
    25    3   24 2  
    26    1   25 1  
    27    2   26 1  
    28    2   27 1  
    29    5   28 1  
    30    6   29 1  
    31    6   30 1  
    32    7   31 1  
    33    7   32 1  
    34    8   33 1  
    35    8   34 1  
    36   11   35 1  
    37   12   36 1  
    38   12   37 1  
    39   14   38 1  
    40   15   39 1  
    41   15   40 1  
    42   17   41 1  
    43   17   42 1  
    44   18   43 1  
    45   18   44 1  
# Name:          frag5-626-31/41815 -- energy: -8.563919
# Creation time: Sat Jun  5 12:53:00 2010


@<TRIPOS>MOLECULE
frag5-626-31/41815 -- energy: -8.563919
   44    45     1     1     1
SMALL
USER_CHARGES


@<TRIPOS>ATOM
      1 N1         -0.9019   -2.0869   -2.5044 N.am       1 <1>        0.000
      2 C1         -0.9387   -3.2774   -3.3010 C.3        1 <1>        0.000
      3 C2          0.3682   -4.0505   -3.1840 C.2        1 <1>        0.000
      4 N2          0.4134   -5.4069   -3.1994 N.am       1 <1>        0.000
      5 C3         -0.6293   -6.4161   -3.4367 C.3        1 <1>        0.000
      6 C4         -0.2795   -7.6018   -2.5654 C.3        1 <1>        0.000
      7 C5          1.2257   -7.5838   -2.5076 C.3        1 <1>        0.000
      8 C6          1.5841   -6.1456   -2.7652 C.3        1 <1>        0.000
      9 O1         -4.3666   -3.1596   -3.2034 O.3        1 <1>        0.000
     10 C8         -0.6396   -6.8496   -4.9281 C.2        1 <1>        0.000
     11 N3         -1.5180   -6.4550   -5.8640 N.am       1 <1>        0.000
     12 C9         -2.4823   -5.4065   -5.9456 C.3        1 <1>        0.000
     13 C10        -3.8420   -5.6181   -5.2929 C.2        1 <1>        0.000
     14 N4         -4.7817   -4.6533   -5.5076 N.am       1 <1>        0.000
     15 C11        -5.9418   -4.4045   -4.6997 C.3        1 <1>        0.000
     16 C12        -5.6413   -3.4775   -3.5351 C.2        1 <1>        0.000
     17 C13        -4.1766   -2.1515   -2.2268 C.3        1 <1>        0.000
     18 C14        -3.0522   -2.2349   -1.2189 C.3        1 <1>        0.000
     19 C15        -1.7390   -1.5926   -1.5860 C.2        1 <1>        0.000
     20 O2         -1.4266   -0.5564   -0.9930 O.2        1 <1>        0.000
     21 O14        -6.6183   -3.0317   -2.9370 O.2        1 <1>        0.000
     22 O15        -4.0318   -6.5845   -4.5664 O.2        1 <1>        0.000
     23 O16         0.2504   -7.6078   -5.3388 O.2        1 <1>        0.000
     24 O17         1.4040   -3.3812   -3.0594 O.2        1 <1>        0.000
     25 H          -0.0803   -1.5054   -2.6693 H.spc      1 <1>        0.000
     26 H          -1.0878   -2.9969   -4.3437 H.spc      1 <1>        0.000
     27 H          -1.7530   -3.9102   -2.9480 H.spc      1 <1>        0.000
     28 H          -1.6163   -6.0179   -3.2013 H.spc      1 <1>        0.000
     29 H          -0.7308   -7.5332   -1.5756 H.spc      1 <1>        0.000
     30 H          -0.6652   -8.5379   -2.9691 H.spc      1 <1>        0.000
     31 H           1.6061   -7.9387   -1.5498 H.spc      1 <1>        0.000
     32 H           1.6747   -8.2580   -3.2370 H.spc      1 <1>        0.000
     33 H           2.3433   -6.1017   -3.5461 H.spc      1 <1>        0.000
     34 H           1.9642   -5.7025   -1.8447 H.spc      1 <1>        0.000
     35 H          -1.4895   -7.0337   -6.7035 H.spc      1 <1>        0.000
     36 H          -2.0370   -4.5673   -5.4113 H.spc      1 <1>        0.000
     37 H          -2.6912   -5.2933   -7.0094 H.spc      1 <1>        0.000
     38 H          -4.6473   -4.0510   -6.3198 H.spc      1 <1>        0.000
     39 H          -6.6959   -3.9284   -5.3264 H.spc      1 <1>        0.000
     40 H          -6.2843   -5.3571   -4.2954 H.spc      1 <1>        0.000
     41 H          -3.9387   -1.2627   -2.8112 H.spc      1 <1>        0.000
     42 H          -5.0787   -2.2044   -1.6173 H.spc      1 <1>        0.000
     43 H          -3.4061   -1.6968   -0.3395 H.spc      1 <1>        0.000
     44 H          -2.8375   -3.2976   -1.1063 H.spc      1 <1>        0.000
@<TRIPOS>BOND
     1    3    4 am 
     2    1   19 am 
     3    1    2 1  
     4    2    3 1  
     5   19   20 2  
     6   18   19 1  
     7   16   21 2  
     8   17   18 1  
     9   16    9 1  
    10    9   17 1  
    11   15   16 1  
    12   14   15 1  
    13   13   22 2  
    14   13   14 am 
    15   12   13 1  
    16   11   12 1  
    17   10   23 2  
    18   10   11 am 
    19    7    8 1  
    20    6    7 1  
    21    5   10 1  
    22    5    6 1  
    23    4    8 1  
    24    4    5 1  
    25    3   24 2  
    26    1   25 1  
    27    2   26 1  
    28    2   27 1  
    29    5   28 1  
    30    6   29 1  
    31    6   30 1  
    32    7   31 1  
    33    7   32 1  
    34    8   33 1  
    35    8   34 1  
    36   11   35 1  
    37   12   36 1  
    38   12   37 1  
    39   14   38 1  
    40   15   39 1  
    41   15   40 1  
    42   17   41 1  
    43   17   42 1  
    44   18   43 1  
    45   18   44 1  
