#      Rotatable Fragment
#      Build by yxyuan
#
# Name:          frag5-653-26/41815
# Creation time: Sat Jun  5 12:53:02 2010


@<TRIPOS>MOLECULE
frag5-653-26/41815
   40    40     1     1     1
SMALL
USER_CHARGES


@<TRIPOS>ATOM
      1 C20         4.9186    1.2573    1.6213 C.3        1 <1>        0.000
      2 C21         5.2106    2.6505    1.0227 C.3        1 <1>        0.000
      3 C22         4.4872    2.9619   -0.3000 C.3        1 <1>        0.000
      4 C23         4.8143    4.4177   -0.6755 C.3        1 <1>        0.000
      5 C24         6.2183    4.4095   -1.2396 C.2        1 <1>        0.000
      6 C25         7.2837    5.3291   -0.7765 C.2        1 <1>        0.000
      7 C26         8.5891    5.1920   -1.0683 C.2        1 <1>        0.000
      8 C34         5.9295    0.8521    2.7162 C.3        1 <1>        0.000
      9 C27         9.2083    4.1454   -1.8827 C.2        1 <1>        0.000
     10 C28        10.2248    3.3553   -1.4962 C.2        1 <1>        0.000
     11 C29        10.9075    3.3642   -0.1462 C.3        1 <1>        0.000
     12 C30        10.9116    2.0486    0.6819 C.3        1 <1>        0.000
     13 O8          9.6674    1.4182    1.0016 O.3        1 <1>        0.000
     14 C31         9.2650    1.5421    2.2812 C.2        1 <1>        0.000
     15 C32         8.4927    0.3541    2.7976 C.3        1 <1>        0.000
     16 C33         7.1448    0.1347    2.0810 C.3        1 <1>        0.000
     17 O12         9.5051    2.5143    2.9949 O.2        1 <1>        0.000
     18 O13         6.4676    3.5867   -2.1152 O.2        1 <1>        0.000
     19 H           4.9887    0.5266    0.8155 H.spc      1 <1>        0.000
     20 H           3.9289    1.2906    2.0768 H.spc      1 <1>        0.000
     21 H           4.8605    3.3828    1.7502 H.spc      1 <1>        0.000
     22 H           6.2790    2.6811    0.8092 H.spc      1 <1>        0.000
     23 H           3.4112    2.8306   -0.1857 H.spc      1 <1>        0.000
     24 H           4.8193    2.2823   -1.0849 H.spc      1 <1>        0.000
     25 H           4.1022    4.8023   -1.4056 H.spc      1 <1>        0.000
     26 H           4.7468    5.0703    0.1949 H.spc      1 <1>        0.000
     27 H           6.9888    6.1755   -0.1562 H.spc      1 <1>        0.000
     28 H           9.2603    5.9434   -0.6523 H.spc      1 <1>        0.000
     29 H           5.4428    0.1759    3.4190 H.spc      1 <1>        0.000
     30 H           6.2737    1.7476    3.2336 H.spc      1 <1>        0.000
     31 H           8.8120    3.9939   -2.8867 H.spc      1 <1>        0.000
     32 H          10.5938    2.6369   -2.2282 H.spc      1 <1>        0.000
     33 H          11.9561    3.5763   -0.3551 H.spc      1 <1>        0.000
     34 H          10.3480    4.0810    0.4548 H.spc      1 <1>        0.000
     35 H          11.4361    1.3272    0.0554 H.spc      1 <1>        0.000
     36 H          11.3377    2.3278    1.6455 H.spc      1 <1>        0.000
     37 H           9.1028   -0.5325    2.6246 H.spc      1 <1>        0.000
     38 H           8.2771    0.5371    3.8503 H.spc      1 <1>        0.000
     39 H           7.2567    0.5430    1.0766 H.spc      1 <1>        0.000
     40 H           6.9362   -0.9340    2.1316 H.spc      1 <1>        0.000
@<TRIPOS>BOND
     1    9   10 2  
     2    4    5 1  
     3    5   18 2  
     4    2    3 1  
     5    1    2 1  
     6    1    8 1  
     7    3    4 1  
     8    5    6 1  
     9    7    9 1  
    10    6    7 2  
    11   16    8 1  
    12   15   16 1  
    13   14   17 2  
    14   13   14 1  
    15   14   15 1  
    16   12   13 1  
    17   11   12 1  
    18   10   11 1  
    19    1   19 1  
    20    1   20 1  
    21    2   21 1  
    22    2   22 1  
    23    3   23 1  
    24    3   24 1  
    25    4   25 1  
    26    4   26 1  
    27    6   27 1  
    28    7   28 1  
    29    8   29 1  
    30    8   30 1  
    31    9   31 1  
    32   10   32 1  
    33   11   33 1  
    34   11   34 1  
    35   12   35 1  
    36   12   36 1  
    37   15   37 1  
    38   15   38 1  
    39   16   39 1  
    40   16   40 1  
# Name:          frag5-653-26/41815
# Creation time: Sat Jun  5 12:53:02 2010


@<TRIPOS>MOLECULE
frag5-653-26/41815
   40    40     1     1     1
SMALL
USER_CHARGES


@<TRIPOS>ATOM
      1 C20         4.8796    1.4046    1.7962 C.3        1 <1>        0.000
      2 C21         5.0559    2.6686    0.9807 C.3        1 <1>        0.000
      3 C22         4.3575    2.8775   -0.3323 C.3        1 <1>        0.000
      4 C23         4.6443    4.1910   -1.0164 C.3        1 <1>        0.000
      5 C24         6.0434    4.2854   -1.5729 C.2        1 <1>        0.000
      6 C25         7.0018    5.2202   -0.9230 C.2        1 <1>        0.000
      7 C26         8.3222    5.0169   -0.9971 C.2        1 <1>        0.000
      8 C34         5.8048    1.3075    3.0011 C.3        1 <1>        0.000
      9 C27         9.1737    4.0425   -1.6120 C.2        1 <1>        0.000
     10 C28        10.3152    3.4790   -1.1483 C.2        1 <1>        0.000
     11 C29        11.0603    3.6814    0.1478 C.3        1 <1>        0.000
     12 C30        11.0629    2.5794    1.2079 C.3        1 <1>        0.000
     13 O8          9.7679    2.1521    1.5243 O.3        1 <1>        0.000
     14 C31         9.5524    0.8950    1.9335 C.2        1 <1>        0.000
     15 C32         8.0847    0.5419    1.9694 C.3        1 <1>        0.000
     16 C33         7.2950    1.4976    2.8205 C.3        1 <1>        0.000
     17 O12        10.4533    0.1160    2.2413 O.2        1 <1>        0.000
     18 O13         6.3711    3.5771   -2.5225 O.2        1 <1>        0.000
     19 H           5.1126    0.5641    1.1424 H.spc      1 <1>        0.000
     20 H           3.8572    1.4049    2.1741 H.spc      1 <1>        0.000
     21 H           4.6345    3.4447    1.6196 H.spc      1 <1>        0.000
     22 H           6.1110    2.6506    0.7079 H.spc      1 <1>        0.000
     23 H           3.2882    2.8635   -0.1216 H.spc      1 <1>        0.000
     24 H           4.7127    2.0940   -1.0017 H.spc      1 <1>        0.000
     25 H           3.9516    4.2833   -1.8529 H.spc      1 <1>        0.000
     26 H           4.5334    4.9796   -0.2721 H.spc      1 <1>        0.000
     27 H           6.6220    6.0843   -0.3779 H.spc      1 <1>        0.000
     28 H           8.8875    5.7776   -0.4587 H.spc      1 <1>        0.000
     29 H           5.6990    0.2791    3.3464 H.spc      1 <1>        0.000
     30 H           5.4996    2.1295    3.6487 H.spc      1 <1>        0.000
     31 H           8.8563    3.7046   -2.5985 H.spc      1 <1>        0.000
     32 H          10.7723    2.7579   -1.8259 H.spc      1 <1>        0.000
     33 H          12.1046    3.7758   -0.1499 H.spc      1 <1>        0.000
     34 H          10.5525    4.5188    0.6263 H.spc      1 <1>        0.000
     35 H          11.6155    1.7273    0.8120 H.spc      1 <1>        0.000
     36 H          11.5205    2.9787    2.1131 H.spc      1 <1>        0.000
     37 H           7.6974    0.5924    0.9518 H.spc      1 <1>        0.000
     38 H           7.9850   -0.4562    2.3960 H.spc      1 <1>        0.000
     39 H           7.7065    1.3705    3.8218 H.spc      1 <1>        0.000
     40 H           7.3846    2.4544    2.3060 H.spc      1 <1>        0.000
@<TRIPOS>BOND
     1    9   10 2  
     2    4    5 1  
     3    5   18 2  
     4    2    3 1  
     5    1    2 1  
     6    1    8 1  
     7    3    4 1  
     8    5    6 1  
     9    7    9 1  
    10    6    7 2  
    11   16    8 1  
    12   15   16 1  
    13   14   17 2  
    14   13   14 1  
    15   14   15 1  
    16   12   13 1  
    17   11   12 1  
    18   10   11 1  
    19    1   19 1  
    20    1   20 1  
    21    2   21 1  
    22    2   22 1  
    23    3   23 1  
    24    3   24 1  
    25    4   25 1  
    26    4   26 1  
    27    6   27 1  
    28    7   28 1  
    29    8   29 1  
    30    8   30 1  
    31    9   31 1  
    32   10   32 1  
    33   11   33 1  
    34   11   34 1  
    35   12   35 1  
    36   12   36 1  
    37   15   37 1  
    38   15   38 1  
    39   16   39 1  
    40   16   40 1  
# Name:          frag5-653-26/41815
# Creation time: Sat Jun  5 12:53:02 2010


@<TRIPOS>MOLECULE
frag5-653-26/41815
   40    40     1     1     1
SMALL
USER_CHARGES


@<TRIPOS>ATOM
      1 C20         5.5686    1.2130    0.7664 C.3        1 <1>        0.000
      2 C21         4.6081    2.2816    1.2206 C.3        1 <1>        0.000
      3 C22         4.0964    3.3025    0.2345 C.3        1 <1>        0.000
      4 C23         4.9481    4.4963   -0.1122 C.3        1 <1>        0.000
      5 C24         6.1847    4.2676   -0.9705 C.2        1 <1>        0.000
      6 C25         7.3359    5.1676   -0.7163 C.2        1 <1>        0.000
      7 C26         8.6002    4.8287   -0.9962 C.2        1 <1>        0.000
      8 C34         6.1859    0.2975    1.8000 C.3        1 <1>        0.000
      9 C27         9.2737    3.7160   -1.5767 C.2        1 <1>        0.000
     10 C28        10.4013    3.0813   -1.2300 C.2        1 <1>        0.000
     11 C29        11.3585    3.2715   -0.0990 C.3        1 <1>        0.000
     12 C30        11.2738    2.2014    0.9837 C.3        1 <1>        0.000
     13 O8         10.2666    2.3398    1.9570 O.3        1 <1>        0.000
     14 C31         9.0870    1.7482    1.7147 C.2        1 <1>        0.000
     15 C32         7.9647    2.0153    2.6787 C.3        1 <1>        0.000
     16 C33         6.9907    0.8891    2.9388 C.3        1 <1>        0.000
     17 O12         8.8971    1.0190    0.7429 O.2        1 <1>        0.000
     18 O13         6.2049    3.3976   -1.8383 O.2        1 <1>        0.000
     19 H           6.4089    1.7554    0.3330 H.spc      1 <1>        0.000
     20 H           4.9782    0.5574    0.1263 H.spc      1 <1>        0.000
     21 H           3.7188    1.7344    1.5333 H.spc      1 <1>        0.000
     22 H           5.1723    2.8642    1.9488 H.spc      1 <1>        0.000
     23 H           3.2109    3.7246    0.7097 H.spc      1 <1>        0.000
     24 H           3.9962    2.7544   -0.7023 H.spc      1 <1>        0.000
     25 H           4.3042    5.1494   -0.7013 H.spc      1 <1>        0.000
     26 H           5.3228    4.8705    0.8405 H.spc      1 <1>        0.000
     27 H           7.1438    6.1488   -0.2822 H.spc      1 <1>        0.000
     28 H           9.2994    5.6114   -0.7020 H.spc      1 <1>        0.000
     29 H           6.9012   -0.3062    1.2414 H.spc      1 <1>        0.000
     30 H           5.3364   -0.1843    2.2840 H.spc      1 <1>        0.000
     31 H           8.7842    3.3080   -2.4610 H.spc      1 <1>        0.000
     32 H          10.6730    2.2686   -1.9037 H.spc      1 <1>        0.000
     33 H          12.3634    3.2235   -0.5186 H.spc      1 <1>        0.000
     34 H          11.1126    4.2233    0.3718 H.spc      1 <1>        0.000
     35 H          11.0502    1.2717    0.4604 H.spc      1 <1>        0.000
     36 H          12.2168    2.2588    1.5273 H.spc      1 <1>        0.000
     37 H           8.4417    2.2198    3.6372 H.spc      1 <1>        0.000
     38 H           7.3764    2.8166    2.2316 H.spc      1 <1>        0.000
     39 H           7.6156    0.0657    3.2845 H.spc      1 <1>        0.000
     40 H           6.2425    1.3261    3.6001 H.spc      1 <1>        0.000
@<TRIPOS>BOND
     1    9   10 2  
     2    4    5 1  
     3    5   18 2  
     4    2    3 1  
     5    1    2 1  
     6    1    8 1  
     7    3    4 1  
     8    5    6 1  
     9    7    9 1  
    10    6    7 2  
    11   16    8 1  
    12   15   16 1  
    13   14   17 2  
    14   13   14 1  
    15   14   15 1  
    16   12   13 1  
    17   11   12 1  
    18   10   11 1  
    19    1   19 1  
    20    1   20 1  
    21    2   21 1  
    22    2   22 1  
    23    3   23 1  
    24    3   24 1  
    25    4   25 1  
    26    4   26 1  
    27    6   27 1  
    28    7   28 1  
    29    8   29 1  
    30    8   30 1  
    31    9   31 1  
    32   10   32 1  
    33   11   33 1  
    34   11   34 1  
    35   12   35 1  
    36   12   36 1  
    37   15   37 1  
    38   15   38 1  
    39   16   39 1  
    40   16   40 1  
# Name:          frag5-653-26/41815
# Creation time: Sat Jun  5 12:53:02 2010


@<TRIPOS>MOLECULE
frag5-653-26/41815
   40    40     1     1     1
SMALL
USER_CHARGES


@<TRIPOS>ATOM
      1 C20         4.8803    1.4383    2.1047 C.3        1 <1>        0.000
      2 C21         5.0364    2.6825    1.2768 C.3        1 <1>        0.000
      3 C22         4.4275    2.8355   -0.1029 C.3        1 <1>        0.000
      4 C23         4.8123    4.0733   -0.8596 C.3        1 <1>        0.000
      5 C24         6.2431    4.0809   -1.3657 C.2        1 <1>        0.000
      6 C25         7.1438    5.1341   -0.8302 C.2        1 <1>        0.000
      7 C26         8.4864    5.0498   -0.8904 C.2        1 <1>        0.000
      8 C34         5.8558    1.2483    3.2554 C.3        1 <1>        0.000
      9 C27         9.4264    4.1249   -1.4232 C.2        1 <1>        0.000
     10 C28        10.5067    3.5933   -0.8463 C.2        1 <1>        0.000
     11 C29        11.0637    3.7652    0.5270 C.3        1 <1>        0.000
     12 C30        11.0808    2.5136    1.3850 C.3        1 <1>        0.000
     13 O8          9.8735    1.9512    1.8728 O.3        1 <1>        0.000
     14 C31         9.1439    1.1462    1.0614 C.2        1 <1>        0.000
     15 C32         7.8051    0.6534    1.6241 C.3        1 <1>        0.000
     16 C33         7.3381    1.2323    2.9346 C.3        1 <1>        0.000
     17 O12         9.4957    0.7662   -0.0479 O.2        1 <1>        0.000
     18 O13         6.6269    3.2448   -2.1776 O.2        1 <1>        0.000
     19 H           5.0558    0.6045    1.4250 H.spc      1 <1>        0.000
     20 H           3.8923    1.5058    2.5601 H.spc      1 <1>        0.000
     21 H           4.5158    3.4390    1.8639 H.spc      1 <1>        0.000
     22 H           6.1081    2.7185    1.0812 H.spc      1 <1>        0.000
     23 H           3.3487    2.8896    0.0434 H.spc      1 <1>        0.000
     24 H           4.7890    1.9925   -0.6918 H.spc      1 <1>        0.000
     25 H           4.1639    4.1276   -1.7341 H.spc      1 <1>        0.000
     26 H           4.7126    4.9125   -0.1712 H.spc      1 <1>        0.000
     27 H           6.6978    6.0146   -0.3678 H.spc      1 <1>        0.000
     28 H           8.9729    5.9004   -0.4129 H.spc      1 <1>        0.000
     29 H           5.6364    0.2607    3.6612 H.spc      1 <1>        0.000
     30 H           5.7092    2.1112    3.9051 H.spc      1 <1>        0.000
     31 H           9.2381    3.8047   -2.4479 H.spc      1 <1>        0.000
     32 H          11.0777    2.9206   -1.4862 H.spc      1 <1>        0.000
     33 H          12.1023    4.0726    0.4050 H.spc      1 <1>        0.000
     34 H          10.4198    4.4823    1.0361 H.spc      1 <1>        0.000
     35 H          11.4852    1.7450    0.7263 H.spc      1 <1>        0.000
     36 H          11.6164    2.8154    2.2851 H.spc      1 <1>        0.000
     37 H           7.0547    0.9499    0.8912 H.spc      1 <1>        0.000
     38 H           7.9417   -0.4121    1.8090 H.spc      1 <1>        0.000
     39 H           7.7797    0.5886    3.6954 H.spc      1 <1>        0.000
     40 H           7.6240    2.2833    2.8913 H.spc      1 <1>        0.000
@<TRIPOS>BOND
     1    9   10 2  
     2    4    5 1  
     3    5   18 2  
     4    2    3 1  
     5    1    2 1  
     6    1    8 1  
     7    3    4 1  
     8    5    6 1  
     9    7    9 1  
    10    6    7 2  
    11   16    8 1  
    12   15   16 1  
    13   14   17 2  
    14   13   14 1  
    15   14   15 1  
    16   12   13 1  
    17   11   12 1  
    18   10   11 1  
    19    1   19 1  
    20    1   20 1  
    21    2   21 1  
    22    2   22 1  
    23    3   23 1  
    24    3   24 1  
    25    4   25 1  
    26    4   26 1  
    27    6   27 1  
    28    7   28 1  
    29    8   29 1  
    30    8   30 1  
    31    9   31 1  
    32   10   32 1  
    33   11   33 1  
    34   11   34 1  
    35   12   35 1  
    36   12   36 1  
    37   15   37 1  
    38   15   38 1  
    39   16   39 1  
    40   16   40 1  
# Name:          frag5-653-26/41815
# Creation time: Sat Jun  5 12:53:02 2010


@<TRIPOS>MOLECULE
frag5-653-26/41815
   40    40     1     1     1
SMALL
USER_CHARGES


@<TRIPOS>ATOM
      1 C20         4.7937    1.1123    1.7176 C.3        1 <1>        0.000
      2 C21         4.9398    2.0367    0.5194 C.3        1 <1>        0.000
      3 C22         5.2458    3.4974    0.7807 C.3        1 <1>        0.000
      4 C23         5.0514    4.5065   -0.3181 C.3        1 <1>        0.000
      5 C24         6.1174    4.4844   -1.3853 C.2        1 <1>        0.000
      6 C25         7.3044    5.3478   -1.1569 C.2        1 <1>        0.000
      7 C26         8.5410    4.8935   -1.3841 C.2        1 <1>        0.000
      8 C34         5.8344    0.0309    1.9267 C.3        1 <1>        0.000
      9 C27         9.1010    3.6739   -1.8622 C.2        1 <1>        0.000
     10 C28        10.1823    3.0127   -1.4310 C.2        1 <1>        0.000
     11 C29        11.1212    3.3265   -0.3130 C.3        1 <1>        0.000
     12 C30        10.8709    2.5083    0.9497 C.3        1 <1>        0.000
     13 O8          9.5474    2.4973    1.4408 O.3        1 <1>        0.000
     14 C31         9.2829    1.7359    2.5171 C.2        1 <1>        0.000
     15 C32         7.8547    1.4194    2.8022 C.3        1 <1>        0.000
     16 C33         7.3014    0.4032    1.8332 C.3        1 <1>        0.000
     17 O12        10.1555    1.2606    3.2408 O.2        1 <1>        0.000
     18 O13         6.0012    3.7864   -2.3795 O.2        1 <1>        0.000
     19 H           3.8572    0.5791    1.5540 H.spc      1 <1>        0.000
     20 H           4.8768    1.7607    2.5899 H.spc      1 <1>        0.000
     21 H           5.7972    1.6566   -0.0360 H.spc      1 <1>        0.000
     22 H           3.9670    2.0286    0.0278 H.spc      1 <1>        0.000
     23 H           6.3151    3.5215    0.9908 H.spc      1 <1>        0.000
     24 H           4.5375    3.7930    1.5547 H.spc      1 <1>        0.000
     25 H           4.1067    4.2676   -0.8065 H.spc      1 <1>        0.000
     26 H           5.0850    5.4925    0.1453 H.spc      1 <1>        0.000
     27 H           7.1650    6.3677   -0.7985 H.spc      1 <1>        0.000
     28 H           9.3044    5.6344   -1.1464 H.spc      1 <1>        0.000
     29 H           5.6706   -0.6799    1.1168 H.spc      1 <1>        0.000
     30 H           5.6923   -0.3038    2.9543 H.spc      1 <1>        0.000
     31 H           8.5741    3.2136   -2.6980 H.spc      1 <1>        0.000
     32 H          10.4138    2.1018   -1.9830 H.spc      1 <1>        0.000
     33 H          12.1279    3.0911   -0.6584 H.spc      1 <1>        0.000
     34 H          10.9787    4.3756   -0.0539 H.spc      1 <1>        0.000
     35 H          11.1059    1.4756    0.6918 H.spc      1 <1>        0.000
     36 H          11.4790    2.9648    1.7307 H.spc      1 <1>        0.000
     37 H           7.7900    1.0043    3.8080 H.spc      1 <1>        0.000
     38 H           7.2745    2.3370    2.7048 H.spc      1 <1>        0.000
     39 H           7.4159    0.8584    0.8494 H.spc      1 <1>        0.000
     40 H           7.8418   -0.5183    2.0499 H.spc      1 <1>        0.000
@<TRIPOS>BOND
     1    9   10 2  
     2    4    5 1  
     3    5   18 2  
     4    2    3 1  
     5    1    2 1  
     6    1    8 1  
     7    3    4 1  
     8    5    6 1  
     9    7    9 1  
    10    6    7 2  
    11   16    8 1  
    12   15   16 1  
    13   14   17 2  
    14   13   14 1  
    15   14   15 1  
    16   12   13 1  
    17   11   12 1  
    18   10   11 1  
    19    1   19 1  
    20    1   20 1  
    21    2   21 1  
    22    2   22 1  
    23    3   23 1  
    24    3   24 1  
    25    4   25 1  
    26    4   26 1  
    27    6   27 1  
    28    7   28 1  
    29    8   29 1  
    30    8   30 1  
    31    9   31 1  
    32   10   32 1  
    33   11   33 1  
    34   11   34 1  
    35   12   35 1  
    36   12   36 1  
    37   15   37 1  
    38   15   38 1  
    39   16   39 1  
    40   16   40 1  
# Name:          frag5-653-26/41815
# Creation time: Sat Jun  5 12:53:02 2010


@<TRIPOS>MOLECULE
frag5-653-26/41815
   40    40     1     1     1
SMALL
USER_CHARGES


@<TRIPOS>ATOM
      1 C20         5.0903    1.6262    2.2512 C.3        1 <1>        0.000
      2 C21         5.3006    2.9611    1.5876 C.3        1 <1>        0.000
      3 C22         4.5379    3.1570    0.3027 C.3        1 <1>        0.000
      4 C23         4.8650    4.3177   -0.5869 C.3        1 <1>        0.000
      5 C24         6.2078    4.1869   -1.2527 C.2        1 <1>        0.000
      6 C25         7.2310    5.2217   -0.9759 C.2        1 <1>        0.000
      7 C26         8.5114    4.9874   -1.2460 C.2        1 <1>        0.000
      8 C34         5.7247    0.3926    1.6359 C.3        1 <1>        0.000
      9 C27         9.2483    3.8986   -1.8022 C.2        1 <1>        0.000
     10 C28        10.2994    3.2493   -1.2866 C.2        1 <1>        0.000
     11 C29        10.9967    3.4676    0.0102 C.3        1 <1>        0.000
     12 C30        11.1091    2.2611    0.9241 C.3        1 <1>        0.000
     13 O8         10.0112    1.4124    1.1491 O.3        1 <1>        0.000
     14 C31         9.1531    1.6491    2.1557 C.2        1 <1>        0.000
     15 C32         8.1891    0.5445    2.4516 C.3        1 <1>        0.000
     16 C33         7.2014    0.2980    1.3478 C.3        1 <1>        0.000
     17 O12         9.1433    2.6776    2.8223 O.2        1 <1>        0.000
     18 O13         6.4262    3.2252   -1.9898 O.2        1 <1>        0.000
     19 H           4.0164    1.4491    2.1930 H.spc      1 <1>        0.000
     20 H           5.5563    1.7229    3.2318 H.spc      1 <1>        0.000
     21 H           4.9452    3.7199    2.2847 H.spc      1 <1>        0.000
     22 H           6.3599    3.0271    1.3394 H.spc      1 <1>        0.000
     23 H           3.5097    3.3341    0.6181 H.spc      1 <1>        0.000
     24 H           4.7765    2.2773   -0.2950 H.spc      1 <1>        0.000
     25 H           4.1083    4.3596   -1.3703 H.spc      1 <1>        0.000
     26 H           4.8868    5.2148    0.0318 H.spc      1 <1>        0.000
     27 H           6.9328    6.1793   -0.5490 H.spc      1 <1>        0.000
     28 H           9.1519    5.8279   -0.9788 H.spc      1 <1>        0.000
     29 H           5.2714    0.3436    0.6459 H.spc      1 <1>        0.000
     30 H           5.5660   -0.3760    2.3923 H.spc      1 <1>        0.000
     31 H           8.9097    3.5490   -2.7775 H.spc      1 <1>        0.000
     32 H          10.7019    2.4465   -1.9044 H.spc      1 <1>        0.000
     33 H          12.0179    3.7561   -0.2389 H.spc      1 <1>        0.000
     34 H          10.4054    4.2054    0.5525 H.spc      1 <1>        0.000
     35 H          11.8375    1.6214    0.4258 H.spc      1 <1>        0.000
     36 H          11.3126    2.6924    1.9042 H.spc      1 <1>        0.000
     37 H           8.7687   -0.3693    2.5820 H.spc      1 <1>        0.000
     38 H           7.6239    0.8323    3.3381 H.spc      1 <1>        0.000
     39 H           7.3928    1.0903    0.6242 H.spc      1 <1>        0.000
     40 H           7.3608   -0.7417    1.0619 H.spc      1 <1>        0.000
@<TRIPOS>BOND
     1    9   10 2  
     2    4    5 1  
     3    5   18 2  
     4    2    3 1  
     5    1    2 1  
     6    1    8 1  
     7    3    4 1  
     8    5    6 1  
     9    7    9 1  
    10    6    7 2  
    11   16    8 1  
    12   15   16 1  
    13   14   17 2  
    14   13   14 1  
    15   14   15 1  
    16   12   13 1  
    17   11   12 1  
    18   10   11 1  
    19    1   19 1  
    20    1   20 1  
    21    2   21 1  
    22    2   22 1  
    23    3   23 1  
    24    3   24 1  
    25    4   25 1  
    26    4   26 1  
    27    6   27 1  
    28    7   28 1  
    29    8   29 1  
    30    8   30 1  
    31    9   31 1  
    32   10   32 1  
    33   11   33 1  
    34   11   34 1  
    35   12   35 1  
    36   12   36 1  
    37   15   37 1  
    38   15   38 1  
    39   16   39 1  
    40   16   40 1  
# Name:          frag5-653-26/41815 -- energy: -6.017418
# Creation time: Sat Jun  5 12:53:02 2010


@<TRIPOS>MOLECULE
frag5-653-26/41815 -- energy: -6.017418
   40    40     1     1     1
SMALL
USER_CHARGES


@<TRIPOS>ATOM
      1 C20         4.9186    1.2573    1.6213 C.3        1 <1>        0.000
      2 C21         5.2106    2.6505    1.0227 C.3        1 <1>        0.000
      3 C22         4.4872    2.9619   -0.3000 C.3        1 <1>        0.000
      4 C23         4.8143    4.4177   -0.6755 C.3        1 <1>        0.000
      5 C24         6.2183    4.4095   -1.2396 C.2        1 <1>        0.000
      6 C25         7.2837    5.3291   -0.7765 C.2        1 <1>        0.000
      7 C26         8.5891    5.1920   -1.0683 C.2        1 <1>        0.000
      8 C34         5.9295    0.8521    2.7162 C.3        1 <1>        0.000
      9 C27         9.2083    4.1454   -1.8827 C.2        1 <1>        0.000
     10 C28        10.2248    3.3553   -1.4962 C.2        1 <1>        0.000
     11 C29        10.9075    3.3642   -0.1462 C.3        1 <1>        0.000
     12 C30        10.9116    2.0486    0.6819 C.3        1 <1>        0.000
     13 O8          9.6674    1.4182    1.0016 O.3        1 <1>        0.000
     14 C31         9.2650    1.5421    2.2812 C.2        1 <1>        0.000
     15 C32         8.4927    0.3541    2.7976 C.3        1 <1>        0.000
     16 C33         7.1448    0.1347    2.0810 C.3        1 <1>        0.000
     17 O12         9.5051    2.5143    2.9949 O.2        1 <1>        0.000
     18 O13         6.4676    3.5867   -2.1152 O.2        1 <1>        0.000
     19 H           4.9887    0.5266    0.8155 H.spc      1 <1>        0.000
     20 H           3.9289    1.2906    2.0768 H.spc      1 <1>        0.000
     21 H           4.8605    3.3828    1.7502 H.spc      1 <1>        0.000
     22 H           6.2790    2.6811    0.8092 H.spc      1 <1>        0.000
     23 H           3.4112    2.8306   -0.1857 H.spc      1 <1>        0.000
     24 H           4.8193    2.2823   -1.0849 H.spc      1 <1>        0.000
     25 H           4.1022    4.8023   -1.4056 H.spc      1 <1>        0.000
     26 H           4.7468    5.0703    0.1949 H.spc      1 <1>        0.000
     27 H           6.9888    6.1755   -0.1562 H.spc      1 <1>        0.000
     28 H           9.2603    5.9434   -0.6523 H.spc      1 <1>        0.000
     29 H           5.4428    0.1759    3.4190 H.spc      1 <1>        0.000
     30 H           6.2737    1.7476    3.2336 H.spc      1 <1>        0.000
     31 H           8.8120    3.9939   -2.8867 H.spc      1 <1>        0.000
     32 H          10.5938    2.6369   -2.2282 H.spc      1 <1>        0.000
     33 H          11.9561    3.5763   -0.3551 H.spc      1 <1>        0.000
     34 H          10.3480    4.0810    0.4548 H.spc      1 <1>        0.000
     35 H          11.4361    1.3272    0.0554 H.spc      1 <1>        0.000
     36 H          11.3377    2.3278    1.6455 H.spc      1 <1>        0.000
     37 H           9.1028   -0.5325    2.6246 H.spc      1 <1>        0.000
     38 H           8.2771    0.5371    3.8503 H.spc      1 <1>        0.000
     39 H           7.2567    0.5430    1.0766 H.spc      1 <1>        0.000
     40 H           6.9362   -0.9340    2.1316 H.spc      1 <1>        0.000
@<TRIPOS>BOND
     1    9   10 2  
     2    4    5 1  
     3    5   18 2  
     4    2    3 1  
     5    1    2 1  
     6    1    8 1  
     7    3    4 1  
     8    5    6 1  
     9    7    9 1  
    10    6    7 2  
    11   16    8 1  
    12   15   16 1  
    13   14   17 2  
    14   13   14 1  
    15   14   15 1  
    16   12   13 1  
    17   11   12 1  
    18   10   11 1  
    19    1   19 1  
    20    1   20 1  
    21    2   21 1  
    22    2   22 1  
    23    3   23 1  
    24    3   24 1  
    25    4   25 1  
    26    4   26 1  
    27    6   27 1  
    28    7   28 1  
    29    8   29 1  
    30    8   30 1  
    31    9   31 1  
    32   10   32 1  
    33   11   33 1  
    34   11   34 1  
    35   12   35 1  
    36   12   36 1  
    37   15   37 1  
    38   15   38 1  
    39   16   39 1  
    40   16   40 1  
# Name:          frag5-653-26/41815 -- energy: -7.013309
# Creation time: Sat Jun  5 12:53:02 2010


@<TRIPOS>MOLECULE
frag5-653-26/41815 -- energy: -7.013309
   40    40     1     1     1
SMALL
USER_CHARGES


@<TRIPOS>ATOM
      1 C20         4.8796    1.4046    1.7962 C.3        1 <1>        0.000
      2 C21         5.0559    2.6686    0.9807 C.3        1 <1>        0.000
      3 C22         4.3575    2.8775   -0.3323 C.3        1 <1>        0.000
      4 C23         4.6443    4.1910   -1.0164 C.3        1 <1>        0.000
      5 C24         6.0434    4.2854   -1.5729 C.2        1 <1>        0.000
      6 C25         7.0018    5.2202   -0.9230 C.2        1 <1>        0.000
      7 C26         8.3222    5.0169   -0.9971 C.2        1 <1>        0.000
      8 C34         5.8048    1.3075    3.0011 C.3        1 <1>        0.000
      9 C27         9.1737    4.0425   -1.6120 C.2        1 <1>        0.000
     10 C28        10.3152    3.4790   -1.1483 C.2        1 <1>        0.000
     11 C29        11.0603    3.6814    0.1478 C.3        1 <1>        0.000
     12 C30        11.0629    2.5794    1.2079 C.3        1 <1>        0.000
     13 O8          9.7679    2.1521    1.5243 O.3        1 <1>        0.000
     14 C31         9.5524    0.8950    1.9335 C.2        1 <1>        0.000
     15 C32         8.0847    0.5419    1.9694 C.3        1 <1>        0.000
     16 C33         7.2950    1.4976    2.8205 C.3        1 <1>        0.000
     17 O12        10.4533    0.1160    2.2413 O.2        1 <1>        0.000
     18 O13         6.3711    3.5771   -2.5225 O.2        1 <1>        0.000
     19 H           5.1126    0.5641    1.1424 H.spc      1 <1>        0.000
     20 H           3.8572    1.4049    2.1741 H.spc      1 <1>        0.000
     21 H           4.6345    3.4447    1.6196 H.spc      1 <1>        0.000
     22 H           6.1110    2.6506    0.7079 H.spc      1 <1>        0.000
     23 H           3.2882    2.8635   -0.1216 H.spc      1 <1>        0.000
     24 H           4.7127    2.0940   -1.0017 H.spc      1 <1>        0.000
     25 H           3.9516    4.2833   -1.8529 H.spc      1 <1>        0.000
     26 H           4.5334    4.9796   -0.2721 H.spc      1 <1>        0.000
     27 H           6.6220    6.0843   -0.3779 H.spc      1 <1>        0.000
     28 H           8.8875    5.7776   -0.4587 H.spc      1 <1>        0.000
     29 H           5.6990    0.2791    3.3464 H.spc      1 <1>        0.000
     30 H           5.4996    2.1295    3.6487 H.spc      1 <1>        0.000
     31 H           8.8563    3.7046   -2.5985 H.spc      1 <1>        0.000
     32 H          10.7723    2.7579   -1.8259 H.spc      1 <1>        0.000
     33 H          12.1046    3.7758   -0.1499 H.spc      1 <1>        0.000
     34 H          10.5525    4.5188    0.6263 H.spc      1 <1>        0.000
     35 H          11.6155    1.7273    0.8120 H.spc      1 <1>        0.000
     36 H          11.5205    2.9787    2.1131 H.spc      1 <1>        0.000
     37 H           7.6974    0.5924    0.9518 H.spc      1 <1>        0.000
     38 H           7.9850   -0.4562    2.3960 H.spc      1 <1>        0.000
     39 H           7.7065    1.3705    3.8218 H.spc      1 <1>        0.000
     40 H           7.3846    2.4544    2.3060 H.spc      1 <1>        0.000
@<TRIPOS>BOND
     1    9   10 2  
     2    4    5 1  
     3    5   18 2  
     4    2    3 1  
     5    1    2 1  
     6    1    8 1  
     7    3    4 1  
     8    5    6 1  
     9    7    9 1  
    10    6    7 2  
    11   16    8 1  
    12   15   16 1  
    13   14   17 2  
    14   13   14 1  
    15   14   15 1  
    16   12   13 1  
    17   11   12 1  
    18   10   11 1  
    19    1   19 1  
    20    1   20 1  
    21    2   21 1  
    22    2   22 1  
    23    3   23 1  
    24    3   24 1  
    25    4   25 1  
    26    4   26 1  
    27    6   27 1  
    28    7   28 1  
    29    8   29 1  
    30    8   30 1  
    31    9   31 1  
    32   10   32 1  
    33   11   33 1  
    34   11   34 1  
    35   12   35 1  
    36   12   36 1  
    37   15   37 1  
    38   15   38 1  
    39   16   39 1  
    40   16   40 1  
# Name:          frag5-653-26/41815 -- energy: -7.884161
# Creation time: Sat Jun  5 12:53:02 2010


@<TRIPOS>MOLECULE
frag5-653-26/41815 -- energy: -7.884161
   40    40     1     1     1
SMALL
USER_CHARGES


@<TRIPOS>ATOM
      1 C20         5.5686    1.2130    0.7664 C.3        1 <1>        0.000
      2 C21         4.6081    2.2816    1.2206 C.3        1 <1>        0.000
      3 C22         4.0964    3.3025    0.2345 C.3        1 <1>        0.000
      4 C23         4.9481    4.4963   -0.1122 C.3        1 <1>        0.000
      5 C24         6.1847    4.2676   -0.9705 C.2        1 <1>        0.000
      6 C25         7.3359    5.1676   -0.7163 C.2        1 <1>        0.000
      7 C26         8.6002    4.8287   -0.9962 C.2        1 <1>        0.000
      8 C34         6.1859    0.2975    1.8000 C.3        1 <1>        0.000
      9 C27         9.2737    3.7160   -1.5767 C.2        1 <1>        0.000
     10 C28        10.4013    3.0813   -1.2300 C.2        1 <1>        0.000
     11 C29        11.3585    3.2715   -0.0990 C.3        1 <1>        0.000
     12 C30        11.2738    2.2014    0.9837 C.3        1 <1>        0.000
     13 O8         10.2666    2.3398    1.9570 O.3        1 <1>        0.000
     14 C31         9.0870    1.7482    1.7147 C.2        1 <1>        0.000
     15 C32         7.9647    2.0153    2.6787 C.3        1 <1>        0.000
     16 C33         6.9907    0.8891    2.9388 C.3        1 <1>        0.000
     17 O12         8.8971    1.0190    0.7429 O.2        1 <1>        0.000
     18 O13         6.2049    3.3976   -1.8383 O.2        1 <1>        0.000
     19 H           6.4089    1.7554    0.3330 H.spc      1 <1>        0.000
     20 H           4.9782    0.5574    0.1263 H.spc      1 <1>        0.000
     21 H           3.7188    1.7344    1.5333 H.spc      1 <1>        0.000
     22 H           5.1723    2.8642    1.9488 H.spc      1 <1>        0.000
     23 H           3.2109    3.7246    0.7097 H.spc      1 <1>        0.000
     24 H           3.9962    2.7544   -0.7023 H.spc      1 <1>        0.000
     25 H           4.3042    5.1494   -0.7013 H.spc      1 <1>        0.000
     26 H           5.3228    4.8705    0.8405 H.spc      1 <1>        0.000
     27 H           7.1438    6.1488   -0.2822 H.spc      1 <1>        0.000
     28 H           9.2994    5.6114   -0.7020 H.spc      1 <1>        0.000
     29 H           6.9012   -0.3062    1.2414 H.spc      1 <1>        0.000
     30 H           5.3364   -0.1843    2.2840 H.spc      1 <1>        0.000
     31 H           8.7842    3.3080   -2.4610 H.spc      1 <1>        0.000
     32 H          10.6730    2.2686   -1.9037 H.spc      1 <1>        0.000
     33 H          12.3634    3.2235   -0.5186 H.spc      1 <1>        0.000
     34 H          11.1126    4.2233    0.3718 H.spc      1 <1>        0.000
     35 H          11.0502    1.2717    0.4604 H.spc      1 <1>        0.000
     36 H          12.2168    2.2588    1.5273 H.spc      1 <1>        0.000
     37 H           8.4417    2.2198    3.6372 H.spc      1 <1>        0.000
     38 H           7.3764    2.8166    2.2316 H.spc      1 <1>        0.000
     39 H           7.6156    0.0657    3.2845 H.spc      1 <1>        0.000
     40 H           6.2425    1.3261    3.6001 H.spc      1 <1>        0.000
@<TRIPOS>BOND
     1    9   10 2  
     2    4    5 1  
     3    5   18 2  
     4    2    3 1  
     5    1    2 1  
     6    1    8 1  
     7    3    4 1  
     8    5    6 1  
     9    7    9 1  
    10    6    7 2  
    11   16    8 1  
    12   15   16 1  
    13   14   17 2  
    14   13   14 1  
    15   14   15 1  
    16   12   13 1  
    17   11   12 1  
    18   10   11 1  
    19    1   19 1  
    20    1   20 1  
    21    2   21 1  
    22    2   22 1  
    23    3   23 1  
    24    3   24 1  
    25    4   25 1  
    26    4   26 1  
    27    6   27 1  
    28    7   28 1  
    29    8   29 1  
    30    8   30 1  
    31    9   31 1  
    32   10   32 1  
    33   11   33 1  
    34   11   34 1  
    35   12   35 1  
    36   12   36 1  
    37   15   37 1  
    38   15   38 1  
    39   16   39 1  
    40   16   40 1  
# Name:          frag5-653-26/41815 -- energy: -7.351985
# Creation time: Sat Jun  5 12:53:02 2010


@<TRIPOS>MOLECULE
frag5-653-26/41815 -- energy: -7.351985
   40    40     1     1     1
SMALL
USER_CHARGES


@<TRIPOS>ATOM
      1 C20         4.8803    1.4383    2.1047 C.3        1 <1>        0.000
      2 C21         5.0364    2.6825    1.2768 C.3        1 <1>        0.000
      3 C22         4.4275    2.8355   -0.1029 C.3        1 <1>        0.000
      4 C23         4.8123    4.0733   -0.8596 C.3        1 <1>        0.000
      5 C24         6.2431    4.0809   -1.3657 C.2        1 <1>        0.000
      6 C25         7.1438    5.1341   -0.8302 C.2        1 <1>        0.000
      7 C26         8.4864    5.0498   -0.8904 C.2        1 <1>        0.000
      8 C34         5.8558    1.2483    3.2554 C.3        1 <1>        0.000
      9 C27         9.4264    4.1249   -1.4232 C.2        1 <1>        0.000
     10 C28        10.5067    3.5933   -0.8463 C.2        1 <1>        0.000
     11 C29        11.0637    3.7652    0.5270 C.3        1 <1>        0.000
     12 C30        11.0808    2.5136    1.3850 C.3        1 <1>        0.000
     13 O8          9.8735    1.9512    1.8728 O.3        1 <1>        0.000
     14 C31         9.1439    1.1462    1.0614 C.2        1 <1>        0.000
     15 C32         7.8051    0.6534    1.6241 C.3        1 <1>        0.000
     16 C33         7.3381    1.2323    2.9346 C.3        1 <1>        0.000
     17 O12         9.4957    0.7662   -0.0479 O.2        1 <1>        0.000
     18 O13         6.6269    3.2448   -2.1776 O.2        1 <1>        0.000
     19 H           5.0558    0.6045    1.4250 H.spc      1 <1>        0.000
     20 H           3.8923    1.5058    2.5601 H.spc      1 <1>        0.000
     21 H           4.5158    3.4390    1.8639 H.spc      1 <1>        0.000
     22 H           6.1081    2.7185    1.0812 H.spc      1 <1>        0.000
     23 H           3.3487    2.8896    0.0434 H.spc      1 <1>        0.000
     24 H           4.7890    1.9925   -0.6918 H.spc      1 <1>        0.000
     25 H           4.1639    4.1276   -1.7341 H.spc      1 <1>        0.000
     26 H           4.7126    4.9125   -0.1712 H.spc      1 <1>        0.000
     27 H           6.6978    6.0146   -0.3678 H.spc      1 <1>        0.000
     28 H           8.9729    5.9004   -0.4129 H.spc      1 <1>        0.000
     29 H           5.6364    0.2607    3.6612 H.spc      1 <1>        0.000
     30 H           5.7092    2.1112    3.9051 H.spc      1 <1>        0.000
     31 H           9.2381    3.8047   -2.4479 H.spc      1 <1>        0.000
     32 H          11.0777    2.9206   -1.4862 H.spc      1 <1>        0.000
     33 H          12.1023    4.0726    0.4050 H.spc      1 <1>        0.000
     34 H          10.4198    4.4823    1.0361 H.spc      1 <1>        0.000
     35 H          11.4852    1.7450    0.7263 H.spc      1 <1>        0.000
     36 H          11.6164    2.8154    2.2851 H.spc      1 <1>        0.000
     37 H           7.0547    0.9499    0.8912 H.spc      1 <1>        0.000
     38 H           7.9417   -0.4121    1.8090 H.spc      1 <1>        0.000
     39 H           7.7797    0.5886    3.6954 H.spc      1 <1>        0.000
     40 H           7.6240    2.2833    2.8913 H.spc      1 <1>        0.000
@<TRIPOS>BOND
     1    9   10 2  
     2    4    5 1  
     3    5   18 2  
     4    2    3 1  
     5    1    2 1  
     6    1    8 1  
     7    3    4 1  
     8    5    6 1  
     9    7    9 1  
    10    6    7 2  
    11   16    8 1  
    12   15   16 1  
    13   14   17 2  
    14   13   14 1  
    15   14   15 1  
    16   12   13 1  
    17   11   12 1  
    18   10   11 1  
    19    1   19 1  
    20    1   20 1  
    21    2   21 1  
    22    2   22 1  
    23    3   23 1  
    24    3   24 1  
    25    4   25 1  
    26    4   26 1  
    27    6   27 1  
    28    7   28 1  
    29    8   29 1  
    30    8   30 1  
    31    9   31 1  
    32   10   32 1  
    33   11   33 1  
    34   11   34 1  
    35   12   35 1  
    36   12   36 1  
    37   15   37 1  
    38   15   38 1  
    39   16   39 1  
    40   16   40 1  
# Name:          frag5-653-26/41815 -- energy: -7.560007
# Creation time: Sat Jun  5 12:53:02 2010


@<TRIPOS>MOLECULE
frag5-653-26/41815 -- energy: -7.560007
   40    40     1     1     1
SMALL
USER_CHARGES


@<TRIPOS>ATOM
      1 C20         4.7937    1.1123    1.7176 C.3        1 <1>        0.000
      2 C21         4.9398    2.0367    0.5194 C.3        1 <1>        0.000
      3 C22         5.2458    3.4974    0.7807 C.3        1 <1>        0.000
      4 C23         5.0514    4.5065   -0.3181 C.3        1 <1>        0.000
      5 C24         6.1174    4.4844   -1.3853 C.2        1 <1>        0.000
      6 C25         7.3044    5.3478   -1.1569 C.2        1 <1>        0.000
      7 C26         8.5410    4.8935   -1.3841 C.2        1 <1>        0.000
      8 C34         5.8344    0.0309    1.9267 C.3        1 <1>        0.000
      9 C27         9.1010    3.6739   -1.8622 C.2        1 <1>        0.000
     10 C28        10.1823    3.0127   -1.4310 C.2        1 <1>        0.000
     11 C29        11.1212    3.3265   -0.3130 C.3        1 <1>        0.000
     12 C30        10.8709    2.5083    0.9497 C.3        1 <1>        0.000
     13 O8          9.5474    2.4973    1.4408 O.3        1 <1>        0.000
     14 C31         9.2829    1.7359    2.5171 C.2        1 <1>        0.000
     15 C32         7.8547    1.4194    2.8022 C.3        1 <1>        0.000
     16 C33         7.3014    0.4032    1.8332 C.3        1 <1>        0.000
     17 O12        10.1555    1.2606    3.2408 O.2        1 <1>        0.000
     18 O13         6.0012    3.7864   -2.3795 O.2        1 <1>        0.000
     19 H           3.8572    0.5791    1.5540 H.spc      1 <1>        0.000
     20 H           4.8768    1.7607    2.5899 H.spc      1 <1>        0.000
     21 H           5.7972    1.6566   -0.0360 H.spc      1 <1>        0.000
     22 H           3.9670    2.0286    0.0278 H.spc      1 <1>        0.000
     23 H           6.3151    3.5215    0.9908 H.spc      1 <1>        0.000
     24 H           4.5375    3.7930    1.5547 H.spc      1 <1>        0.000
     25 H           4.1067    4.2676   -0.8065 H.spc      1 <1>        0.000
     26 H           5.0850    5.4925    0.1453 H.spc      1 <1>        0.000
     27 H           7.1650    6.3677   -0.7985 H.spc      1 <1>        0.000
     28 H           9.3044    5.6344   -1.1464 H.spc      1 <1>        0.000
     29 H           5.6706   -0.6799    1.1168 H.spc      1 <1>        0.000
     30 H           5.6923   -0.3038    2.9543 H.spc      1 <1>        0.000
     31 H           8.5741    3.2136   -2.6980 H.spc      1 <1>        0.000
     32 H          10.4138    2.1018   -1.9830 H.spc      1 <1>        0.000
     33 H          12.1279    3.0911   -0.6584 H.spc      1 <1>        0.000
     34 H          10.9787    4.3756   -0.0539 H.spc      1 <1>        0.000
     35 H          11.1059    1.4756    0.6918 H.spc      1 <1>        0.000
     36 H          11.4790    2.9648    1.7307 H.spc      1 <1>        0.000
     37 H           7.7900    1.0043    3.8080 H.spc      1 <1>        0.000
     38 H           7.2745    2.3370    2.7048 H.spc      1 <1>        0.000
     39 H           7.4159    0.8584    0.8494 H.spc      1 <1>        0.000
     40 H           7.8418   -0.5183    2.0499 H.spc      1 <1>        0.000
@<TRIPOS>BOND
     1    9   10 2  
     2    4    5 1  
     3    5   18 2  
     4    2    3 1  
     5    1    2 1  
     6    1    8 1  
     7    3    4 1  
     8    5    6 1  
     9    7    9 1  
    10    6    7 2  
    11   16    8 1  
    12   15   16 1  
    13   14   17 2  
    14   13   14 1  
    15   14   15 1  
    16   12   13 1  
    17   11   12 1  
    18   10   11 1  
    19    1   19 1  
    20    1   20 1  
    21    2   21 1  
    22    2   22 1  
    23    3   23 1  
    24    3   24 1  
    25    4   25 1  
    26    4   26 1  
    27    6   27 1  
    28    7   28 1  
    29    8   29 1  
    30    8   30 1  
    31    9   31 1  
    32   10   32 1  
    33   11   33 1  
    34   11   34 1  
    35   12   35 1  
    36   12   36 1  
    37   15   37 1  
    38   15   38 1  
    39   16   39 1  
    40   16   40 1  
# Name:          frag5-653-26/41815 -- energy: -7.506598
# Creation time: Sat Jun  5 12:53:02 2010


@<TRIPOS>MOLECULE
frag5-653-26/41815 -- energy: -7.506598
   40    40     1     1     1
SMALL
USER_CHARGES


@<TRIPOS>ATOM
      1 C20         5.0903    1.6262    2.2512 C.3        1 <1>        0.000
      2 C21         5.3006    2.9611    1.5876 C.3        1 <1>        0.000
      3 C22         4.5379    3.1570    0.3027 C.3        1 <1>        0.000
      4 C23         4.8650    4.3177   -0.5869 C.3        1 <1>        0.000
      5 C24         6.2078    4.1869   -1.2527 C.2        1 <1>        0.000
      6 C25         7.2310    5.2217   -0.9759 C.2        1 <1>        0.000
      7 C26         8.5114    4.9874   -1.2460 C.2        1 <1>        0.000
      8 C34         5.7247    0.3926    1.6359 C.3        1 <1>        0.000
      9 C27         9.2483    3.8986   -1.8022 C.2        1 <1>        0.000
     10 C28        10.2994    3.2493   -1.2866 C.2        1 <1>        0.000
     11 C29        10.9967    3.4676    0.0102 C.3        1 <1>        0.000
     12 C30        11.1091    2.2611    0.9241 C.3        1 <1>        0.000
     13 O8         10.0112    1.4124    1.1491 O.3        1 <1>        0.000
     14 C31         9.1531    1.6491    2.1557 C.2        1 <1>        0.000
     15 C32         8.1891    0.5445    2.4516 C.3        1 <1>        0.000
     16 C33         7.2014    0.2980    1.3478 C.3        1 <1>        0.000
     17 O12         9.1433    2.6776    2.8223 O.2        1 <1>        0.000
     18 O13         6.4262    3.2252   -1.9898 O.2        1 <1>        0.000
     19 H           4.0164    1.4491    2.1930 H.spc      1 <1>        0.000
     20 H           5.5563    1.7229    3.2318 H.spc      1 <1>        0.000
     21 H           4.9452    3.7199    2.2847 H.spc      1 <1>        0.000
     22 H           6.3599    3.0271    1.3394 H.spc      1 <1>        0.000
     23 H           3.5097    3.3341    0.6181 H.spc      1 <1>        0.000
     24 H           4.7765    2.2773   -0.2950 H.spc      1 <1>        0.000
     25 H           4.1083    4.3596   -1.3703 H.spc      1 <1>        0.000
     26 H           4.8868    5.2148    0.0318 H.spc      1 <1>        0.000
     27 H           6.9328    6.1793   -0.5490 H.spc      1 <1>        0.000
     28 H           9.1519    5.8279   -0.9788 H.spc      1 <1>        0.000
     29 H           5.2714    0.3436    0.6459 H.spc      1 <1>        0.000
     30 H           5.5660   -0.3760    2.3923 H.spc      1 <1>        0.000
     31 H           8.9097    3.5490   -2.7775 H.spc      1 <1>        0.000
     32 H          10.7019    2.4465   -1.9044 H.spc      1 <1>        0.000
     33 H          12.0179    3.7561   -0.2389 H.spc      1 <1>        0.000
     34 H          10.4054    4.2054    0.5525 H.spc      1 <1>        0.000
     35 H          11.8375    1.6214    0.4258 H.spc      1 <1>        0.000
     36 H          11.3126    2.6924    1.9042 H.spc      1 <1>        0.000
     37 H           8.7687   -0.3693    2.5820 H.spc      1 <1>        0.000
     38 H           7.6239    0.8323    3.3381 H.spc      1 <1>        0.000
     39 H           7.3928    1.0903    0.6242 H.spc      1 <1>        0.000
     40 H           7.3608   -0.7417    1.0619 H.spc      1 <1>        0.000
@<TRIPOS>BOND
     1    9   10 2  
     2    4    5 1  
     3    5   18 2  
     4    2    3 1  
     5    1    2 1  
     6    1    8 1  
     7    3    4 1  
     8    5    6 1  
     9    7    9 1  
    10    6    7 2  
    11   16    8 1  
    12   15   16 1  
    13   14   17 2  
    14   13   14 1  
    15   14   15 1  
    16   12   13 1  
    17   11   12 1  
    18   10   11 1  
    19    1   19 1  
    20    1   20 1  
    21    2   21 1  
    22    2   22 1  
    23    3   23 1  
    24    3   24 1  
    25    4   25 1  
    26    4   26 1  
    27    6   27 1  
    28    7   28 1  
    29    8   29 1  
    30    8   30 1  
    31    9   31 1  
    32   10   32 1  
    33   11   33 1  
    34   11   34 1  
    35   12   35 1  
    36   12   36 1  
    37   15   37 1  
    38   15   38 1  
    39   16   39 1  
    40   16   40 1  
