#      Rotatable Fragment
#      Build by yxyuan
#
# Name:          frag4-319-859/150395
# Creation time: Sat Jun  5 12:53:30 2010


@<TRIPOS>MOLECULE
frag4-319-859/150395
   16    17     1     1     1
SMALL
USER_CHARGES


@<TRIPOS>ATOM
      1 C1          0.5196    0.5879   -0.0954 C.2        1 <1>        0.000
      2 C2         -0.7606    1.3618    0.0114 C.2        1 <1>        0.000
      3 C3          0.5542   -0.8737    0.0039 C.2        1 <1>        0.000
      4 O1          1.4792    1.4518   -0.1939 O.3        1 <1>        0.000
      5 C4         -0.3149    2.6917    0.2390 C.2        1 <1>        0.000
      6 C5         -1.9131    0.6636    0.0186 C.2        1 <1>        0.000
      7 C6         -0.6131   -1.5246    0.0449 C.2        1 <1>        0.000
      8 C8          1.0320    2.6717    0.1041 C.2        1 <1>        0.000
      9 C9         -1.8957   -0.8080   -0.0312 C.3        1 <1>        0.000
     10 H           1.5007   -1.4128    0.0431 H.spc      1 <1>        0.000
     11 H          -0.9347    3.5566    0.4754 H.spc      1 <1>        0.000
     12 H          -2.8654    1.1921    0.0616 H.spc      1 <1>        0.000
     13 H          -0.6144   -2.6107    0.1368 H.spc      1 <1>        0.000
     14 H           1.6721    3.5457    0.2244 H.spc      1 <1>        0.000
     15 H          -2.2904   -1.0545   -1.0168 H.spc      1 <1>        0.000
     16 H          -2.4384   -1.1198    0.8612 H.spc      1 <1>        0.000
@<TRIPOS>BOND
     1    1    2 1  
     2    1    3 1  
     3    1    4 2  
     4    2    5 1  
     5    2    6 2  
     6    3    7 2  
     7    4    8 1  
     8    5    8 2  
     9    6    9 1  
    10    7    9 1  
    11    3   10 1  
    12    5   11 1  
    13    6   12 1  
    14    7   13 1  
    15    8   14 1  
    16    9   15 1  
    17    9   16 1  
# Name:          frag4-319-859/150395 -- energy: -0.893872
# Creation time: Sat Jun  5 12:53:30 2010


@<TRIPOS>MOLECULE
frag4-319-859/150395 -- energy: -0.893872
   16    17     1     1     1
SMALL
USER_CHARGES


@<TRIPOS>ATOM
      1 C1          0.5196    0.5879   -0.0954 C.2        1 <1>        0.000
      2 C2         -0.7606    1.3618    0.0114 C.2        1 <1>        0.000
      3 C3          0.5542   -0.8737    0.0039 C.2        1 <1>        0.000
      4 O1          1.4792    1.4518   -0.1939 O.3        1 <1>        0.000
      5 C4         -0.3149    2.6917    0.2390 C.2        1 <1>        0.000
      6 C5         -1.9131    0.6636    0.0186 C.2        1 <1>        0.000
      7 C6         -0.6131   -1.5246    0.0449 C.2        1 <1>        0.000
      8 C8          1.0320    2.6717    0.1041 C.2        1 <1>        0.000
      9 C9         -1.8957   -0.8080   -0.0312 C.3        1 <1>        0.000
     10 H           1.5007   -1.4128    0.0431 H.spc      1 <1>        0.000
     11 H          -0.9347    3.5566    0.4754 H.spc      1 <1>        0.000
     12 H          -2.8654    1.1921    0.0616 H.spc      1 <1>        0.000
     13 H          -0.6144   -2.6107    0.1368 H.spc      1 <1>        0.000
     14 H           1.6721    3.5457    0.2244 H.spc      1 <1>        0.000
     15 H          -2.2904   -1.0545   -1.0168 H.spc      1 <1>        0.000
     16 H          -2.4384   -1.1198    0.8612 H.spc      1 <1>        0.000
@<TRIPOS>BOND
     1    1    2 1  
     2    1    3 1  
     3    1    4 2  
     4    2    5 1  
     5    2    6 2  
     6    3    7 2  
     7    4    8 1  
     8    5    8 2  
     9    6    9 1  
    10    7    9 1  
    11    3   10 1  
    12    5   11 1  
    13    6   12 1  
    14    7   13 1  
    15    8   14 1  
    16    9   15 1  
    17    9   16 1  
