#      Rotatable Fragment
#      Build by yxyuan
#
# Name:          frag2-077-1/92655
# Creation time: Sat Jun  5 12:51:58 2010


@<TRIPOS>MOLECULE
frag2-077-1/92655
   14    15     1     1     1
SMALL
USER_CHARGES


@<TRIPOS>ATOM
      1 C5          1.4642    1.3462    0.1211 C.ar       1 <1>        0.000
      2 N2          2.5646    0.5340    0.1521 N.ar       1 <1>        0.000
      3 N3          2.4675   -0.7239    0.1049 N.ar       1 <1>        0.000
      4 C6          1.2680   -1.3784    0.0209 C.ar       1 <1>        0.000
      5 C7          0.0932   -0.6144   -0.0153 C.ar       1 <1>        0.000
      6 C8          0.1936    0.7600    0.0353 C.ar       1 <1>        0.000
      7 N4         -0.9334    1.5265    0.0015 N.ar       1 <1>        0.000
      8 C9         -2.1528    0.9404   -0.0819 C.ar       1 <1>        0.000
      9 N5         -2.2569   -0.4027   -0.1319 N.ar       1 <1>        0.000
     10 C10        -1.1765   -1.2060   -0.1015 C.ar       1 <1>        0.000
     11 H           1.5734    2.4299    0.1624 H.spc      1 <1>        0.000
     12 H           1.2274   -2.4670   -0.0169 H.spc      1 <1>        0.000
     13 H          -3.0515    1.5567   -0.1086 H.spc      1 <1>        0.000
     14 H          -1.2855   -2.2897   -0.1429 H.spc      1 <1>        0.000
@<TRIPOS>BOND
     1    1    2 ar 
     2    2    3 ar 
     3    1    6 ar 
     4    3    4 ar 
     5    4    5 ar 
     6    5    6 ar 
     7    5   10 ar 
     8    6    7 ar 
     9    7    8 ar 
    10    8    9 ar 
    11    9   10 ar 
    12    1   11 1  
    13    4   12 1  
    14    8   13 1  
    15   10   14 1  
# Name:          frag2-077-1/92655 -- energy: 0.233810
# Creation time: Sat Jun  5 12:51:58 2010


@<TRIPOS>MOLECULE
frag2-077-1/92655 -- energy: 0.233810
   14    15     1     1     1
SMALL
USER_CHARGES


@<TRIPOS>ATOM
      1 C5          1.4642    1.3462    0.1211 C.ar       1 <1>        0.000
      2 N2          2.5646    0.5340    0.1521 N.ar       1 <1>        0.000
      3 N3          2.4675   -0.7239    0.1049 N.ar       1 <1>        0.000
      4 C6          1.2680   -1.3784    0.0209 C.ar       1 <1>        0.000
      5 C7          0.0932   -0.6144   -0.0153 C.ar       1 <1>        0.000
      6 C8          0.1936    0.7600    0.0353 C.ar       1 <1>        0.000
      7 N4         -0.9334    1.5265    0.0015 N.ar       1 <1>        0.000
      8 C9         -2.1528    0.9404   -0.0819 C.ar       1 <1>        0.000
      9 N5         -2.2569   -0.4027   -0.1319 N.ar       1 <1>        0.000
     10 C10        -1.1765   -1.2060   -0.1015 C.ar       1 <1>        0.000
     11 H           1.5734    2.4299    0.1624 H.spc      1 <1>        0.000
     12 H           1.2274   -2.4670   -0.0169 H.spc      1 <1>        0.000
     13 H          -3.0515    1.5567   -0.1086 H.spc      1 <1>        0.000
     14 H          -1.2855   -2.2897   -0.1429 H.spc      1 <1>        0.000
@<TRIPOS>BOND
     1    1    2 ar 
     2    2    3 ar 
     3    1    6 ar 
     4    3    4 ar 
     5    4    5 ar 
     6    5    6 ar 
     7    5   10 ar 
     8    6    7 ar 
     9    7    8 ar 
    10    8    9 ar 
    11    9   10 ar 
    12    1   11 1  
    13    4   12 1  
    14    8   13 1  
    15   10   14 1  
