#      Rotatable Fragment
#      Build by yxyuan
#
# Name:          frag5-636-83/138278
# Creation time: Sat Jun  5 12:53:49 2010


@<TRIPOS>MOLECULE
frag5-636-83/138278
   19    20     1     1     1
SMALL
USER_CHARGES


@<TRIPOS>ATOM
      1 N1         -0.0833    0.6878   -0.0334 N.am       1 <1>        0.000
      2 C1         -0.1499    2.1194   -0.1776 C.3        1 <1>        0.000
      3 C2          1.0757   -0.0070   -0.0396 C.2        1 <1>        0.000
      4 C3         -1.3789    0.4089    0.0983 C.2        1 <1>        0.000
      5 C4         -1.6745    1.8893    0.0828 C.3        1 <1>        0.000
      6 S1          0.9075    2.8483    1.0769 S.3        1 <1>        0.000
      7 C5          2.2507    0.6395    0.0922 C.2        1 <1>        0.000
      8 C6          1.0540   -1.4819   -0.1553 C.2        1 <1>        0.000
      9 O1         -2.0578   -0.5906    0.2225 O.2        1 <1>        0.000
     10 C7          2.3961    2.1246    0.3316 C.3        1 <1>        0.000
     11 O2          0.1214   -2.1866    0.4981 O.3        1 <1>        0.000
     12 O3          1.8869   -2.0447   -0.8482 O.2        1 <1>        0.000
     13 H           0.1440    2.7552   -1.0127 H.spc      1 <1>        0.000
     14 H          -2.1906    2.3757    0.9106 H.spc      1 <1>        0.000
     15 H          -2.4346    2.3114   -0.5746 H.spc      1 <1>        0.000
     16 H           3.1633    0.0478    0.0209 H.spc      1 <1>        0.000
     17 H           3.2280    2.2773    1.0191 H.spc      1 <1>        0.000
     18 H           2.5629    2.6084   -0.6308 H.spc      1 <1>        0.000
     19 H          -0.4452   -1.5872    0.9893 H.spc      1 <1>        0.000
@<TRIPOS>BOND
     1    4    5 1  
     2    6   10 1  
     3    8   12 2  
     4    7   10 1  
     5    8   11 1  
     6    3    8 1  
     7    3    7 2  
     8    4    9 2  
     9    1    2 1  
    10    1    3 1  
    11    1    4 am 
    12    2    6 1  
    13    2    5 1  
    14    2   13 1  
    15    5   14 1  
    16    5   15 1  
    17    7   16 1  
    18   10   17 1  
    19   10   18 1  
    20   11   19 1  
# Name:          frag5-636-83/138278
# Creation time: Sat Jun  5 12:53:49 2010


@<TRIPOS>MOLECULE
frag5-636-83/138278
   19    20     1     1     1
SMALL
USER_CHARGES


@<TRIPOS>ATOM
      1 N1         -0.0971    0.6807    0.0177 N.am       1 <1>        0.000
      2 C1         -0.1934    2.1092   -0.1409 C.3        1 <1>        0.000
      3 C2          1.0624   -0.0034   -0.0924 C.2        1 <1>        0.000
      4 C3         -1.3710    0.3915    0.2819 C.2        1 <1>        0.000
      5 C4         -1.6820    1.8695    0.2711 C.3        1 <1>        0.000
      6 S1          0.9748    2.8687    0.9902 S.3        1 <1>        0.000
      7 C5          2.2385    0.6558   -0.0858 C.2        1 <1>        0.000
      8 C6          1.0459   -1.4803   -0.1804 C.2        1 <1>        0.000
      9 O1         -2.0230   -0.6108    0.4873 O.2        1 <1>        0.000
     10 C7          2.3900    2.1461    0.1138 C.3        1 <1>        0.000
     11 O2          0.2556   -2.0777   -1.0820 O.3        1 <1>        0.000
     12 O3          1.7472   -2.1422    0.5677 O.2        1 <1>        0.000
     13 H           0.0098    2.7344   -1.0104 H.spc      1 <1>        0.000
     14 H          -2.1195    2.3653    1.1376 H.spc      1 <1>        0.000
     15 H          -2.5070    2.2732   -0.3159 H.spc      1 <1>        0.000
     16 H           3.1462    0.0712   -0.2353 H.spc      1 <1>        0.000
     17 H           3.2838    2.3185    0.7134 H.spc      1 <1>        0.000
     18 H           2.4555    2.6146   -0.8682 H.spc      1 <1>        0.000
     19 H          -0.2208   -1.4099   -1.5807 H.spc      1 <1>        0.000
@<TRIPOS>BOND
     1    4    5 1  
     2    6   10 1  
     3    8   12 2  
     4    7   10 1  
     5    8   11 1  
     6    3    8 1  
     7    3    7 2  
     8    4    9 2  
     9    1    2 1  
    10    1    3 1  
    11    1    4 am 
    12    2    6 1  
    13    2    5 1  
    14    2   13 1  
    15    5   14 1  
    16    5   15 1  
    17    7   16 1  
    18   10   17 1  
    19   10   18 1  
    20   11   19 1  
# Name:          frag5-636-83/138278
# Creation time: Sat Jun  5 12:53:49 2010


@<TRIPOS>MOLECULE
frag5-636-83/138278
   19    20     1     1     1
SMALL
USER_CHARGES


@<TRIPOS>ATOM
      1 N1         -0.0747    0.6977   -0.0775 N.am       1 <1>        0.000
      2 C1         -0.0977    2.1301   -0.2229 C.3        1 <1>        0.000
      3 C2          1.0652   -0.0209    0.0310 C.2        1 <1>        0.000
      4 C3         -1.3820    0.4446   -0.0766 C.2        1 <1>        0.000
      5 C4         -1.6454    1.9309   -0.1162 C.3        1 <1>        0.000
      6 S1          0.8431    2.8357    1.1343 S.3        1 <1>        0.000
      7 C5          2.2334    0.6015    0.2804 C.2        1 <1>        0.000
      8 C6          1.0249   -1.4946   -0.0924 C.2        1 <1>        0.000
      9 O1         -2.0904   -0.5410   -0.0244 O.2        1 <1>        0.000
     10 C7          2.3842    2.0830    0.5389 C.3        1 <1>        0.000
     11 O2          1.8340   -2.2495    0.6607 O.3        1 <1>        0.000
     12 O3          0.2534   -2.0105   -0.8871 O.2        1 <1>        0.000
     13 H           0.2911    2.7606   -1.0226 H.spc      1 <1>        0.000
     14 H          -2.2317    2.4265    0.6576 H.spc      1 <1>        0.000
     15 H          -2.3279    2.3694   -0.8443 H.spc      1 <1>        0.000
     16 H           3.1367   -0.0083    0.2970 H.spc      1 <1>        0.000
     17 H           3.1460    2.2174    1.3068 H.spc      1 <1>        0.000
     18 H           2.6564    2.5651   -0.4000 H.spc      1 <1>        0.000
     19 H           2.3671   -1.6827    1.2229 H.spc      1 <1>        0.000
@<TRIPOS>BOND
     1    4    5 1  
     2    6   10 1  
     3    8   12 2  
     4    7   10 1  
     5    8   11 1  
     6    3    8 1  
     7    3    7 2  
     8    4    9 2  
     9    1    2 1  
    10    1    3 1  
    11    1    4 am 
    12    2    6 1  
    13    2    5 1  
    14    2   13 1  
    15    5   14 1  
    16    5   15 1  
    17    7   16 1  
    18   10   17 1  
    19   10   18 1  
    20   11   19 1  
# Name:          frag5-636-83/138278 -- energy: -0.493925
# Creation time: Sat Jun  5 12:53:49 2010


@<TRIPOS>MOLECULE
frag5-636-83/138278 -- energy: -0.493925
   19    20     1     1     1
SMALL
USER_CHARGES


@<TRIPOS>ATOM
      1 N1         -0.0833    0.6878   -0.0334 N.am       1 <1>        0.000
      2 C1         -0.1499    2.1194   -0.1776 C.3        1 <1>        0.000
      3 C2          1.0757   -0.0070   -0.0396 C.2        1 <1>        0.000
      4 C3         -1.3789    0.4089    0.0983 C.2        1 <1>        0.000
      5 C4         -1.6745    1.8893    0.0828 C.3        1 <1>        0.000
      6 S1          0.9075    2.8483    1.0769 S.3        1 <1>        0.000
      7 C5          2.2507    0.6395    0.0922 C.2        1 <1>        0.000
      8 C6          1.0540   -1.4819   -0.1553 C.2        1 <1>        0.000
      9 O1         -2.0578   -0.5906    0.2225 O.2        1 <1>        0.000
     10 C7          2.3961    2.1246    0.3316 C.3        1 <1>        0.000
     11 O2          0.1214   -2.1866    0.4981 O.3        1 <1>        0.000
     12 O3          1.8869   -2.0447   -0.8482 O.2        1 <1>        0.000
     13 H           0.1440    2.7552   -1.0127 H.spc      1 <1>        0.000
     14 H          -2.1906    2.3757    0.9106 H.spc      1 <1>        0.000
     15 H          -2.4346    2.3114   -0.5746 H.spc      1 <1>        0.000
     16 H           3.1633    0.0478    0.0209 H.spc      1 <1>        0.000
     17 H           3.2280    2.2773    1.0191 H.spc      1 <1>        0.000
     18 H           2.5629    2.6084   -0.6308 H.spc      1 <1>        0.000
     19 H          -0.4452   -1.5872    0.9893 H.spc      1 <1>        0.000
@<TRIPOS>BOND
     1    4    5 1  
     2    6   10 1  
     3    8   12 2  
     4    7   10 1  
     5    8   11 1  
     6    3    8 1  
     7    3    7 2  
     8    4    9 2  
     9    1    2 1  
    10    1    3 1  
    11    1    4 am 
    12    2    6 1  
    13    2    5 1  
    14    2   13 1  
    15    5   14 1  
    16    5   15 1  
    17    7   16 1  
    18   10   17 1  
    19   10   18 1  
    20   11   19 1  
# Name:          frag5-636-83/138278 -- energy: -2.476517
# Creation time: Sat Jun  5 12:53:49 2010


@<TRIPOS>MOLECULE
frag5-636-83/138278 -- energy: -2.476517
   19    20     1     1     1
SMALL
USER_CHARGES


@<TRIPOS>ATOM
      1 N1         -0.0971    0.6807    0.0177 N.am       1 <1>        0.000
      2 C1         -0.1934    2.1092   -0.1409 C.3        1 <1>        0.000
      3 C2          1.0624   -0.0034   -0.0924 C.2        1 <1>        0.000
      4 C3         -1.3710    0.3915    0.2819 C.2        1 <1>        0.000
      5 C4         -1.6820    1.8695    0.2711 C.3        1 <1>        0.000
      6 S1          0.9748    2.8687    0.9902 S.3        1 <1>        0.000
      7 C5          2.2385    0.6558   -0.0858 C.2        1 <1>        0.000
      8 C6          1.0459   -1.4803   -0.1804 C.2        1 <1>        0.000
      9 O1         -2.0230   -0.6108    0.4873 O.2        1 <1>        0.000
     10 C7          2.3900    2.1461    0.1138 C.3        1 <1>        0.000
     11 O2          0.2556   -2.0777   -1.0820 O.3        1 <1>        0.000
     12 O3          1.7472   -2.1422    0.5677 O.2        1 <1>        0.000
     13 H           0.0098    2.7344   -1.0104 H.spc      1 <1>        0.000
     14 H          -2.1195    2.3653    1.1376 H.spc      1 <1>        0.000
     15 H          -2.5070    2.2732   -0.3159 H.spc      1 <1>        0.000
     16 H           3.1462    0.0712   -0.2353 H.spc      1 <1>        0.000
     17 H           3.2838    2.3185    0.7134 H.spc      1 <1>        0.000
     18 H           2.4555    2.6146   -0.8682 H.spc      1 <1>        0.000
     19 H          -0.2208   -1.4099   -1.5807 H.spc      1 <1>        0.000
@<TRIPOS>BOND
     1    4    5 1  
     2    6   10 1  
     3    8   12 2  
     4    7   10 1  
     5    8   11 1  
     6    3    8 1  
     7    3    7 2  
     8    4    9 2  
     9    1    2 1  
    10    1    3 1  
    11    1    4 am 
    12    2    6 1  
    13    2    5 1  
    14    2   13 1  
    15    5   14 1  
    16    5   15 1  
    17    7   16 1  
    18   10   17 1  
    19   10   18 1  
    20   11   19 1  
# Name:          frag5-636-83/138278 -- energy: -2.053927
# Creation time: Sat Jun  5 12:53:49 2010


@<TRIPOS>MOLECULE
frag5-636-83/138278 -- energy: -2.053927
   19    20     1     1     1
SMALL
USER_CHARGES


@<TRIPOS>ATOM
      1 N1         -0.0747    0.6977   -0.0775 N.am       1 <1>        0.000
      2 C1         -0.0977    2.1301   -0.2229 C.3        1 <1>        0.000
      3 C2          1.0652   -0.0209    0.0310 C.2        1 <1>        0.000
      4 C3         -1.3820    0.4446   -0.0766 C.2        1 <1>        0.000
      5 C4         -1.6454    1.9309   -0.1162 C.3        1 <1>        0.000
      6 S1          0.8431    2.8357    1.1343 S.3        1 <1>        0.000
      7 C5          2.2334    0.6015    0.2804 C.2        1 <1>        0.000
      8 C6          1.0249   -1.4946   -0.0924 C.2        1 <1>        0.000
      9 O1         -2.0904   -0.5410   -0.0244 O.2        1 <1>        0.000
     10 C7          2.3842    2.0830    0.5389 C.3        1 <1>        0.000
     11 O2          1.8340   -2.2495    0.6607 O.3        1 <1>        0.000
     12 O3          0.2534   -2.0105   -0.8871 O.2        1 <1>        0.000
     13 H           0.2911    2.7606   -1.0226 H.spc      1 <1>        0.000
     14 H          -2.2317    2.4265    0.6576 H.spc      1 <1>        0.000
     15 H          -2.3279    2.3694   -0.8443 H.spc      1 <1>        0.000
     16 H           3.1367   -0.0083    0.2970 H.spc      1 <1>        0.000
     17 H           3.1460    2.2174    1.3068 H.spc      1 <1>        0.000
     18 H           2.6564    2.5651   -0.4000 H.spc      1 <1>        0.000
     19 H           2.3671   -1.6827    1.2229 H.spc      1 <1>        0.000
@<TRIPOS>BOND
     1    4    5 1  
     2    6   10 1  
     3    8   12 2  
     4    7   10 1  
     5    8   11 1  
     6    3    8 1  
     7    3    7 2  
     8    4    9 2  
     9    1    2 1  
    10    1    3 1  
    11    1    4 am 
    12    2    6 1  
    13    2    5 1  
    14    2   13 1  
    15    5   14 1  
    16    5   15 1  
    17    7   16 1  
    18   10   17 1  
    19   10   18 1  
    20   11   19 1  
