#      Rotatable Fragment
#      Build by yxyuan
#
# Name:          frag4-394-65/48856
# Creation time: Sat Jun  5 12:53:45 2010


@<TRIPOS>MOLECULE
frag4-394-65/48856
   28    29     1     1     1
SMALL
USER_CHARGES


@<TRIPOS>ATOM
      1 C6          1.6455    0.2568   -0.0024 C.3        1 <1>        0.000
      2 C7          2.8408    1.1218    0.4569 C.3        1 <1>        0.000
      3 C8          2.4744    2.1826    1.4845 C.3        1 <1>        0.000
      4 C9          3.6607    3.0352    1.9231 C.3        1 <1>        0.000
      5 C10         4.8175    2.1644    2.4173 C.3        1 <1>        0.000
      6 C11         5.2012    1.1123    1.3814 C.3        1 <1>        0.000
      7 C12         4.0207    0.2637    0.9185 C.3        1 <1>        0.000
      8 C13         4.4058   -0.7697   -0.1432 C.3        1 <1>        0.000
      9 C14         3.5186   -0.7378   -1.4114 C.3        1 <1>        0.000
     10 C15         2.0723   -0.7568   -1.0093 C.3        1 <1>        0.000
     11 H           0.8984    0.9073   -0.4572 H.spc      1 <1>        0.000
     12 H           1.2374   -0.2629    0.8645 H.spc      1 <1>        0.000
     13 H           3.1576    1.6732   -0.4284 H.spc      1 <1>        0.000
     14 H           2.0949    1.6681    2.3673 H.spc      1 <1>        0.000
     15 H           1.7437    2.8477    1.0243 H.spc      1 <1>        0.000
     16 H           4.0048    3.6174    1.0683 H.spc      1 <1>        0.000
     17 H           3.3401    3.6827    2.7393 H.spc      1 <1>        0.000
     18 H           4.5040    1.6556    3.3289 H.spc      1 <1>        0.000
     19 H           5.6810    2.8045    2.5980 H.spc      1 <1>        0.000
     20 H           5.9268    0.4433    1.8440 H.spc      1 <1>        0.000
     21 H           5.5930    1.6358    0.5093 H.spc      1 <1>        0.000
     22 H           3.6983   -0.2968    1.7960 H.spc      1 <1>        0.000
     23 H           5.4245   -0.5432   -0.4577 H.spc      1 <1>        0.000
     24 H           4.2859   -1.7545    0.3083 H.spc      1 <1>        0.000
     25 H           3.7267    0.1696   -1.9783 H.spc      1 <1>        0.000
     26 H           3.7359   -1.6090   -2.0294 H.spc      1 <1>        0.000
     27 H           1.9010   -1.7295   -0.5482 H.spc      1 <1>        0.000
     28 H           1.5055   -0.5388   -1.9145 H.spc      1 <1>        0.000
@<TRIPOS>BOND
     1    2    7 1  
     2    9   10 1  
     3    4    5 1  
     4    8    9 1  
     5    7    8 1  
     6    5    6 1  
     7    6    7 1  
     8    1    2 1  
     9    2    3 1  
    10    1   10 1  
    11    3    4 1  
    12    1   11 1  
    13    1   12 1  
    14    2   13 1  
    15    3   14 1  
    16    3   15 1  
    17    4   16 1  
    18    4   17 1  
    19    5   18 1  
    20    5   19 1  
    21    6   20 1  
    22    6   21 1  
    23    7   22 1  
    24    8   23 1  
    25    8   24 1  
    26    9   25 1  
    27    9   26 1  
    28   10   27 1  
    29   10   28 1  
# Name:          frag4-394-65/48856 -- energy: -3.555314
# Creation time: Sat Jun  5 12:53:45 2010


@<TRIPOS>MOLECULE
frag4-394-65/48856 -- energy: -3.555314
   28    29     1     1     1
SMALL
USER_CHARGES


@<TRIPOS>ATOM
      1 C6          1.6455    0.2568   -0.0024 C.3        1 <1>        0.000
      2 C7          2.8408    1.1218    0.4569 C.3        1 <1>        0.000
      3 C8          2.4744    2.1826    1.4845 C.3        1 <1>        0.000
      4 C9          3.6607    3.0352    1.9231 C.3        1 <1>        0.000
      5 C10         4.8175    2.1644    2.4173 C.3        1 <1>        0.000
      6 C11         5.2012    1.1123    1.3814 C.3        1 <1>        0.000
      7 C12         4.0207    0.2637    0.9185 C.3        1 <1>        0.000
      8 C13         4.4058   -0.7697   -0.1432 C.3        1 <1>        0.000
      9 C14         3.5186   -0.7378   -1.4114 C.3        1 <1>        0.000
     10 C15         2.0723   -0.7568   -1.0093 C.3        1 <1>        0.000
     11 H           0.8984    0.9073   -0.4572 H.spc      1 <1>        0.000
     12 H           1.2374   -0.2629    0.8645 H.spc      1 <1>        0.000
     13 H           3.1576    1.6732   -0.4284 H.spc      1 <1>        0.000
     14 H           2.0949    1.6681    2.3673 H.spc      1 <1>        0.000
     15 H           1.7437    2.8477    1.0243 H.spc      1 <1>        0.000
     16 H           4.0048    3.6174    1.0683 H.spc      1 <1>        0.000
     17 H           3.3401    3.6827    2.7393 H.spc      1 <1>        0.000
     18 H           4.5040    1.6556    3.3289 H.spc      1 <1>        0.000
     19 H           5.6810    2.8045    2.5980 H.spc      1 <1>        0.000
     20 H           5.9268    0.4433    1.8440 H.spc      1 <1>        0.000
     21 H           5.5930    1.6358    0.5093 H.spc      1 <1>        0.000
     22 H           3.6983   -0.2968    1.7960 H.spc      1 <1>        0.000
     23 H           5.4245   -0.5432   -0.4577 H.spc      1 <1>        0.000
     24 H           4.2859   -1.7545    0.3083 H.spc      1 <1>        0.000
     25 H           3.7267    0.1696   -1.9783 H.spc      1 <1>        0.000
     26 H           3.7359   -1.6090   -2.0294 H.spc      1 <1>        0.000
     27 H           1.9010   -1.7295   -0.5482 H.spc      1 <1>        0.000
     28 H           1.5055   -0.5388   -1.9145 H.spc      1 <1>        0.000
@<TRIPOS>BOND
     1    2    7 1  
     2    9   10 1  
     3    4    5 1  
     4    8    9 1  
     5    7    8 1  
     6    5    6 1  
     7    6    7 1  
     8    1    2 1  
     9    2    3 1  
    10    1   10 1  
    11    3    4 1  
    12    1   11 1  
    13    1   12 1  
    14    2   13 1  
    15    3   14 1  
    16    3   15 1  
    17    4   16 1  
    18    4   17 1  
    19    5   18 1  
    20    5   19 1  
    21    6   20 1  
    22    6   21 1  
    23    7   22 1  
    24    8   23 1  
    25    8   24 1  
    26    9   25 1  
    27    9   26 1  
    28   10   27 1  
    29   10   28 1  
