#      Rotatable Fragment
#      Build by yxyuan
#
# Name:          frag5-553-57/41815
# Creation time: Sat Jun  5 12:52:53 2010


@<TRIPOS>MOLECULE
frag5-553-57/41815
   15    15     1     1     1
SMALL
USER_CHARGES


@<TRIPOS>ATOM
      1 C15         2.1313   -0.3280   -0.0369 C.ar       1 <1>        0.000
      2 C16         1.2195   -1.3729   -0.1170 C.ar       1 <1>        0.000
      3 C17        -0.1452   -1.0971   -0.1645 C.ar       1 <1>        0.000
      4 C18        -0.6185    0.2219   -0.0968 C.ar       1 <1>        0.000
      5 C19         0.3165    1.2614   -0.0377 C.ar       1 <1>        0.000
      6 C20         1.6815    0.9872    0.0255 C.ar       1 <1>        0.000
      7 C21        -2.0568    0.5444   -0.0039 C.2        1 <1>        0.000
      8 O2         -2.4385    1.6820    0.1671 O.2        1 <1>        0.000
      9 O3         -2.7283   -0.6009   -0.0792 O.3        1 <1>        0.000
     10 H           3.2006   -0.5387   -0.0229 H.spc      1 <1>        0.000
     11 H           1.5704   -2.4045   -0.1426 H.spc      1 <1>        0.000
     12 H          -0.8560   -1.9184   -0.2556 H.spc      1 <1>        0.000
     13 H          -0.0263    2.2961   -0.0411 H.spc      1 <1>        0.000
     14 H           2.3971    1.8035    0.1239 H.spc      1 <1>        0.000
     15 H          -2.1121   -1.3230   -0.2221 H.spc      1 <1>        0.000
@<TRIPOS>BOND
     1    7    9 1  
     2    1    2 ar 
     3    1    6 ar 
     4    2    3 ar 
     5    3    4 ar 
     6    4    5 ar 
     7    4    7 1  
     8    5    6 ar 
     9    7    8 2  
    10    1   10 1  
    11    2   11 1  
    12    3   12 1  
    13    5   13 1  
    14    6   14 1  
    15    9   15 1  
# Name:          frag5-553-57/41815
# Creation time: Sat Jun  5 12:52:53 2010


@<TRIPOS>MOLECULE
frag5-553-57/41815
   15    15     1     1     1
SMALL
USER_CHARGES


@<TRIPOS>ATOM
      1 C15         2.1356   -0.3117   -0.1208 C.ar       1 <1>        0.000
      2 C16         1.6804    0.8721    0.4464 C.ar       1 <1>        0.000
      3 C17         0.3165    1.1187    0.5234 C.ar       1 <1>        0.000
      4 C18        -0.6208    0.2061    0.0032 C.ar       1 <1>        0.000
      5 C19        -0.1388   -0.9872   -0.5460 C.ar       1 <1>        0.000
      6 C20         1.2284   -1.2317   -0.6375 C.ar       1 <1>        0.000
      7 C21        -2.0616    0.4979   -0.0623 C.2        1 <1>        0.000
      8 O2         -2.5224    1.2556   -0.9005 O.2        1 <1>        0.000
      9 O3         -2.6560   -0.1219    0.9508 O.3        1 <1>        0.000
     10 H           3.2047   -0.5201   -0.1611 H.spc      1 <1>        0.000
     11 H           2.3913    1.6042    0.8294 H.spc      1 <1>        0.000
     12 H          -0.0353    2.0360    0.9954 H.spc      1 <1>        0.000
     13 H          -0.8439   -1.7358   -0.9072 H.spc      1 <1>        0.000
     14 H           1.5884   -2.1436   -1.1138 H.spc      1 <1>        0.000
     15 H          -2.0095   -0.6498    1.4251 H.spc      1 <1>        0.000
@<TRIPOS>BOND
     1    7    9 1  
     2    1    2 ar 
     3    1    6 ar 
     4    2    3 ar 
     5    3    4 ar 
     6    4    5 ar 
     7    4    7 1  
     8    5    6 ar 
     9    7    8 2  
    10    1   10 1  
    11    2   11 1  
    12    3   12 1  
    13    5   13 1  
    14    6   14 1  
    15    9   15 1  
# Name:          frag5-553-57/41815 -- energy: 0.038420
# Creation time: Sat Jun  5 12:52:53 2010


@<TRIPOS>MOLECULE
frag5-553-57/41815 -- energy: 0.038420
   15    15     1     1     1
SMALL
USER_CHARGES


@<TRIPOS>ATOM
      1 C15         2.1356   -0.3117   -0.1208 C.ar       1 <1>        0.000
      2 C16         1.6804    0.8721    0.4464 C.ar       1 <1>        0.000
      3 C17         0.3165    1.1187    0.5234 C.ar       1 <1>        0.000
      4 C18        -0.6208    0.2061    0.0032 C.ar       1 <1>        0.000
      5 C19        -0.1388   -0.9872   -0.5460 C.ar       1 <1>        0.000
      6 C20         1.2284   -1.2317   -0.6375 C.ar       1 <1>        0.000
      7 C21        -2.0616    0.4979   -0.0623 C.2        1 <1>        0.000
      8 O2         -2.5224    1.2556   -0.9005 O.2        1 <1>        0.000
      9 O3         -2.6560   -0.1219    0.9508 O.3        1 <1>        0.000
     10 H           3.2047   -0.5201   -0.1611 H.spc      1 <1>        0.000
     11 H           2.3913    1.6042    0.8294 H.spc      1 <1>        0.000
     12 H          -0.0353    2.0360    0.9954 H.spc      1 <1>        0.000
     13 H          -0.8439   -1.7358   -0.9072 H.spc      1 <1>        0.000
     14 H           1.5884   -2.1436   -1.1138 H.spc      1 <1>        0.000
     15 H          -2.0095   -0.6498    1.4251 H.spc      1 <1>        0.000
@<TRIPOS>BOND
     1    7    9 1  
     2    1    2 ar 
     3    1    6 ar 
     4    2    3 ar 
     5    3    4 ar 
     6    4    5 ar 
     7    4    7 1  
     8    5    6 ar 
     9    7    8 2  
    10    1   10 1  
    11    2   11 1  
    12    3   12 1  
    13    5   13 1  
    14    6   14 1  
    15    9   15 1  
