#      Rotatable Fragment
#      Build by yxyuan
#
# Name:          frag3-171-13/96164
# Creation time: Sat Jun  5 12:53:07 2010


@<TRIPOS>MOLECULE
frag3-171-13/96164
    7     6     1     1     1
SMALL
USER_CHARGES


@<TRIPOS>ATOM
      1 S1          1.4971    0.5119    0.3867 S.3        1 <1>        0.000
      2 C10         0.0716   -0.4231    0.2010 C.2        1 <1>        0.000
      3 N2         -1.0768    0.2626    0.3618 N.am       1 <1>        0.000
      4 O1         -0.0026   -1.6065   -0.1084 O.2        1 <1>        0.000
      5 H           1.1689    1.7545    0.7290 H.spc      1 <1>        0.000
      6 H          -1.9732   -0.2048    0.2261 H.spc      1 <1>        0.000
      7 H          -1.0499    1.2492    0.6192 H.spc      1 <1>        0.000
@<TRIPOS>BOND
     1    2    3 am 
     2    1    2 1  
     3    2    4 2  
     4    1    5 1  
     5    3    6 1  
     6    3    7 1  
# Name:          frag3-171-13/96164 -- energy: -0.142263
# Creation time: Sat Jun  5 12:53:07 2010


@<TRIPOS>MOLECULE
frag3-171-13/96164 -- energy: -0.142263
    7     6     1     1     1
SMALL
USER_CHARGES


@<TRIPOS>ATOM
      1 S1          1.4971    0.5119    0.3867 S.3        1 <1>        0.000
      2 C10         0.0716   -0.4231    0.2010 C.2        1 <1>        0.000
      3 N2         -1.0768    0.2626    0.3618 N.am       1 <1>        0.000
      4 O1         -0.0026   -1.6065   -0.1084 O.2        1 <1>        0.000
      5 H           1.1689    1.7545    0.7290 H.spc      1 <1>        0.000
      6 H          -1.9732   -0.2048    0.2261 H.spc      1 <1>        0.000
      7 H          -1.0499    1.2492    0.6192 H.spc      1 <1>        0.000
@<TRIPOS>BOND
     1    2    3 am 
     2    1    2 1  
     3    2    4 2  
     4    1    5 1  
     5    3    6 1  
     6    3    7 1  
