#      Rotatable Fragment
#      Build by yxyuan
#
# Name:          frag4-401-59/48856
# Creation time: Sat Jun  5 12:53:50 2010


@<TRIPOS>MOLECULE
frag4-401-59/48856
   19    20     1     1     1
SMALL
USER_CHARGES


@<TRIPOS>ATOM
      1 C1         -0.3222    0.8516   -0.9148 C.3        1 <1>        0.000
      2 C2         -0.2820   -0.1136    0.2939 C.3        1 <1>        0.000
      3 C3          0.8109    0.5109    1.1945 C.3        1 <1>        0.000
      4 C4          1.8137    1.0461    0.1574 C.3        1 <1>        0.000
      5 C5          0.7492    1.9057   -0.5466 C.3        1 <1>        0.000
      6 C6          0.2246    2.7840    0.6148 C.3        1 <1>        0.000
      7 C7          0.2707    1.8180    1.8226 C.3        1 <1>        0.000
      8 H          -1.3080    1.2872   -1.0776 H.spc      1 <1>        0.000
      9 H          -0.1194    0.3534   -1.8628 H.spc      1 <1>        0.000
     10 H          -0.0604   -1.1420    0.0087 H.spc      1 <1>        0.000
     11 H          -1.2450   -0.2049    0.7964 H.spc      1 <1>        0.000
     12 H           1.1691   -0.1895    1.9490 H.spc      1 <1>        0.000
     13 H           2.7180    1.5363    0.5181 H.spc      1 <1>        0.000
     14 H           2.3738    0.3261   -0.4392 H.spc      1 <1>        0.000
     15 H           1.0505    2.5025   -1.4075 H.spc      1 <1>        0.000
     16 H           0.8198    3.6842    0.7684 H.spc      1 <1>        0.000
     17 H          -0.7725    3.1829    0.4283 H.spc      1 <1>        0.000
     18 H           0.8937    2.1866    2.6376 H.spc      1 <1>        0.000
     19 H          -0.7003    1.6896    2.3009 H.spc      1 <1>        0.000
@<TRIPOS>BOND
     1    4    5 1  
     2    3    7 1  
     3    6    7 1  
     4    5    6 1  
     5    3    4 1  
     6    1    2 1  
     7    1    5 1  
     8    2    3 1  
     9    1    8 1  
    10    1    9 1  
    11    2   10 1  
    12    2   11 1  
    13    3   12 1  
    14    4   13 1  
    15    4   14 1  
    16    5   15 1  
    17    6   16 1  
    18    6   17 1  
    19    7   18 1  
    20    7   19 1  
# Name:          frag4-401-59/48856 -- energy: -1.778251
# Creation time: Sat Jun  5 12:53:50 2010


@<TRIPOS>MOLECULE
frag4-401-59/48856 -- energy: -1.778251
   19    20     1     1     1
SMALL
USER_CHARGES


@<TRIPOS>ATOM
      1 C1         -0.3222    0.8516   -0.9148 C.3        1 <1>        0.000
      2 C2         -0.2820   -0.1136    0.2939 C.3        1 <1>        0.000
      3 C3          0.8109    0.5109    1.1945 C.3        1 <1>        0.000
      4 C4          1.8137    1.0461    0.1574 C.3        1 <1>        0.000
      5 C5          0.7492    1.9057   -0.5466 C.3        1 <1>        0.000
      6 C6          0.2246    2.7840    0.6148 C.3        1 <1>        0.000
      7 C7          0.2707    1.8180    1.8226 C.3        1 <1>        0.000
      8 H          -1.3080    1.2872   -1.0776 H.spc      1 <1>        0.000
      9 H          -0.1194    0.3534   -1.8628 H.spc      1 <1>        0.000
     10 H          -0.0604   -1.1420    0.0087 H.spc      1 <1>        0.000
     11 H          -1.2450   -0.2049    0.7964 H.spc      1 <1>        0.000
     12 H           1.1691   -0.1895    1.9490 H.spc      1 <1>        0.000
     13 H           2.7180    1.5363    0.5181 H.spc      1 <1>        0.000
     14 H           2.3738    0.3261   -0.4392 H.spc      1 <1>        0.000
     15 H           1.0505    2.5025   -1.4075 H.spc      1 <1>        0.000
     16 H           0.8198    3.6842    0.7684 H.spc      1 <1>        0.000
     17 H          -0.7725    3.1829    0.4283 H.spc      1 <1>        0.000
     18 H           0.8937    2.1866    2.6376 H.spc      1 <1>        0.000
     19 H          -0.7003    1.6896    2.3009 H.spc      1 <1>        0.000
@<TRIPOS>BOND
     1    4    5 1  
     2    3    7 1  
     3    6    7 1  
     4    5    6 1  
     5    3    4 1  
     6    1    2 1  
     7    1    5 1  
     8    2    3 1  
     9    1    8 1  
    10    1    9 1  
    11    2   10 1  
    12    2   11 1  
    13    3   12 1  
    14    4   13 1  
    15    4   14 1  
    16    5   15 1  
    17    6   16 1  
    18    6   17 1  
    19    7   18 1  
    20    7   19 1  
