#      Rotatable Fragment
#      Build by yxyuan
#
# Name:          frag4-467-35/48856
# Creation time: Sat Jun  5 12:52:48 2010


@<TRIPOS>MOLECULE
frag4-467-35/48856
   17    17     1     1     1
SMALL
USER_CHARGES


@<TRIPOS>ATOM
      1 N1         -1.2429    0.2564   -0.3569 N.3        1 <1>        0.000
      2 C12        -0.6811    0.3099   -1.6687 C.3        1 <1>        0.000
      3 C13        -1.0903    1.5345   -2.4740 C.3        1 <1>        0.000
      4 C14        -1.0538    2.7986   -1.6269 C.3        1 <1>        0.000
      5 C15        -0.7324    2.6897   -0.1615 C.3        1 <1>        0.000
      6 C16        -1.3618    1.4521    0.3692 C.3        1 <1>        0.000
      7 H          -0.6012   -0.3223    0.1850 H.spc      1 <1>        0.000
      8 H          -1.0423   -0.5652   -2.2088 H.spc      1 <1>        0.000
      9 H           0.4020    0.3487   -1.5530 H.spc      1 <1>        0.000
     10 H          -2.1098    1.3878   -2.8306 H.spc      1 <1>        0.000
     11 H          -0.3900    1.6532   -3.3008 H.spc      1 <1>        0.000
     12 H          -2.0713    3.1878   -1.6617 H.spc      1 <1>        0.000
     13 H          -0.2430    3.3935   -2.0474 H.spc      1 <1>        0.000
     14 H           0.3475    2.6479   -0.0197 H.spc      1 <1>        0.000
     15 H          -1.1179    3.5601    0.3695 H.spc      1 <1>        0.000
     16 H          -2.4306    1.6659    0.3810 H.spc      1 <1>        0.000
     17 H          -0.8469    1.2591    1.3103 H.spc      1 <1>        0.000
@<TRIPOS>BOND
     1    5    6 1  
     2    1    2 1  
     3    1    6 1  
     4    2    3 1  
     5    3    4 1  
     6    4    5 1  
     7    1    7 1  
     8    2    8 1  
     9    2    9 1  
    10    3   10 1  
    11    3   11 1  
    12    4   12 1  
    13    4   13 1  
    14    5   14 1  
    15    5   15 1  
    16    6   16 1  
    17    6   17 1  
# Name:          frag4-467-35/48856 -- energy: -1.023940
# Creation time: Sat Jun  5 12:52:48 2010


@<TRIPOS>MOLECULE
frag4-467-35/48856 -- energy: -1.023940
   17    17     1     1     1
SMALL
USER_CHARGES


@<TRIPOS>ATOM
      1 N1         -1.2429    0.2564   -0.3569 N.3        1 <1>        0.000
      2 C12        -0.6811    0.3099   -1.6687 C.3        1 <1>        0.000
      3 C13        -1.0903    1.5345   -2.4740 C.3        1 <1>        0.000
      4 C14        -1.0538    2.7986   -1.6269 C.3        1 <1>        0.000
      5 C15        -0.7324    2.6897   -0.1615 C.3        1 <1>        0.000
      6 C16        -1.3618    1.4521    0.3692 C.3        1 <1>        0.000
      7 H          -0.6012   -0.3223    0.1850 H.spc      1 <1>        0.000
      8 H          -1.0423   -0.5652   -2.2088 H.spc      1 <1>        0.000
      9 H           0.4020    0.3487   -1.5530 H.spc      1 <1>        0.000
     10 H          -2.1098    1.3878   -2.8306 H.spc      1 <1>        0.000
     11 H          -0.3900    1.6532   -3.3008 H.spc      1 <1>        0.000
     12 H          -2.0713    3.1878   -1.6617 H.spc      1 <1>        0.000
     13 H          -0.2430    3.3935   -2.0474 H.spc      1 <1>        0.000
     14 H           0.3475    2.6479   -0.0197 H.spc      1 <1>        0.000
     15 H          -1.1179    3.5601    0.3695 H.spc      1 <1>        0.000
     16 H          -2.4306    1.6659    0.3810 H.spc      1 <1>        0.000
     17 H          -0.8469    1.2591    1.3103 H.spc      1 <1>        0.000
@<TRIPOS>BOND
     1    5    6 1  
     2    1    2 1  
     3    1    6 1  
     4    2    3 1  
     5    3    4 1  
     6    4    5 1  
     7    1    7 1  
     8    2    8 1  
     9    2    9 1  
    10    3   10 1  
    11    3   11 1  
    12    4   12 1  
    13    4   13 1  
    14    5   14 1  
    15    5   15 1  
    16    6   16 1  
    17    6   17 1  
