#      Rotatable Fragment
#      Build by yxyuan
#
# Name:          frag3-181-11/96164
# Creation time: Sat Jun  5 12:53:08 2010


@<TRIPOS>MOLECULE
frag3-181-11/96164
   12    11     1     1     1
SMALL
USER_CHARGES


@<TRIPOS>ATOM
      1 N4          1.5136    0.5697   -0.4381 N.pl3      1 <1>        0.000
      2 C23         0.5392   -0.2934    0.0372 C.2        1 <1>        0.000
      3 C25         1.0658   -1.7056    0.4894 C.2        1 <1>        0.000
      4 N5         -0.7189   -0.0143    0.1733 N.2        1 <1>        0.000
      5 N6          2.1692   -1.8249    1.2826 N.pl3      1 <1>        0.000
      6 N7          0.4379   -2.7143   -0.0046 N.2        1 <1>        0.000
      7 H           1.2627    1.5182   -0.7170 H.spc      1 <1>        0.000
      8 H           2.4817    0.2565   -0.5091 H.spc      1 <1>        0.000
      9 H          -1.3549   -0.7063    0.5696 H.spc      1 <1>        0.000
     10 H           2.5356   -2.7490    1.5110 H.spc      1 <1>        0.000
     11 H           2.6278   -0.9900    1.6473 H.spc      1 <1>        0.000
     12 H           0.7607   -3.6618    0.1913 H.spc      1 <1>        0.000
@<TRIPOS>BOND
     1    1    2 1  
     2    2    3 1  
     3    2    4 2  
     4    3    5 1  
     5    3    6 2  
     6    1    7 1  
     7    1    8 1  
     8    4    9 1  
     9    5   10 1  
    10    5   11 1  
    11    6   12 1  
# Name:          frag3-181-11/96164
# Creation time: Sat Jun  5 12:53:08 2010


@<TRIPOS>MOLECULE
frag3-181-11/96164
   12    11     1     1     1
SMALL
USER_CHARGES


@<TRIPOS>ATOM
      1 N4          1.0001    0.2192   -1.1454 N.pl3      1 <1>        0.000
      2 C23         0.5385   -0.2997    0.0465 C.2        1 <1>        0.000
      3 C25         1.0521   -1.7217    0.4704 C.2        1 <1>        0.000
      4 N5         -0.2078    0.3389    0.8790 N.2        1 <1>        0.000
      5 N6          1.3518   -1.9708    1.7695 N.pl3      1 <1>        0.000
      6 N7          1.2721   -2.5487   -0.4801 N.2        1 <1>        0.000
      7 H           0.7526    1.1706   -1.4173 H.spc      1 <1>        0.000
      8 H           1.5889   -0.3486   -1.7548 H.spc      1 <1>        0.000
      9 H          -0.4455   -0.0817    1.7773 H.spc      1 <1>        0.000
     10 H           1.7774   -2.8594    2.0334 H.spc      1 <1>        0.000
     11 H           1.1516   -1.2695    2.4826 H.spc      1 <1>        0.000
     12 H           1.6959   -3.4547   -0.2800 H.spc      1 <1>        0.000
@<TRIPOS>BOND
     1    1    2 1  
     2    2    3 1  
     3    2    4 2  
     4    3    5 1  
     5    3    6 2  
     6    1    7 1  
     7    1    8 1  
     8    4    9 1  
     9    5   10 1  
    10    5   11 1  
    11    6   12 1  
# Name:          frag3-181-11/96164
# Creation time: Sat Jun  5 12:53:08 2010


@<TRIPOS>MOLECULE
frag3-181-11/96164
   12    11     1     1     1
SMALL
USER_CHARGES


@<TRIPOS>ATOM
      1 N4          1.1147    0.7644    0.6202 N.pl3      1 <1>        0.000
      2 C23         0.5796   -0.3094    0.0198 C.2        1 <1>        0.000
      3 C25         1.0612   -1.6950    0.4778 C.2        1 <1>        0.000
      4 N5         -0.2993   -0.2693   -0.8996 N.2        1 <1>        0.000
      5 N6          2.3299   -2.0850    0.1755 N.pl3      1 <1>        0.000
      6 N7          0.2207   -2.3884    1.1461 N.2        1 <1>        0.000
      7 H           0.8200    1.7017    0.3461 H.spc      1 <1>        0.000
      8 H           1.8162    0.6435    1.3507 H.spc      1 <1>        0.000
      9 H          -0.6560   -1.1359   -1.3023 H.spc      1 <1>        0.000
     10 H           2.6725   -2.9932    0.4887 H.spc      1 <1>        0.000
     11 H           2.9379   -1.4690   -0.3642 H.spc      1 <1>        0.000
     12 H           0.4837   -3.3095    1.4966 H.spc      1 <1>        0.000
@<TRIPOS>BOND
     1    1    2 1  
     2    2    3 1  
     3    2    4 2  
     4    3    5 1  
     5    3    6 2  
     6    1    7 1  
     7    1    8 1  
     8    4    9 1  
     9    5   10 1  
    10    5   11 1  
    11    6   12 1  
# Name:          frag3-181-11/96164
# Creation time: Sat Jun  5 12:53:08 2010


@<TRIPOS>MOLECULE
frag3-181-11/96164
   12    11     1     1     1
SMALL
USER_CHARGES


@<TRIPOS>ATOM
      1 N4          0.4734   -2.3555    1.4771 N.pl3      1 <1>        0.000
      2 C23         1.1020   -1.6969    0.4672 C.2        1 <1>        0.000
      3 C25         0.5633   -0.2979    0.0458 C.2        1 <1>        0.000
      4 N5          2.1175   -2.1143   -0.1795 N.2        1 <1>        0.000
      5 N6          0.4704   -0.0184   -1.2732 N.pl3      1 <1>        0.000
      6 N7          0.2803    0.5004    1.0025 N.2        1 <1>        0.000
      7 H           0.8111   -3.2699    1.7776 H.spc      1 <1>        0.000
      8 H          -0.3358   -1.9352    1.9342 H.spc      1 <1>        0.000
      9 H           2.5228   -1.5400   -0.9186 H.spc      1 <1>        0.000
     10 H           0.1499    0.9006   -1.5785 H.spc      1 <1>        0.000
     11 H           0.7208   -0.7264   -1.9634 H.spc      1 <1>        0.000
     12 H          -0.0492    1.4440    0.7988 H.spc      1 <1>        0.000
@<TRIPOS>BOND
     1    1    2 1  
     2    2    3 1  
     3    2    4 2  
     4    3    5 1  
     5    3    6 2  
     6    1    7 1  
     7    1    8 1  
     8    4    9 1  
     9    5   10 1  
    10    5   11 1  
    11    6   12 1  
# Name:          frag3-181-11/96164 -- energy: -0.825888
# Creation time: Sat Jun  5 12:53:08 2010


@<TRIPOS>MOLECULE
frag3-181-11/96164 -- energy: -0.825888
   12    11     1     1     1
SMALL
USER_CHARGES


@<TRIPOS>ATOM
      1 N4          1.5136    0.5697   -0.4381 N.pl3      1 <1>        0.000
      2 C23         0.5392   -0.2934    0.0372 C.2        1 <1>        0.000
      3 C25         1.0658   -1.7056    0.4894 C.2        1 <1>        0.000
      4 N5         -0.7189   -0.0143    0.1733 N.2        1 <1>        0.000
      5 N6          2.1692   -1.8249    1.2826 N.pl3      1 <1>        0.000
      6 N7          0.4379   -2.7143   -0.0046 N.2        1 <1>        0.000
      7 H           1.2627    1.5182   -0.7170 H.spc      1 <1>        0.000
      8 H           2.4817    0.2565   -0.5091 H.spc      1 <1>        0.000
      9 H          -1.3549   -0.7063    0.5696 H.spc      1 <1>        0.000
     10 H           2.5356   -2.7490    1.5110 H.spc      1 <1>        0.000
     11 H           2.6278   -0.9900    1.6473 H.spc      1 <1>        0.000
     12 H           0.7607   -3.6618    0.1913 H.spc      1 <1>        0.000
@<TRIPOS>BOND
     1    1    2 1  
     2    2    3 1  
     3    2    4 2  
     4    3    5 1  
     5    3    6 2  
     6    1    7 1  
     7    1    8 1  
     8    4    9 1  
     9    5   10 1  
    10    5   11 1  
    11    6   12 1  
# Name:          frag3-181-11/96164 -- energy: -0.704328
# Creation time: Sat Jun  5 12:53:08 2010


@<TRIPOS>MOLECULE
frag3-181-11/96164 -- energy: -0.704328
   12    11     1     1     1
SMALL
USER_CHARGES


@<TRIPOS>ATOM
      1 N4          1.0001    0.2192   -1.1454 N.pl3      1 <1>        0.000
      2 C23         0.5385   -0.2997    0.0465 C.2        1 <1>        0.000
      3 C25         1.0521   -1.7217    0.4704 C.2        1 <1>        0.000
      4 N5         -0.2078    0.3389    0.8790 N.2        1 <1>        0.000
      5 N6          1.3518   -1.9708    1.7695 N.pl3      1 <1>        0.000
      6 N7          1.2721   -2.5487   -0.4801 N.2        1 <1>        0.000
      7 H           0.7526    1.1706   -1.4173 H.spc      1 <1>        0.000
      8 H           1.5889   -0.3486   -1.7548 H.spc      1 <1>        0.000
      9 H          -0.4455   -0.0817    1.7773 H.spc      1 <1>        0.000
     10 H           1.7774   -2.8594    2.0334 H.spc      1 <1>        0.000
     11 H           1.1516   -1.2695    2.4826 H.spc      1 <1>        0.000
     12 H           1.6959   -3.4547   -0.2800 H.spc      1 <1>        0.000
@<TRIPOS>BOND
     1    1    2 1  
     2    2    3 1  
     3    2    4 2  
     4    3    5 1  
     5    3    6 2  
     6    1    7 1  
     7    1    8 1  
     8    4    9 1  
     9    5   10 1  
    10    5   11 1  
    11    6   12 1  
# Name:          frag3-181-11/96164 -- energy: -0.796470
# Creation time: Sat Jun  5 12:53:08 2010


@<TRIPOS>MOLECULE
frag3-181-11/96164 -- energy: -0.796470
   12    11     1     1     1
SMALL
USER_CHARGES


@<TRIPOS>ATOM
      1 N4          1.1147    0.7644    0.6202 N.pl3      1 <1>        0.000
      2 C23         0.5796   -0.3094    0.0198 C.2        1 <1>        0.000
      3 C25         1.0612   -1.6950    0.4778 C.2        1 <1>        0.000
      4 N5         -0.2993   -0.2693   -0.8996 N.2        1 <1>        0.000
      5 N6          2.3299   -2.0850    0.1755 N.pl3      1 <1>        0.000
      6 N7          0.2207   -2.3884    1.1461 N.2        1 <1>        0.000
      7 H           0.8200    1.7017    0.3461 H.spc      1 <1>        0.000
      8 H           1.8162    0.6435    1.3507 H.spc      1 <1>        0.000
      9 H          -0.6560   -1.1359   -1.3023 H.spc      1 <1>        0.000
     10 H           2.6725   -2.9932    0.4887 H.spc      1 <1>        0.000
     11 H           2.9379   -1.4690   -0.3642 H.spc      1 <1>        0.000
     12 H           0.4837   -3.3095    1.4966 H.spc      1 <1>        0.000
@<TRIPOS>BOND
     1    1    2 1  
     2    2    3 1  
     3    2    4 2  
     4    3    5 1  
     5    3    6 2  
     6    1    7 1  
     7    1    8 1  
     8    4    9 1  
     9    5   10 1  
    10    5   11 1  
    11    6   12 1  
# Name:          frag3-181-11/96164 -- energy: -0.750691
# Creation time: Sat Jun  5 12:53:08 2010


@<TRIPOS>MOLECULE
frag3-181-11/96164 -- energy: -0.750691
   12    11     1     1     1
SMALL
USER_CHARGES


@<TRIPOS>ATOM
      1 N4          0.4734   -2.3555    1.4771 N.pl3      1 <1>        0.000
      2 C23         1.1020   -1.6969    0.4672 C.2        1 <1>        0.000
      3 C25         0.5633   -0.2979    0.0458 C.2        1 <1>        0.000
      4 N5          2.1175   -2.1143   -0.1795 N.2        1 <1>        0.000
      5 N6          0.4704   -0.0184   -1.2732 N.pl3      1 <1>        0.000
      6 N7          0.2803    0.5004    1.0025 N.2        1 <1>        0.000
      7 H           0.8111   -3.2699    1.7776 H.spc      1 <1>        0.000
      8 H          -0.3358   -1.9352    1.9342 H.spc      1 <1>        0.000
      9 H           2.5228   -1.5400   -0.9186 H.spc      1 <1>        0.000
     10 H           0.1499    0.9006   -1.5785 H.spc      1 <1>        0.000
     11 H           0.7208   -0.7264   -1.9634 H.spc      1 <1>        0.000
     12 H          -0.0492    1.4440    0.7988 H.spc      1 <1>        0.000
@<TRIPOS>BOND
     1    1    2 1  
     2    2    3 1  
     3    2    4 2  
     4    3    5 1  
     5    3    6 2  
     6    1    7 1  
     7    1    8 1  
     8    4    9 1  
     9    5   10 1  
    10    5   11 1  
    11    6   12 1  
