#      Rotatable Fragment
#      Build by yxyuan
#
# Name:          frag4-359-359/150395
# Creation time: Sat Jun  5 12:53:32 2010


@<TRIPOS>MOLECULE
frag4-359-359/150395
   36    39     1     1     1
SMALL
USER_CHARGES


@<TRIPOS>ATOM
      1 C1          1.9173    1.5729   -0.1877 C.ar       1 <1>        0.000
      2 C2          1.9158    0.1491   -0.1228 C.ar       1 <1>        0.000
      3 C3          0.7050    2.2010   -0.4559 C.ar       1 <1>        0.000
      4 C4          3.1795    2.3219   -0.0547 C.3        1 <1>        0.000
      5 C5          3.2114   -0.5453    0.0231 C.3        1 <1>        0.000
      6 C6          0.6642   -0.4798   -0.0628 C.ar       1 <1>        0.000
      7 C7         -0.5033    1.5514   -0.3872 C.ar       1 <1>        0.000
      8 C14        -1.8395   -0.4430   -0.0514 C.3        1 <1>        0.000
      9 C8          4.0152    1.6368    0.9952 C.3        1 <1>        0.000
     10 C9          4.0731    0.1248    1.0624 C.3        1 <1>        0.000
     11 C10        -0.5286    0.2080   -0.1424 C.ar       1 <1>        0.000
     12 C11        -1.7791    2.2464   -0.5312 C.3        1 <1>        0.000
     13 C15        -3.0929    1.6235   -0.3541 C.ar       1 <1>        0.000
     14 C18        -3.1267    0.2592   -0.1093 C.ar       1 <1>        0.000
     15 C19        -4.2791    2.3557   -0.4436 C.ar       1 <1>        0.000
     16 C22        -4.3429   -0.3814    0.1464 C.ar       1 <1>        0.000
     17 C23        -5.5028    1.7077   -0.2472 C.ar       1 <1>        0.000
     18 C26        -5.5360    0.3470    0.0464 C.ar       1 <1>        0.000
     19 H           0.7146    3.2552   -0.7328 H.spc      1 <1>        0.000
     20 H           2.9781    3.3529    0.2362 H.spc      1 <1>        0.000
     21 H           3.7098    2.3405   -1.0068 H.spc      1 <1>        0.000
     22 H           3.7326   -0.5153   -0.9338 H.spc      1 <1>        0.000
     23 H           3.0231   -1.5723    0.3360 H.spc      1 <1>        0.000
     24 H           0.6323   -1.5633    0.0522 H.spc      1 <1>        0.000
     25 H          -1.8629   -1.0511   -0.9557 H.spc      1 <1>        0.000
     26 H          -1.8343   -0.8404    0.9636 H.spc      1 <1>        0.000
     27 H           5.0374    1.9353    0.7626 H.spc      1 <1>        0.000
     28 H           3.5559    1.9308    1.9390 H.spc      1 <1>        0.000
     29 H           3.7060   -0.1779    2.0430 H.spc      1 <1>        0.000
     30 H           5.1051   -0.1760    0.8817 H.spc      1 <1>        0.000
     31 H          -1.7849    2.5096   -1.5889 H.spc      1 <1>        0.000
     32 H          -1.7482    2.9656    0.2872 H.spc      1 <1>        0.000
     33 H          -4.2512    3.4227   -0.6646 H.spc      1 <1>        0.000
     34 H          -4.3629   -1.4362    0.4206 H.spc      1 <1>        0.000
     35 H          -6.4336    2.2697   -0.3242 H.spc      1 <1>        0.000
     36 H          -6.4925   -0.1530    0.1989 H.spc      1 <1>        0.000
@<TRIPOS>BOND
     1    2    5 1  
     2    1    4 1  
     3    1    2 ar 
     4    7   11 ar 
     5    6   11 ar 
     6    9   10 1  
     7    5   10 1  
     8    1    3 ar 
     9    2    6 ar 
    10    4    9 1  
    11    3    7 ar 
    12    7   12 1  
    13   17   18 ar 
    14   16   18 ar 
    15   15   17 ar 
    16   14   16 ar 
    17   13   14 ar 
    18   13   15 ar 
    19    8   14 1  
    20   12   13 1  
    21   11    8 1  
    22    3   19 1  
    23    4   20 1  
    24    4   21 1  
    25    5   22 1  
    26    5   23 1  
    27    6   24 1  
    28    8   25 1  
    29    8   26 1  
    30    9   27 1  
    31    9   28 1  
    32   10   29 1  
    33   10   30 1  
    34   12   31 1  
    35   12   32 1  
    36   15   33 1  
    37   16   34 1  
    38   17   35 1  
    39   18   36 1  
# Name:          frag4-359-359/150395 -- energy: -3.052726
# Creation time: Sat Jun  5 12:53:32 2010


@<TRIPOS>MOLECULE
frag4-359-359/150395 -- energy: -3.052726
   36    39     1     1     1
SMALL
USER_CHARGES


@<TRIPOS>ATOM
      1 C1          1.9173    1.5729   -0.1877 C.ar       1 <1>        0.000
      2 C2          1.9158    0.1491   -0.1228 C.ar       1 <1>        0.000
      3 C3          0.7050    2.2010   -0.4559 C.ar       1 <1>        0.000
      4 C4          3.1795    2.3219   -0.0547 C.3        1 <1>        0.000
      5 C5          3.2114   -0.5453    0.0231 C.3        1 <1>        0.000
      6 C6          0.6642   -0.4798   -0.0628 C.ar       1 <1>        0.000
      7 C7         -0.5033    1.5514   -0.3872 C.ar       1 <1>        0.000
      8 C14        -1.8395   -0.4430   -0.0514 C.3        1 <1>        0.000
      9 C8          4.0152    1.6368    0.9952 C.3        1 <1>        0.000
     10 C9          4.0731    0.1248    1.0624 C.3        1 <1>        0.000
     11 C10        -0.5286    0.2080   -0.1424 C.ar       1 <1>        0.000
     12 C11        -1.7791    2.2464   -0.5312 C.3        1 <1>        0.000
     13 C15        -3.0929    1.6235   -0.3541 C.ar       1 <1>        0.000
     14 C18        -3.1267    0.2592   -0.1093 C.ar       1 <1>        0.000
     15 C19        -4.2791    2.3557   -0.4436 C.ar       1 <1>        0.000
     16 C22        -4.3429   -0.3814    0.1464 C.ar       1 <1>        0.000
     17 C23        -5.5028    1.7077   -0.2472 C.ar       1 <1>        0.000
     18 C26        -5.5360    0.3470    0.0464 C.ar       1 <1>        0.000
     19 H           0.7146    3.2552   -0.7328 H.spc      1 <1>        0.000
     20 H           2.9781    3.3529    0.2362 H.spc      1 <1>        0.000
     21 H           3.7098    2.3405   -1.0068 H.spc      1 <1>        0.000
     22 H           3.7326   -0.5153   -0.9338 H.spc      1 <1>        0.000
     23 H           3.0231   -1.5723    0.3360 H.spc      1 <1>        0.000
     24 H           0.6323   -1.5633    0.0522 H.spc      1 <1>        0.000
     25 H          -1.8629   -1.0511   -0.9557 H.spc      1 <1>        0.000
     26 H          -1.8343   -0.8404    0.9636 H.spc      1 <1>        0.000
     27 H           5.0374    1.9353    0.7626 H.spc      1 <1>        0.000
     28 H           3.5559    1.9308    1.9390 H.spc      1 <1>        0.000
     29 H           3.7060   -0.1779    2.0430 H.spc      1 <1>        0.000
     30 H           5.1051   -0.1760    0.8817 H.spc      1 <1>        0.000
     31 H          -1.7849    2.5096   -1.5889 H.spc      1 <1>        0.000
     32 H          -1.7482    2.9656    0.2872 H.spc      1 <1>        0.000
     33 H          -4.2512    3.4227   -0.6646 H.spc      1 <1>        0.000
     34 H          -4.3629   -1.4362    0.4206 H.spc      1 <1>        0.000
     35 H          -6.4336    2.2697   -0.3242 H.spc      1 <1>        0.000
     36 H          -6.4925   -0.1530    0.1989 H.spc      1 <1>        0.000
@<TRIPOS>BOND
     1    2    5 1  
     2    1    4 1  
     3    1    2 ar 
     4    7   11 ar 
     5    6   11 ar 
     6    9   10 1  
     7    5   10 1  
     8    1    3 ar 
     9    2    6 ar 
    10    4    9 1  
    11    3    7 ar 
    12    7   12 1  
    13   17   18 ar 
    14   16   18 ar 
    15   15   17 ar 
    16   14   16 ar 
    17   13   14 ar 
    18   13   15 ar 
    19    8   14 1  
    20   12   13 1  
    21   11    8 1  
    22    3   19 1  
    23    4   20 1  
    24    4   21 1  
    25    5   22 1  
    26    5   23 1  
    27    6   24 1  
    28    8   25 1  
    29    8   26 1  
    30    9   27 1  
    31    9   28 1  
    32   10   29 1  
    33   10   30 1  
    34   12   31 1  
    35   12   32 1  
    36   15   33 1  
    37   16   34 1  
    38   17   35 1  
    39   18   36 1  
