#      Rotatable Fragment
#      Build by yxyuan
#
# Name:          frag4-342-475/150395
# Creation time: Sat Jun  5 12:53:31 2010


@<TRIPOS>MOLECULE
frag4-342-475/150395
   16    16     1     1     1
SMALL
USER_CHARGES


@<TRIPOS>ATOM
      1 N1         -0.0891   -0.4847   -0.0000 N.3        1 <1>        0.000
      2 C4          1.1991   -1.1294   -0.0000 C.3        1 <1>        0.000
      3 C5         -1.3773   -1.1294   -0.0000 C.3        1 <1>        0.000
      4 C10         1.1991   -2.6882   -0.0000 C.3        1 <1>        0.000
      5 C11        -1.3773   -2.6883   -0.0000 C.3        1 <1>        0.000
      6 N5         -0.0891   -3.3330   -0.0000 N.3        1 <1>        0.000
      7 H          -0.0891   -0.0282   -0.9121 H.spc      1 <1>        0.000
      8 H           1.6865   -0.8283    0.9273 H.spc      1 <1>        0.000
      9 H           1.6865   -0.8283   -0.9273 H.spc      1 <1>        0.000
     10 H          -1.8647   -0.8283   -0.9273 H.spc      1 <1>        0.000
     11 H          -1.8647   -0.8283    0.9273 H.spc      1 <1>        0.000
     12 H           1.6865   -2.9893    0.9273 H.spc      1 <1>        0.000
     13 H           1.6865   -2.9893   -0.9273 H.spc      1 <1>        0.000
     14 H          -1.8647   -2.9894    0.9273 H.spc      1 <1>        0.000
     15 H          -1.8647   -2.9894   -0.9273 H.spc      1 <1>        0.000
     16 H          -0.0891   -3.7895   -0.9121 H.spc      1 <1>        0.000
@<TRIPOS>BOND
     1    5    6 1  
     2    1    2 1  
     3    1    3 1  
     4    2    4 1  
     5    3    5 1  
     6    4    6 1  
     7    1    7 1  
     8    2    8 1  
     9    2    9 1  
    10    3   10 1  
    11    3   11 1  
    12    4   12 1  
    13    4   13 1  
    14    5   14 1  
    15    5   15 1  
    16    6   16 1  
# Name:          frag4-342-475/150395 -- energy: -0.595862
# Creation time: Sat Jun  5 12:53:31 2010


@<TRIPOS>MOLECULE
frag4-342-475/150395 -- energy: -0.595862
   16    16     1     1     1
SMALL
USER_CHARGES


@<TRIPOS>ATOM
      1 N1         -0.0891   -0.4847   -0.0000 N.3        1 <1>        0.000
      2 C4          1.1991   -1.1294   -0.0000 C.3        1 <1>        0.000
      3 C5         -1.3773   -1.1294   -0.0000 C.3        1 <1>        0.000
      4 C10         1.1991   -2.6882   -0.0000 C.3        1 <1>        0.000
      5 C11        -1.3773   -2.6883   -0.0000 C.3        1 <1>        0.000
      6 N5         -0.0891   -3.3330   -0.0000 N.3        1 <1>        0.000
      7 H          -0.0891   -0.0282   -0.9121 H.spc      1 <1>        0.000
      8 H           1.6865   -0.8283    0.9273 H.spc      1 <1>        0.000
      9 H           1.6865   -0.8283   -0.9273 H.spc      1 <1>        0.000
     10 H          -1.8647   -0.8283   -0.9273 H.spc      1 <1>        0.000
     11 H          -1.8647   -0.8283    0.9273 H.spc      1 <1>        0.000
     12 H           1.6865   -2.9893    0.9273 H.spc      1 <1>        0.000
     13 H           1.6865   -2.9893   -0.9273 H.spc      1 <1>        0.000
     14 H          -1.8647   -2.9894    0.9273 H.spc      1 <1>        0.000
     15 H          -1.8647   -2.9894   -0.9273 H.spc      1 <1>        0.000
     16 H          -0.0891   -3.7895   -0.9121 H.spc      1 <1>        0.000
@<TRIPOS>BOND
     1    5    6 1  
     2    1    2 1  
     3    1    3 1  
     4    2    4 1  
     5    3    5 1  
     6    4    6 1  
     7    1    7 1  
     8    2    8 1  
     9    2    9 1  
    10    3   10 1  
    11    3   11 1  
    12    4   12 1  
    13    4   13 1  
    14    5   14 1  
    15    5   15 1  
    16    6   16 1  
