#      Rotatable Fragment
#      Build by yxyuan
#
# Name:          frag3-277-3/96164
# Creation time: Sat Jun  5 12:53:23 2010


@<TRIPOS>MOLECULE
frag3-277-3/96164
   12    11     1     1     1
SMALL
USER_CHARGES


@<TRIPOS>ATOM
      1 C1         -1.6211    0.3108   -0.0538 C.2        1 <1>        0.000
      2 C2         -0.3845   -0.5380   -0.0845 C.2        1 <1>        0.000
      3 C3         -2.8177   -0.2578    0.2173 C.2        1 <1>        0.000
      4 N1          0.6417   -0.1993   -0.9004 N.am       1 <1>        0.000
      5 O1         -0.2882   -1.5209    0.6408 O.2        1 <1>        0.000
      6 O2         -3.0713   -1.5433    0.4684 O.3        1 <1>        0.000
      7 C10        -1.5320    1.6855   -0.2938 C.1        1 <1>        0.000
      8 N2         -1.4552    2.8190   -0.4913 N.1        1 <1>        0.000
      9 H          -3.6764    0.4134    0.2325 H.spc      1 <1>        0.000
     10 H           1.4925   -0.7619   -0.9103 H.spc      1 <1>        0.000
     11 H           0.5640    0.6184   -1.5051 H.spc      1 <1>        0.000
     12 H          -4.0113   -1.6580    0.6262 H.spc      1 <1>        0.000
@<TRIPOS>BOND
     1    1    3 2  
     2    1    7 1  
     3    1    2 1  
     4    2    4 am 
     5    2    5 2  
     6    3    6 1  
     7    7    8 3  
     8    3    9 1  
     9    4   10 1  
    10    4   11 1  
    11    6   12 1  
# Name:          frag3-277-3/96164
# Creation time: Sat Jun  5 12:53:23 2010


@<TRIPOS>MOLECULE
frag3-277-3/96164
   12    11     1     1     1
SMALL
USER_CHARGES


@<TRIPOS>ATOM
      1 C1         -1.6192    0.3281   -0.0671 C.2        1 <1>        0.000
      2 C2         -0.3720   -0.5028   -0.0439 C.2        1 <1>        0.000
      3 C3         -2.8095   -0.3099   -0.0325 C.2        1 <1>        0.000
      4 N1         -0.2164   -1.5888   -0.8340 N.am       1 <1>        0.000
      5 O1          0.5532   -0.1505    0.6863 O.2        1 <1>        0.000
      6 O2         -3.0827   -1.6160    0.0084 O.3        1 <1>        0.000
      7 C10        -1.5228    1.7208   -0.0886 C.1        1 <1>        0.000
      8 N2         -1.4589    2.8752   -0.1258 N.1        1 <1>        0.000
      9 H          -3.6822    0.3431   -0.0390 H.spc      1 <1>        0.000
     10 H           0.6618   -2.1074   -0.8209 H.spc      1 <1>        0.000
     11 H          -0.9772   -1.8895   -1.4432 H.spc      1 <1>        0.000
     12 H          -4.0342   -1.7424    0.0252 H.spc      1 <1>        0.000
@<TRIPOS>BOND
     1    1    3 2  
     2    1    7 1  
     3    1    2 1  
     4    2    4 am 
     5    2    5 2  
     6    3    6 1  
     7    7    8 3  
     8    3    9 1  
     9    4   10 1  
    10    4   11 1  
    11    6   12 1  
# Name:          frag3-277-3/96164
# Creation time: Sat Jun  5 12:53:23 2010


@<TRIPOS>MOLECULE
frag3-277-3/96164
   12    11     1     1     1
SMALL
USER_CHARGES


@<TRIPOS>ATOM
      1 C1         -1.6136    0.3332   -0.0369 C.2        1 <1>        0.000
      2 C2         -0.3762   -0.5048   -0.1296 C.2        1 <1>        0.000
      3 C3         -2.7851   -0.2846    0.2409 C.2        1 <1>        0.000
      4 N1         -0.1931   -1.6156    0.6193 N.am       1 <1>        0.000
      5 O1          0.5173   -0.1429   -0.8965 O.2        1 <1>        0.000
      6 O2         -3.0418   -1.5771    0.4681 O.3        1 <1>        0.000
      7 C10        -1.5427    1.7033   -0.2872 C.1        1 <1>        0.000
      8 N2         -1.4932    2.8444   -0.4754 N.1        1 <1>        0.000
      9 H          -3.6534    0.3727    0.2865 H.spc      1 <1>        0.000
     10 H           0.6769   -2.1429    0.5452 H.spc      1 <1>        0.000
     11 H          -0.9249   -1.9262    1.2583 H.spc      1 <1>        0.000
     12 H          -3.9801   -1.6912    0.6359 H.spc      1 <1>        0.000
@<TRIPOS>BOND
     1    1    3 2  
     2    1    7 1  
     3    1    2 1  
     4    2    4 am 
     5    2    5 2  
     6    3    6 1  
     7    7    8 3  
     8    3    9 1  
     9    4   10 1  
    10    4   11 1  
    11    6   12 1  
# Name:          frag3-277-3/96164
# Creation time: Sat Jun  5 12:53:23 2010


@<TRIPOS>MOLECULE
frag3-277-3/96164
   12    11     1     1     1
SMALL
USER_CHARGES


@<TRIPOS>ATOM
      1 C1         -1.6109    0.3346   -0.0435 C.2        1 <1>        0.000
      2 C2         -0.4061   -0.5445   -0.1759 C.2        1 <1>        0.000
      3 C3         -2.7296   -0.2218    0.4752 C.2        1 <1>        0.000
      4 N1          0.5255   -0.5796    0.8058 N.am       1 <1>        0.000
      5 O1         -0.2326   -1.1913   -1.2055 O.2        1 <1>        0.000
      6 O2         -2.9502   -1.4665    0.9070 O.3        1 <1>        0.000
      7 C10        -1.5740    1.6600   -0.4645 C.1        1 <1>        0.000
      8 N2         -1.5503    2.7651   -0.7958 N.1        1 <1>        0.000
      9 H          -3.5842    0.4503    0.5529 H.spc      1 <1>        0.000
     10 H           1.3684   -1.1420    0.6891 H.spc      1 <1>        0.000
     11 H           0.3845   -0.0436    1.6621 H.spc      1 <1>        0.000
     12 H          -3.8556   -1.5405    1.2175 H.spc      1 <1>        0.000
@<TRIPOS>BOND
     1    1    3 2  
     2    1    7 1  
     3    1    2 1  
     4    2    4 am 
     5    2    5 2  
     6    3    6 1  
     7    7    8 3  
     8    3    9 1  
     9    4   10 1  
    10    4   11 1  
    11    6   12 1  
# Name:          frag3-277-3/96164
# Creation time: Sat Jun  5 12:53:23 2010


@<TRIPOS>MOLECULE
frag3-277-3/96164
   12    11     1     1     1
SMALL
USER_CHARGES


@<TRIPOS>ATOM
      1 C1         -1.6190    0.2992   -0.0381 C.2        1 <1>        0.000
      2 C2         -0.3927   -0.5531   -0.1392 C.2        1 <1>        0.000
      3 C3         -2.7857   -0.2060    0.4181 C.2        1 <1>        0.000
      4 N1          0.8334    0.0092   -0.0194 N.am       1 <1>        0.000
      5 O1         -0.5034   -1.7499   -0.3544 O.2        1 <1>        0.000
      6 O2         -2.9873   -1.4536    0.8326 O.3        1 <1>        0.000
      7 C10        -1.5589    1.6493   -0.4367 C.1        1 <1>        0.000
      8 N2         -1.5148    2.7610   -0.7601 N.1        1 <1>        0.000
      9 H          -3.6398    0.4704    0.4494 H.spc      1 <1>        0.000
     10 H           1.6699   -0.5675   -0.1089 H.spc      1 <1>        0.000
     11 H           0.9204    1.0095    0.1604 H.spc      1 <1>        0.000
     12 H          -3.9022   -1.5552    1.1051 H.spc      1 <1>        0.000
@<TRIPOS>BOND
     1    1    3 2  
     2    1    7 1  
     3    1    2 1  
     4    2    4 am 
     5    2    5 2  
     6    3    6 1  
     7    7    8 3  
     8    3    9 1  
     9    4   10 1  
    10    4   11 1  
    11    6   12 1  
# Name:          frag3-277-3/96164 -- energy: -0.785860
# Creation time: Sat Jun  5 12:53:23 2010


@<TRIPOS>MOLECULE
frag3-277-3/96164 -- energy: -0.785860
   12    11     1     1     1
SMALL
USER_CHARGES


@<TRIPOS>ATOM
      1 C1         -1.6211    0.3108   -0.0538 C.2        1 <1>        0.000
      2 C2         -0.3845   -0.5380   -0.0845 C.2        1 <1>        0.000
      3 C3         -2.8177   -0.2578    0.2173 C.2        1 <1>        0.000
      4 N1          0.6417   -0.1993   -0.9004 N.am       1 <1>        0.000
      5 O1         -0.2882   -1.5209    0.6408 O.2        1 <1>        0.000
      6 O2         -3.0713   -1.5433    0.4684 O.3        1 <1>        0.000
      7 C10        -1.5320    1.6855   -0.2938 C.1        1 <1>        0.000
      8 N2         -1.4552    2.8190   -0.4913 N.1        1 <1>        0.000
      9 H          -3.6764    0.4134    0.2325 H.spc      1 <1>        0.000
     10 H           1.4925   -0.7619   -0.9103 H.spc      1 <1>        0.000
     11 H           0.5640    0.6184   -1.5051 H.spc      1 <1>        0.000
     12 H          -4.0113   -1.6580    0.6262 H.spc      1 <1>        0.000
@<TRIPOS>BOND
     1    1    3 2  
     2    1    7 1  
     3    1    2 1  
     4    2    4 am 
     5    2    5 2  
     6    3    6 1  
     7    7    8 3  
     8    3    9 1  
     9    4   10 1  
    10    4   11 1  
    11    6   12 1  
# Name:          frag3-277-3/96164 -- energy: -0.941648
# Creation time: Sat Jun  5 12:53:23 2010


@<TRIPOS>MOLECULE
frag3-277-3/96164 -- energy: -0.941648
   12    11     1     1     1
SMALL
USER_CHARGES


@<TRIPOS>ATOM
      1 C1         -1.6192    0.3281   -0.0671 C.2        1 <1>        0.000
      2 C2         -0.3720   -0.5028   -0.0439 C.2        1 <1>        0.000
      3 C3         -2.8095   -0.3099   -0.0325 C.2        1 <1>        0.000
      4 N1         -0.2164   -1.5888   -0.8340 N.am       1 <1>        0.000
      5 O1          0.5532   -0.1505    0.6863 O.2        1 <1>        0.000
      6 O2         -3.0827   -1.6160    0.0084 O.3        1 <1>        0.000
      7 C10        -1.5228    1.7208   -0.0886 C.1        1 <1>        0.000
      8 N2         -1.4589    2.8752   -0.1258 N.1        1 <1>        0.000
      9 H          -3.6822    0.3431   -0.0390 H.spc      1 <1>        0.000
     10 H           0.6618   -2.1074   -0.8209 H.spc      1 <1>        0.000
     11 H          -0.9772   -1.8895   -1.4432 H.spc      1 <1>        0.000
     12 H          -4.0342   -1.7424    0.0252 H.spc      1 <1>        0.000
@<TRIPOS>BOND
     1    1    3 2  
     2    1    7 1  
     3    1    2 1  
     4    2    4 am 
     5    2    5 2  
     6    3    6 1  
     7    7    8 3  
     8    3    9 1  
     9    4   10 1  
    10    4   11 1  
    11    6   12 1  
# Name:          frag3-277-3/96164 -- energy: -0.627310
# Creation time: Sat Jun  5 12:53:23 2010


@<TRIPOS>MOLECULE
frag3-277-3/96164 -- energy: -0.627310
   12    11     1     1     1
SMALL
USER_CHARGES


@<TRIPOS>ATOM
      1 C1         -1.6136    0.3332   -0.0369 C.2        1 <1>        0.000
      2 C2         -0.3762   -0.5048   -0.1296 C.2        1 <1>        0.000
      3 C3         -2.7851   -0.2846    0.2409 C.2        1 <1>        0.000
      4 N1         -0.1931   -1.6156    0.6193 N.am       1 <1>        0.000
      5 O1          0.5173   -0.1429   -0.8965 O.2        1 <1>        0.000
      6 O2         -3.0418   -1.5771    0.4681 O.3        1 <1>        0.000
      7 C10        -1.5427    1.7033   -0.2872 C.1        1 <1>        0.000
      8 N2         -1.4932    2.8444   -0.4754 N.1        1 <1>        0.000
      9 H          -3.6534    0.3727    0.2865 H.spc      1 <1>        0.000
     10 H           0.6769   -2.1429    0.5452 H.spc      1 <1>        0.000
     11 H          -0.9249   -1.9262    1.2583 H.spc      1 <1>        0.000
     12 H          -3.9801   -1.6912    0.6359 H.spc      1 <1>        0.000
@<TRIPOS>BOND
     1    1    3 2  
     2    1    7 1  
     3    1    2 1  
     4    2    4 am 
     5    2    5 2  
     6    3    6 1  
     7    7    8 3  
     8    3    9 1  
     9    4   10 1  
    10    4   11 1  
    11    6   12 1  
# Name:          frag3-277-3/96164 -- energy: -0.951603
# Creation time: Sat Jun  5 12:53:23 2010


@<TRIPOS>MOLECULE
frag3-277-3/96164 -- energy: -0.951603
   12    11     1     1     1
SMALL
USER_CHARGES


@<TRIPOS>ATOM
      1 C1         -1.6109    0.3346   -0.0435 C.2        1 <1>        0.000
      2 C2         -0.4061   -0.5445   -0.1759 C.2        1 <1>        0.000
      3 C3         -2.7296   -0.2218    0.4752 C.2        1 <1>        0.000
      4 N1          0.5255   -0.5796    0.8058 N.am       1 <1>        0.000
      5 O1         -0.2326   -1.1913   -1.2055 O.2        1 <1>        0.000
      6 O2         -2.9502   -1.4665    0.9070 O.3        1 <1>        0.000
      7 C10        -1.5740    1.6600   -0.4645 C.1        1 <1>        0.000
      8 N2         -1.5503    2.7651   -0.7958 N.1        1 <1>        0.000
      9 H          -3.5842    0.4503    0.5529 H.spc      1 <1>        0.000
     10 H           1.3684   -1.1420    0.6891 H.spc      1 <1>        0.000
     11 H           0.3845   -0.0436    1.6621 H.spc      1 <1>        0.000
     12 H          -3.8556   -1.5405    1.2175 H.spc      1 <1>        0.000
@<TRIPOS>BOND
     1    1    3 2  
     2    1    7 1  
     3    1    2 1  
     4    2    4 am 
     5    2    5 2  
     6    3    6 1  
     7    7    8 3  
     8    3    9 1  
     9    4   10 1  
    10    4   11 1  
    11    6   12 1  
# Name:          frag3-277-3/96164 -- energy: -0.769475
# Creation time: Sat Jun  5 12:53:23 2010


@<TRIPOS>MOLECULE
frag3-277-3/96164 -- energy: -0.769475
   12    11     1     1     1
SMALL
USER_CHARGES


@<TRIPOS>ATOM
      1 C1         -1.6190    0.2992   -0.0381 C.2        1 <1>        0.000
      2 C2         -0.3927   -0.5531   -0.1392 C.2        1 <1>        0.000
      3 C3         -2.7857   -0.2060    0.4181 C.2        1 <1>        0.000
      4 N1          0.8334    0.0092   -0.0194 N.am       1 <1>        0.000
      5 O1         -0.5034   -1.7499   -0.3544 O.2        1 <1>        0.000
      6 O2         -2.9873   -1.4536    0.8326 O.3        1 <1>        0.000
      7 C10        -1.5589    1.6493   -0.4367 C.1        1 <1>        0.000
      8 N2         -1.5148    2.7610   -0.7601 N.1        1 <1>        0.000
      9 H          -3.6398    0.4704    0.4494 H.spc      1 <1>        0.000
     10 H           1.6699   -0.5675   -0.1089 H.spc      1 <1>        0.000
     11 H           0.9204    1.0095    0.1604 H.spc      1 <1>        0.000
     12 H          -3.9022   -1.5552    1.1051 H.spc      1 <1>        0.000
@<TRIPOS>BOND
     1    1    3 2  
     2    1    7 1  
     3    1    2 1  
     4    2    4 am 
     5    2    5 2  
     6    3    6 1  
     7    7    8 3  
     8    3    9 1  
     9    4   10 1  
    10    4   11 1  
    11    6   12 1  
