#      Rotatable Fragment
#      Build by yxyuan
#
# Name:          frag2-041-93/92655
# Creation time: Sat Jun  5 12:51:57 2010


@<TRIPOS>MOLECULE
frag2-041-93/92655
   14    15     1     1     1
SMALL
USER_CHARGES


@<TRIPOS>ATOM
      1 C3         -2.1472    0.7918   -0.0846 C.ar       1 <1>        0.000
      2 N2         -0.9304    1.3607    0.0660 N.ar       1 <1>        0.000
      3 C4          0.1903    0.6011    0.0756 C.ar       1 <1>        0.000
      4 C5          0.0743   -0.7881   -0.0725 C.ar       1 <1>        0.000
      5 N3          1.1962   -1.5415   -0.0615 N.ar       1 <1>        0.000
      6 C6          2.4086   -0.9856    0.0862 C.ar       1 <1>        0.000
      7 N4          2.5455    0.3532    0.2335 N.ar       1 <1>        0.000
      8 C7          1.4597    1.1452    0.2264 C.ar       1 <1>        0.000
      9 N7         -1.1449   -1.3389   -0.2214 N.ar       1 <1>        0.000
     10 C8         -2.2511   -0.5793   -0.2310 C.ar       1 <1>        0.000
     11 H          -3.0437    1.4118   -0.0906 H.spc      1 <1>        0.000
     12 H           3.2948   -1.6203    0.0876 H.spc      1 <1>        0.000
     13 H           1.5759    2.2230    0.3399 H.spc      1 <1>        0.000
     14 H          -3.2301   -1.0424   -0.3540 H.spc      1 <1>        0.000
@<TRIPOS>BOND
     1    1    2 ar 
     2    2    3 ar 
     3    1   10 ar 
     4    3    4 ar 
     5    3    8 ar 
     6    4    5 ar 
     7    4    9 ar 
     8    5    6 ar 
     9    6    7 ar 
    10    7    8 ar 
    11    9   10 ar 
    12    1   11 1  
    13    6   12 1  
    14    8   13 1  
    15   10   14 1  
# Name:          frag2-041-93/92655 -- energy: 0.443837
# Creation time: Sat Jun  5 12:51:57 2010


@<TRIPOS>MOLECULE
frag2-041-93/92655 -- energy: 0.443837
   14    15     1     1     1
SMALL
USER_CHARGES


@<TRIPOS>ATOM
      1 C3         -2.1472    0.7918   -0.0846 C.ar       1 <1>        0.000
      2 N2         -0.9304    1.3607    0.0660 N.ar       1 <1>        0.000
      3 C4          0.1903    0.6011    0.0756 C.ar       1 <1>        0.000
      4 C5          0.0743   -0.7881   -0.0725 C.ar       1 <1>        0.000
      5 N3          1.1962   -1.5415   -0.0615 N.ar       1 <1>        0.000
      6 C6          2.4086   -0.9856    0.0862 C.ar       1 <1>        0.000
      7 N4          2.5455    0.3532    0.2335 N.ar       1 <1>        0.000
      8 C7          1.4597    1.1452    0.2264 C.ar       1 <1>        0.000
      9 N7         -1.1449   -1.3389   -0.2214 N.ar       1 <1>        0.000
     10 C8         -2.2511   -0.5793   -0.2310 C.ar       1 <1>        0.000
     11 H          -3.0437    1.4118   -0.0906 H.spc      1 <1>        0.000
     12 H           3.2948   -1.6203    0.0876 H.spc      1 <1>        0.000
     13 H           1.5759    2.2230    0.3399 H.spc      1 <1>        0.000
     14 H          -3.2301   -1.0424   -0.3540 H.spc      1 <1>        0.000
@<TRIPOS>BOND
     1    1    2 ar 
     2    2    3 ar 
     3    1   10 ar 
     4    3    4 ar 
     5    3    8 ar 
     6    4    5 ar 
     7    4    9 ar 
     8    5    6 ar 
     9    6    7 ar 
    10    7    8 ar 
    11    9   10 ar 
    12    1   11 1  
    13    6   12 1  
    14    8   13 1  
    15   10   14 1  
