#      Rotatable Fragment
#      Build by yxyuan
#
# Name:          frag3-281-3/96164
# Creation time: Sat Jun  5 12:53:23 2010


@<TRIPOS>MOLECULE
frag3-281-3/96164
   27    26     1     1     1
SMALL
USER_CHARGES


@<TRIPOS>ATOM
      1 C4         -4.9261    0.1849    0.1559 C.2        1 <1>        0.000
      2 C6         -3.6370    0.4971   -0.4389 C.2        1 <1>        0.000
      3 O3         -5.9909    0.4990   -0.3423 O.2        1 <1>        0.000
      4 C8         -2.4670    0.0876    0.0436 C.2        1 <1>        0.000
      5 C11        -1.2128    0.4047   -0.5679 C.2        1 <1>        0.000
      6 C12         0.0349    0.0295   -0.2748 C.2        1 <1>        0.000
      7 O6          6.8472   -1.1403   -2.0085 O.3        1 <1>        0.000
      8 C13         1.2264    0.4308   -0.9689 C.2        1 <1>        0.000
      9 C14         2.4791    0.1472   -0.6245 C.2        1 <1>        0.000
     10 C15         3.0169   -0.6303    0.4684 C.2        1 <1>        0.000
     11 C16         4.0803   -1.4358    0.3215 C.2        1 <1>        0.000
     12 C18         4.8788   -1.7304   -0.8281 C.2        1 <1>        0.000
     13 C19         6.2976   -1.3918   -0.8227 C.2        1 <1>        0.000
     14 C20         4.4780   -2.2421   -1.9869 C.2        1 <1>        0.000
     15 O7          6.9180   -1.2833    0.2244 O.2        1 <1>        0.000
     16 H          -4.9396   -0.3603    1.0997 H.spc      1 <1>        0.000
     17 H          -3.6285    1.1082   -1.3415 H.spc      1 <1>        0.000
     18 H          -2.4635   -0.5192    0.9491 H.spc      1 <1>        0.000
     19 H          -1.2895    1.0718   -1.4265 H.spc      1 <1>        0.000
     20 H           0.1609   -0.6455    0.5717 H.spc      1 <1>        0.000
     21 H           6.1958   -1.2843   -2.6988 H.spc      1 <1>        0.000
     22 H           1.0900    1.0288   -1.8699 H.spc      1 <1>        0.000
     23 H           3.2337    0.5773   -1.2830 H.spc      1 <1>        0.000
     24 H           2.5420   -0.5601    1.4470 H.spc      1 <1>        0.000
     25 H           4.3870   -1.9523    1.2311 H.spc      1 <1>        0.000
     26 H           3.4271   -2.4874   -2.1399 H.spc      1 <1>        0.000
     27 H           5.2001   -2.4166   -2.7845 H.spc      1 <1>        0.000
@<TRIPOS>BOND
     1    1    2 1  
     2   13   15 2  
     3    9   10 1  
     4    2    4 2  
     5   10   11 2  
     6    6    8 1  
     7    1    3 2  
     8    8    9 2  
     9   12   14 2  
    10    4    5 1  
    11    5    6 2  
    12   11   12 1  
    13   12   13 1  
    14   13    7 1  
    15    1   16 1  
    16    2   17 1  
    17    4   18 1  
    18    5   19 1  
    19    6   20 1  
    20    7   21 1  
    21    8   22 1  
    22    9   23 1  
    23   10   24 1  
    24   11   25 1  
    25   14   26 1  
    26   14   27 1  
# Name:          frag3-281-3/96164
# Creation time: Sat Jun  5 12:53:23 2010


@<TRIPOS>MOLECULE
frag3-281-3/96164
   27    26     1     1     1
SMALL
USER_CHARGES


@<TRIPOS>ATOM
      1 C4         -4.9185    0.2245    0.1996 C.2        1 <1>        0.000
      2 C6         -3.6534    0.4716   -0.4653 C.2        1 <1>        0.000
      3 O3         -6.0080    0.4588   -0.2961 O.2        1 <1>        0.000
      4 C8         -2.4642    0.1351    0.0426 C.2        1 <1>        0.000
      5 C11        -1.2271    0.3811   -0.6240 C.2        1 <1>        0.000
      6 C12         0.0293    0.0632   -0.3134 C.2        1 <1>        0.000
      7 O6          6.8231   -0.7800    0.1478 O.3        1 <1>        0.000
      8 C13         1.2101    0.3795   -1.0656 C.2        1 <1>        0.000
      9 C14         2.4706    0.1230   -0.7144 C.2        1 <1>        0.000
     10 C15         3.0410   -0.5116    0.4417 C.2        1 <1>        0.000
     11 C16         4.0983   -1.3287    0.3765 C.2        1 <1>        0.000
     12 C18         4.9024   -1.7405   -0.7420 C.2        1 <1>        0.000
     13 C19         6.3012   -1.4011   -0.9061 C.2        1 <1>        0.000
     14 C20         4.4741   -2.4143   -1.8166 C.2        1 <1>        0.000
     15 O7          6.9444   -1.6338   -1.9143 O.2        1 <1>        0.000
     16 H          -4.8941   -0.1967    1.2046 H.spc      1 <1>        0.000
     17 H          -3.6740    0.9617   -1.4387 H.spc      1 <1>        0.000
     18 H          -2.4379   -0.3528    1.0170 H.spc      1 <1>        0.000
     19 H          -1.3282    0.9304   -1.5600 H.spc      1 <1>        0.000
     20 H           0.1758   -0.4967    0.6103 H.spc      1 <1>        0.000
     21 H           6.1546   -0.6957    0.8316 H.spc      1 <1>        0.000
     22 H           1.0611    0.8808   -2.0220 H.spc      1 <1>        0.000
     23 H           3.2087    0.4586   -1.4429 H.spc      1 <1>        0.000
     24 H           2.5919   -0.3185    1.4159 H.spc      1 <1>        0.000
     25 H           4.4014   -1.7542    1.3331 H.spc      1 <1>        0.000
     26 H           3.4256   -2.7007   -1.8980 H.spc      1 <1>        0.000
     27 H           5.1739   -2.6765   -2.6101 H.spc      1 <1>        0.000
@<TRIPOS>BOND
     1    1    2 1  
     2   13   15 2  
     3    9   10 1  
     4    2    4 2  
     5   10   11 2  
     6    6    8 1  
     7    1    3 2  
     8    8    9 2  
     9   12   14 2  
    10    4    5 1  
    11    5    6 2  
    12   11   12 1  
    13   12   13 1  
    14   13    7 1  
    15    1   16 1  
    16    2   17 1  
    17    4   18 1  
    18    5   19 1  
    19    6   20 1  
    20    7   21 1  
    21    8   22 1  
    22    9   23 1  
    23   10   24 1  
    24   11   25 1  
    25   14   26 1  
    26   14   27 1  
# Name:          frag3-281-3/96164
# Creation time: Sat Jun  5 12:53:23 2010


@<TRIPOS>MOLECULE
frag3-281-3/96164
   27    26     1     1     1
SMALL
USER_CHARGES


@<TRIPOS>ATOM
      1 C4         -4.9494   -0.0895   -0.1075 C.2        1 <1>        0.000
      2 C6         -3.6350    0.2815   -0.6133 C.2        1 <1>        0.000
      3 O3         -5.9991    0.0588   -0.7135 O.2        1 <1>        0.000
      4 C8         -2.4796    0.1587    0.0460 C.2        1 <1>        0.000
      5 C11        -1.2078    0.5221   -0.4745 C.2        1 <1>        0.000
      6 C12         0.0370    0.2584   -0.0785 C.2        1 <1>        0.000
      7 O6          5.1364   -3.1210   -1.4437 O.3        1 <1>        0.000
      8 C13         1.2521    0.6634   -0.7003 C.2        1 <1>        0.000
      9 C14         2.4834    0.2618   -0.4010 C.2        1 <1>        0.000
     10 C15         3.0435   -0.6209    0.5772 C.2        1 <1>        0.000
     11 C16         4.2775   -1.1246    0.5254 C.2        1 <1>        0.000
     12 C18         5.3206   -0.9728   -0.4372 C.2        1 <1>        0.000
     13 C19         5.9050   -2.0499   -1.2405 C.2        1 <1>        0.000
     14 C20         5.8058    0.1958   -0.8827 C.2        1 <1>        0.000
     15 O7          7.0330   -1.9949   -1.7054 O.2        1 <1>        0.000
     16 H          -4.9999   -0.5330    0.8869 H.spc      1 <1>        0.000
     17 H          -3.5899    0.6966   -1.6202 H.spc      1 <1>        0.000
     18 H          -2.5147   -0.2497    1.0560 H.spc      1 <1>        0.000
     19 H          -1.2611    1.1366   -1.3732 H.spc      1 <1>        0.000
     20 H           0.1367   -0.3378    0.8286 H.spc      1 <1>        0.000
     21 H           4.2898   -2.9930   -1.0096 H.spc      1 <1>        0.000
     22 H           1.1626    1.3839   -1.5133 H.spc      1 <1>        0.000
     23 H           3.2395    0.7061   -1.0483 H.spc      1 <1>        0.000
     24 H           2.4172   -0.9011    1.4242 H.spc      1 <1>        0.000
     25 H           4.5353   -1.7663    1.3680 H.spc      1 <1>        0.000
     26 H           5.3992    1.1341   -0.5054 H.spc      1 <1>        0.000
     27 H           6.6067    0.2071   -1.6220 H.spc      1 <1>        0.000
@<TRIPOS>BOND
     1    1    2 1  
     2   13   15 2  
     3    9   10 1  
     4    2    4 2  
     5   10   11 2  
     6    6    8 1  
     7    1    3 2  
     8    8    9 2  
     9   12   14 2  
    10    4    5 1  
    11    5    6 2  
    12   11   12 1  
    13   12   13 1  
    14   13    7 1  
    15    1   16 1  
    16    2   17 1  
    17    4   18 1  
    18    5   19 1  
    19    6   20 1  
    20    7   21 1  
    21    8   22 1  
    22    9   23 1  
    23   10   24 1  
    24   11   25 1  
    25   14   26 1  
    26   14   27 1  
# Name:          frag3-281-3/96164
# Creation time: Sat Jun  5 12:53:23 2010


@<TRIPOS>MOLECULE
frag3-281-3/96164
   27    26     1     1     1
SMALL
USER_CHARGES


@<TRIPOS>ATOM
      1 C4         -4.8963    0.6816    0.3972 C.2        1 <1>        0.000
      2 C6         -3.6675    0.6498   -0.3732 C.2        1 <1>        0.000
      3 O3         -6.0108    0.8248   -0.0810 O.2        1 <1>        0.000
      4 C8         -2.4599    0.3833    0.1409 C.2        1 <1>        0.000
      5 C11        -1.2609    0.3463   -0.6299 C.2        1 <1>        0.000
      6 C12        -0.0414   -0.0953   -0.3467 C.2        1 <1>        0.000
      7 O6          7.0533   -0.6813   -1.6855 O.3        1 <1>        0.000
      8 C13         1.1012   -0.1097   -1.2136 C.2        1 <1>        0.000
      9 C14         2.2853   -0.6735   -0.9813 C.2        1 <1>        0.000
     10 C15         2.8460   -1.4338    0.0998 C.2        1 <1>        0.000
     11 C16         4.0828   -1.9328    0.1233 C.2        1 <1>        0.000
     12 C18         5.1395   -1.8292   -0.8409 C.2        1 <1>        0.000
     13 C19         6.2612   -0.9179   -0.6497 C.2        1 <1>        0.000
     14 C20         5.1660   -2.4218   -2.0379 C.2        1 <1>        0.000
     15 O7          6.4247   -0.3636    0.4288 O.2        1 <1>        0.000
     16 H          -4.8194    0.5698    1.4787 H.spc      1 <1>        0.000
     17 H          -3.7313    0.8566   -1.4415 H.spc      1 <1>        0.000
     18 H          -2.3896    0.1832    1.2101 H.spc      1 <1>        0.000
     19 H          -1.3645    0.7552   -1.6350 H.spc      1 <1>        0.000
     20 H           0.1084   -0.4915    0.6576 H.spc      1 <1>        0.000
     21 H           6.7648   -1.2080   -2.4344 H.spc      1 <1>        0.000
     22 H           0.9876    0.3984   -2.1712 H.spc      1 <1>        0.000
     23 H           2.9900   -0.5233   -1.7992 H.spc      1 <1>        0.000
     24 H           2.2126   -1.6173    0.9677 H.spc      1 <1>        0.000
     25 H           4.3289   -2.5096    1.0148 H.spc      1 <1>        0.000
     26 H           4.3328   -3.0496   -2.3538 H.spc      1 <1>        0.000
     27 H           6.0208   -2.2775   -2.6987 H.spc      1 <1>        0.000
@<TRIPOS>BOND
     1    1    2 1  
     2   13   15 2  
     3    9   10 1  
     4    2    4 2  
     5   10   11 2  
     6    6    8 1  
     7    1    3 2  
     8    8    9 2  
     9   12   14 2  
    10    4    5 1  
    11    5    6 2  
    12   11   12 1  
    13   12   13 1  
    14   13    7 1  
    15    1   16 1  
    16    2   17 1  
    17    4   18 1  
    18    5   19 1  
    19    6   20 1  
    20    7   21 1  
    21    8   22 1  
    22    9   23 1  
    23   10   24 1  
    24   11   25 1  
    25   14   26 1  
    26   14   27 1  
# Name:          frag3-281-3/96164
# Creation time: Sat Jun  5 12:53:23 2010


@<TRIPOS>MOLECULE
frag3-281-3/96164
   27    26     1     1     1
SMALL
USER_CHARGES


@<TRIPOS>ATOM
      1 C4         -4.5786    1.4074    0.1303 C.2        1 <1>        0.000
      2 C6         -3.4741    0.7526   -0.5526 C.2        1 <1>        0.000
      3 O3         -5.5868    1.8232   -0.4182 O.2        1 <1>        0.000
      4 C8         -2.3627    0.2917    0.0271 C.2        1 <1>        0.000
      5 C11        -1.2979   -0.3557   -0.6540 C.2        1 <1>        0.000
      6 C12        -0.1282   -0.8477   -0.2506 C.2        1 <1>        0.000
      7 O6          5.5592    0.7963   -0.8408 O.3        1 <1>        0.000
      8 C13         0.8661   -1.4948   -1.0371 C.2        1 <1>        0.000
      9 C14         2.1173   -1.7762   -0.6910 C.2        1 <1>        0.000
     10 C15         2.8989   -1.5750    0.4879 C.2        1 <1>        0.000
     11 C16         4.2297   -1.4921    0.5007 C.2        1 <1>        0.000
     12 C18         5.1896   -1.5322   -0.5551 C.2        1 <1>        0.000
     13 C19         6.0609   -0.4321   -0.9648 C.2        1 <1>        0.000
     14 C20         5.3405   -2.5316   -1.4389 C.2        1 <1>        0.000
     15 O7          7.1894   -0.6071   -1.3926 O.2        1 <1>        0.000
     16 H          -4.5006    1.5362    1.2098 H.spc      1 <1>        0.000
     17 H          -3.5609    0.6270   -1.6319 H.spc      1 <1>        0.000
     18 H          -2.2655    0.4224    1.1049 H.spc      1 <1>        0.000
     19 H          -1.4737   -0.4737   -1.7232 H.spc      1 <1>        0.000
     20 H           0.0950   -0.7421    0.8111 H.spc      1 <1>        0.000
     21 H           4.6667    0.7424   -0.4914 H.spc      1 <1>        0.000
     22 H           0.5656   -1.7946   -2.0411 H.spc      1 <1>        0.000
     23 H           2.6734   -2.2729   -1.4861 H.spc      1 <1>        0.000
     24 H           2.3733   -1.4833    1.4384 H.spc      1 <1>        0.000
     25 H           4.6615   -1.3724    1.4943 H.spc      1 <1>        0.000
     26 H           4.6964   -3.4093   -1.3843 H.spc      1 <1>        0.000
     27 H           6.1071   -2.4653   -2.2110 H.spc      1 <1>        0.000
@<TRIPOS>BOND
     1    1    2 1  
     2   13   15 2  
     3    9   10 1  
     4    2    4 2  
     5   10   11 2  
     6    6    8 1  
     7    1    3 2  
     8    8    9 2  
     9   12   14 2  
    10    4    5 1  
    11    5    6 2  
    12   11   12 1  
    13   12   13 1  
    14   13    7 1  
    15    1   16 1  
    16    2   17 1  
    17    4   18 1  
    18    5   19 1  
    19    6   20 1  
    20    7   21 1  
    21    8   22 1  
    22    9   23 1  
    23   10   24 1  
    24   11   25 1  
    25   14   26 1  
    26   14   27 1  
# Name:          frag3-281-3/96164
# Creation time: Sat Jun  5 12:53:23 2010


@<TRIPOS>MOLECULE
frag3-281-3/96164
   27    26     1     1     1
SMALL
USER_CHARGES


@<TRIPOS>ATOM
      1 C4         -4.5166    0.1518   -0.6568 C.2        1 <1>        0.000
      2 C6         -3.1365    0.4384   -0.2986 C.2        1 <1>        0.000
      3 O3         -5.4601    0.9118   -0.5108 O.2        1 <1>        0.000
      4 C8         -2.1488   -0.4540   -0.3819 C.2        1 <1>        0.000
      5 C11        -0.7834   -0.2834   -0.0406 C.2        1 <1>        0.000
      6 C12         0.0402    0.7260   -0.3376 C.2        1 <1>        0.000
      7 O6          5.2577   -1.0790   -2.5500 O.3        1 <1>        0.000
      8 C13         1.4014    0.9566   -0.0042 C.2        1 <1>        0.000
      9 C14         2.3807    0.0504   -0.0496 C.2        1 <1>        0.000
     10 C15         2.4348   -1.3316   -0.4337 C.2        1 <1>        0.000
     11 C16         3.5232   -2.0967   -0.5321 C.2        1 <1>        0.000
     12 C18         4.8834   -1.7516   -0.3171 C.2        1 <1>        0.000
     13 C19         5.7901   -1.1970   -1.3304 C.2        1 <1>        0.000
     14 C20         5.4219   -1.7751    0.9083 C.2        1 <1>        0.000
     15 O7          6.9353   -0.8400   -1.1143 O.2        1 <1>        0.000
     16 H          -4.7260   -0.8250   -1.0928 H.spc      1 <1>        0.000
     17 H          -2.8956    1.4397    0.0583 H.spc      1 <1>        0.000
     18 H          -2.4262   -1.4380   -0.7598 H.spc      1 <1>        0.000
     19 H          -0.3435   -1.0892    0.5469 H.spc      1 <1>        0.000
     20 H          -0.4127    1.5113   -0.9428 H.spc      1 <1>        0.000
     21 H           4.3555   -1.4067   -2.5371 H.spc      1 <1>        0.000
     22 H           1.6704    1.9628    0.3173 H.spc      1 <1>        0.000
     23 H           3.3444    0.4437    0.2739 H.spc      1 <1>        0.000
     24 H           1.4833   -1.8076   -0.6707 H.spc      1 <1>        0.000
     25 H           3.3427   -3.1330   -0.8179 H.spc      1 <1>        0.000
     26 H           4.8135   -2.0633    1.7655 H.spc      1 <1>        0.000
     27 H           6.4688   -1.5060    1.0488 H.spc      1 <1>        0.000
@<TRIPOS>BOND
     1    1    2 1  
     2   13   15 2  
     3    9   10 1  
     4    2    4 2  
     5   10   11 2  
     6    6    8 1  
     7    1    3 2  
     8    8    9 2  
     9   12   14 2  
    10    4    5 1  
    11    5    6 2  
    12   11   12 1  
    13   12   13 1  
    14   13    7 1  
    15    1   16 1  
    16    2   17 1  
    17    4   18 1  
    18    5   19 1  
    19    6   20 1  
    20    7   21 1  
    21    8   22 1  
    22    9   23 1  
    23   10   24 1  
    24   11   25 1  
    25   14   26 1  
    26   14   27 1  
# Name:          frag3-281-3/96164
# Creation time: Sat Jun  5 12:53:23 2010


@<TRIPOS>MOLECULE
frag3-281-3/96164
   27    26     1     1     1
SMALL
USER_CHARGES


@<TRIPOS>ATOM
      1 C4         -4.4281   -0.2826    0.2245 C.2        1 <1>        0.000
      2 C6         -3.0790   -0.0866   -0.3036 C.2        1 <1>        0.000
      3 O3         -4.9534   -1.3633    0.4459 O.2        1 <1>        0.000
      4 C8         -2.5084    1.0984   -0.5601 C.2        1 <1>        0.000
      5 C11        -1.2010    1.3035   -1.1044 C.2        1 <1>        0.000
      6 C12        -0.0600    0.7269   -0.7063 C.2        1 <1>        0.000
      7 O6          5.9849   -2.2544   -2.1894 O.3        1 <1>        0.000
      8 C13         1.2520    0.8847   -1.2467 C.2        1 <1>        0.000
      9 C14         2.3954    0.4031   -0.7599 C.2        1 <1>        0.000
     10 C15         2.7789   -0.3673    0.3978 C.2        1 <1>        0.000
     11 C16         3.9749   -0.9620    0.5414 C.2        1 <1>        0.000
     12 C18         5.0979   -1.0304   -0.3479 C.2        1 <1>        0.000
     13 C19         5.5366   -2.2968   -0.9357 C.2        1 <1>        0.000
     14 C20         5.8124    0.0070   -0.7762 C.2        1 <1>        0.000
     15 O7          5.4201   -3.3533   -0.3291 O.2        1 <1>        0.000
     16 H          -5.0148    0.6107    0.4388 H.spc      1 <1>        0.000
     17 H          -2.4875   -0.9796   -0.5057 H.spc      1 <1>        0.000
     18 H          -3.0946    1.9888   -0.3330 H.spc      1 <1>        0.000
     19 H          -1.1257    2.0063   -1.9342 H.spc      1 <1>        0.000
     20 H          -0.1439    0.0476    0.1420 H.spc      1 <1>        0.000
     21 H           6.0051   -1.3430   -2.4902 H.spc      1 <1>        0.000
     22 H           1.3274    1.4672   -2.1649 H.spc      1 <1>        0.000
     23 H           3.2490    0.6521   -1.3904 H.spc      1 <1>        0.000
     24 H           2.0543   -0.4733    1.2051 H.spc      1 <1>        0.000
     25 H           4.1150   -1.4781    1.4912 H.spc      1 <1>        0.000
     26 H           5.5590    1.0155   -0.4492 H.spc      1 <1>        0.000
     27 H           6.6511   -0.1516   -1.4541 H.spc      1 <1>        0.000
@<TRIPOS>BOND
     1    1    2 1  
     2   13   15 2  
     3    9   10 1  
     4    2    4 2  
     5   10   11 2  
     6    6    8 1  
     7    1    3 2  
     8    8    9 2  
     9   12   14 2  
    10    4    5 1  
    11    5    6 2  
    12   11   12 1  
    13   12   13 1  
    14   13    7 1  
    15    1   16 1  
    16    2   17 1  
    17    4   18 1  
    18    5   19 1  
    19    6   20 1  
    20    7   21 1  
    21    8   22 1  
    22    9   23 1  
    23   10   24 1  
    24   11   25 1  
    25   14   26 1  
    26   14   27 1  
# Name:          frag3-281-3/96164
# Creation time: Sat Jun  5 12:53:23 2010


@<TRIPOS>MOLECULE
frag3-281-3/96164
   27    26     1     1     1
SMALL
USER_CHARGES


@<TRIPOS>ATOM
      1 C4         -4.5256    0.0062   -0.7273 C.2        1 <1>        0.000
      2 C6         -3.1269    0.1852   -0.3442 C.2        1 <1>        0.000
      3 O3         -5.1853   -1.0107   -0.5665 O.2        1 <1>        0.000
      4 C8         -2.4082    1.3053   -0.4930 C.2        1 <1>        0.000
      5 C11        -1.0536    1.5313   -0.1150 C.2        1 <1>        0.000
      6 C12        -0.0444    0.6571   -0.1315 C.2        1 <1>        0.000
      7 O6          5.4931   -1.8858   -2.6314 O.3        1 <1>        0.000
      8 C13         1.3110    0.7868    0.2586 C.2        1 <1>        0.000
      9 C14         2.2884   -0.1072    0.1664 C.2        1 <1>        0.000
     10 C15         2.4083   -1.4464   -0.3002 C.2        1 <1>        0.000
     11 C16         3.5556   -2.0975   -0.5057 C.2        1 <1>        0.000
     12 C18         4.9115   -1.6687   -0.3576 C.2        1 <1>        0.000
     13 C19         5.9197   -1.5215   -1.4228 C.2        1 <1>        0.000
     14 C20         5.4258   -1.2161    0.7992 C.2        1 <1>        0.000
     15 O7          7.0538   -1.0913   -1.2787 O.2        1 <1>        0.000
     16 H          -5.0246    0.8534   -1.1977 H.spc      1 <1>        0.000
     17 H          -2.6225   -0.6711    0.1035 H.spc      1 <1>        0.000
     18 H          -2.9219    2.1457   -0.9598 H.spc      1 <1>        0.000
     19 H          -0.8122    2.5372    0.2285 H.spc      1 <1>        0.000
     20 H          -0.3103   -0.3292   -0.5118 H.spc      1 <1>        0.000
     21 H           4.5875   -2.1982   -2.5691 H.spc      1 <1>        0.000
     22 H           1.5885    1.7477    0.6919 H.spc      1 <1>        0.000
     23 H           3.2351    0.2815    0.5417 H.spc      1 <1>        0.000
     24 H           1.4846   -1.9866   -0.5075 H.spc      1 <1>        0.000
     25 H           3.4392   -3.1276   -0.8425 H.spc      1 <1>        0.000
     26 H           4.7996   -1.1615    1.6897 H.spc      1 <1>        0.000
     27 H           6.4690   -0.9037    0.8466 H.spc      1 <1>        0.000
@<TRIPOS>BOND
     1    1    2 1  
     2   13   15 2  
     3    9   10 1  
     4    2    4 2  
     5   10   11 2  
     6    6    8 1  
     7    1    3 2  
     8    8    9 2  
     9   12   14 2  
    10    4    5 1  
    11    5    6 2  
    12   11   12 1  
    13   12   13 1  
    14   13    7 1  
    15    1   16 1  
    16    2   17 1  
    17    4   18 1  
    18    5   19 1  
    19    6   20 1  
    20    7   21 1  
    21    8   22 1  
    22    9   23 1  
    23   10   24 1  
    24   11   25 1  
    25   14   26 1  
    26   14   27 1  
# Name:          frag3-281-3/96164
# Creation time: Sat Jun  5 12:53:23 2010


@<TRIPOS>MOLECULE
frag3-281-3/96164
   27    26     1     1     1
SMALL
USER_CHARGES


@<TRIPOS>ATOM
      1 C4         -5.0052    0.4733   -0.0683 C.2        1 <1>        0.000
      2 C6         -3.7928    0.3712   -0.8669 C.2        1 <1>        0.000
      3 O3         -5.1082    0.6738    1.1288 O.2        1 <1>        0.000
      4 C8         -2.5752    0.4313   -0.3162 C.2        1 <1>        0.000
      5 C11        -1.3329    0.3479   -0.9938 C.2        1 <1>        0.000
      6 C12        -0.0891    0.1448   -0.5625 C.2        1 <1>        0.000
      7 O6          6.2710    0.1195   -0.1775 O.3        1 <1>        0.000
      8 C13         1.0976    0.0541   -1.3503 C.2        1 <1>        0.000
      9 C14         2.2797   -0.4257   -0.9812 C.2        1 <1>        0.000
     10 C15         2.7824   -0.9958    0.2295 C.2        1 <1>        0.000
     11 C16         3.9678   -1.6032    0.3547 C.2        1 <1>        0.000
     12 C18         5.0072   -1.8182   -0.6073 C.2        1 <1>        0.000
     13 C19         6.2879   -1.1228   -0.6541 C.2        1 <1>        0.000
     14 C20         4.9192   -2.5920   -1.7064 C.2        1 <1>        0.000
     15 O7          7.3139   -1.6317   -1.0782 O.2        1 <1>        0.000
     16 H          -5.9426    0.3550   -0.6118 H.spc      1 <1>        0.000
     17 H          -3.8795    0.2419   -1.9457 H.spc      1 <1>        0.000
     18 H          -2.5340    0.5575    0.7657 H.spc      1 <1>        0.000
     19 H          -1.4102    0.4740   -2.0737 H.spc      1 <1>        0.000
     20 H           0.0367    0.0354    0.5147 H.spc      1 <1>        0.000
     21 H           5.3808    0.3401    0.1064 H.spc      1 <1>        0.000
     22 H           1.0253    0.4214   -2.3740 H.spc      1 <1>        0.000
     23 H           3.0280   -0.3735   -1.7720 H.spc      1 <1>        0.000
     24 H           2.1529   -0.9308    1.1169 H.spc      1 <1>        0.000
     25 H           4.1763   -1.9982    1.3490 H.spc      1 <1>        0.000
     26 H           3.9931   -3.1230   -1.9263 H.spc      1 <1>        0.000
     27 H           5.7741   -2.6871   -2.3758 H.spc      1 <1>        0.000
@<TRIPOS>BOND
     1    1    2 1  
     2   13   15 2  
     3    9   10 1  
     4    2    4 2  
     5   10   11 2  
     6    6    8 1  
     7    1    3 2  
     8    8    9 2  
     9   12   14 2  
    10    4    5 1  
    11    5    6 2  
    12   11   12 1  
    13   12   13 1  
    14   13    7 1  
    15    1   16 1  
    16    2   17 1  
    17    4   18 1  
    18    5   19 1  
    19    6   20 1  
    20    7   21 1  
    21    8   22 1  
    22    9   23 1  
    23   10   24 1  
    24   11   25 1  
    25   14   26 1  
    26   14   27 1  
# Name:          frag3-281-3/96164
# Creation time: Sat Jun  5 12:53:23 2010


@<TRIPOS>MOLECULE
frag3-281-3/96164
   27    26     1     1     1
SMALL
USER_CHARGES


@<TRIPOS>ATOM
      1 C4         -4.5999   -0.1092   -0.2335 C.2        1 <1>        0.000
      2 C6         -3.1985    0.2456   -0.4298 C.2        1 <1>        0.000
      3 O3         -5.2655   -0.7909   -0.9981 O.2        1 <1>        0.000
      4 C8         -2.4418    0.9894    0.3858 C.2        1 <1>        0.000
      5 C11        -1.0844    1.3516    0.1710 C.2        1 <1>        0.000
      6 C12        -0.0713    0.5652   -0.1998 C.2        1 <1>        0.000
      7 O6          5.7230   -1.8302   -2.4547 O.3        1 <1>        0.000
      8 C13         1.2866    0.8910   -0.4695 C.2        1 <1>        0.000
      9 C14         2.3001    0.0613   -0.6904 C.2        1 <1>        0.000
     10 C15         2.4223   -1.3608   -0.7181 C.2        1 <1>        0.000
     11 C16         3.5686   -2.0148   -0.5232 C.2        1 <1>        0.000
     12 C18         4.8893   -1.5225   -0.2740 C.2        1 <1>        0.000
     13 C19         6.0354   -1.6652   -1.1710 C.2        1 <1>        0.000
     14 C20         5.2612   -0.7358    0.7548 C.2        1 <1>        0.000
     15 O7          7.1982   -1.6478   -0.7992 O.2        1 <1>        0.000
     16 H          -5.0914    0.2630    0.6654 H.spc      1 <1>        0.000
     17 H          -2.7191   -0.1336   -1.3323 H.spc      1 <1>        0.000
     18 H          -2.9106    1.3514    1.3008 H.spc      1 <1>        0.000
     19 H          -0.8401    2.4021    0.3286 H.spc      1 <1>        0.000
     20 H          -0.3237   -0.4891   -0.3134 H.spc      1 <1>        0.000
     21 H           4.7683   -1.8167   -2.5548 H.spc      1 <1>        0.000
     22 H           1.5254    1.9541   -0.4985 H.spc      1 <1>        0.000
     23 H           3.2390    0.5762   -0.8940 H.spc      1 <1>        0.000
     24 H           1.5243   -1.9480   -0.9102 H.spc      1 <1>        0.000
     25 H           3.4860   -3.1011   -0.5597 H.spc      1 <1>        0.000
     26 H           4.5240   -0.4181    1.4921 H.spc      1 <1>        0.000
     27 H           6.2992   -0.4171    0.8497 H.spc      1 <1>        0.000
@<TRIPOS>BOND
     1    1    2 1  
     2   13   15 2  
     3    9   10 1  
     4    2    4 2  
     5   10   11 2  
     6    6    8 1  
     7    1    3 2  
     8    8    9 2  
     9   12   14 2  
    10    4    5 1  
    11    5    6 2  
    12   11   12 1  
    13   12   13 1  
    14   13    7 1  
    15    1   16 1  
    16    2   17 1  
    17    4   18 1  
    18    5   19 1  
    19    6   20 1  
    20    7   21 1  
    21    8   22 1  
    22    9   23 1  
    23   10   24 1  
    24   11   25 1  
    25   14   26 1  
    26   14   27 1  
# Name:          frag3-281-3/96164
# Creation time: Sat Jun  5 12:53:23 2010


@<TRIPOS>MOLECULE
frag3-281-3/96164
   27    26     1     1     1
SMALL
USER_CHARGES


@<TRIPOS>ATOM
      1 C4         -4.8870    0.4329   -0.2568 C.2        1 <1>        0.000
      2 C6         -3.4901    0.6697    0.0894 C.2        1 <1>        0.000
      3 O3         -5.8536    0.9320    0.2993 O.2        1 <1>        0.000
      4 C8         -2.4397    0.0761   -0.4898 C.2        1 <1>        0.000
      5 C11        -1.0767    0.3290   -0.1571 C.2        1 <1>        0.000
      6 C12         0.0773   -0.0846   -0.6801 C.2        1 <1>        0.000
      7 O6          5.8497    0.0608   -1.4876 O.3        1 <1>        0.000
      8 C13         1.4072    0.2501   -0.2748 C.2        1 <1>        0.000
      9 C14         2.5479   -0.2734   -0.7222 C.2        1 <1>        0.000
     10 C15         2.8621   -1.2927   -1.6854 C.2        1 <1>        0.000
     11 C16         3.9577   -2.0659   -1.6495 C.2        1 <1>        0.000
     12 C18         5.0347   -2.0152   -0.6958 C.2        1 <1>        0.000
     13 C19         5.9620   -0.8844   -0.5516 C.2        1 <1>        0.000
     14 C20         5.2881   -2.9199    0.2674 C.2        1 <1>        0.000
     15 O7          6.7835   -0.7880    0.3449 O.2        1 <1>        0.000
     16 H          -5.0859   -0.2488   -1.0838 H.spc      1 <1>        0.000
     17 H          -3.2852    1.3877    0.8835 H.spc      1 <1>        0.000
     18 H          -2.6411   -0.6543   -1.2734 H.spc      1 <1>        0.000
     19 H          -0.9536    0.9948    0.6971 H.spc      1 <1>        0.000
     20 H          -0.0030   -0.7665   -1.5267 H.spc      1 <1>        0.000
     21 H           5.1568   -0.1832   -2.1057 H.spc      1 <1>        0.000
     22 H           1.4983    1.0229    0.4885 H.spc      1 <1>        0.000
     23 H           3.4316    0.1651   -0.2586 H.spc      1 <1>        0.000
     24 H           2.1596   -1.4487   -2.5041 H.spc      1 <1>        0.000
     25 H           4.0421   -2.8193   -2.4327 H.spc      1 <1>        0.000
     26 H           4.6452   -3.7932    0.3776 H.spc      1 <1>        0.000
     27 H           6.1363   -2.7795    0.9375 H.spc      1 <1>        0.000
@<TRIPOS>BOND
     1    1    2 1  
     2   13   15 2  
     3    9   10 1  
     4    2    4 2  
     5   10   11 2  
     6    6    8 1  
     7    1    3 2  
     8    8    9 2  
     9   12   14 2  
    10    4    5 1  
    11    5    6 2  
    12   11   12 1  
    13   12   13 1  
    14   13    7 1  
    15    1   16 1  
    16    2   17 1  
    17    4   18 1  
    18    5   19 1  
    19    6   20 1  
    20    7   21 1  
    21    8   22 1  
    22    9   23 1  
    23   10   24 1  
    24   11   25 1  
    25   14   26 1  
    26   14   27 1  
# Name:          frag3-281-3/96164
# Creation time: Sat Jun  5 12:53:24 2010


@<TRIPOS>MOLECULE
frag3-281-3/96164
   27    26     1     1     1
SMALL
USER_CHARGES


@<TRIPOS>ATOM
      1 C4         -4.4289    0.3129    0.4557 C.2        1 <1>        0.000
      2 C6         -3.1220    0.3590   -0.1886 C.2        1 <1>        0.000
      3 O3         -5.3418    1.1051    0.2579 O.2        1 <1>        0.000
      4 C8         -2.1273   -0.5221   -0.0410 C.2        1 <1>        0.000
      5 C11        -0.8555   -0.4818   -0.6788 C.2        1 <1>        0.000
      6 C12        -0.0912    0.5865   -0.9479 C.2        1 <1>        0.000
      7 O6          6.1272   -0.5332    0.6988 O.3        1 <1>        0.000
      8 C13         1.1726    0.6457   -1.5930 C.2        1 <1>        0.000
      9 C14         2.2469   -0.0235   -1.1840 C.2        1 <1>        0.000
     10 C15         2.4797   -0.9008   -0.0773 C.2        1 <1>        0.000
     11 C16         3.5547   -1.6691    0.0840 C.2        1 <1>        0.000
     12 C18         4.7136   -1.7924   -0.7355 C.2        1 <1>        0.000
     13 C19         6.0098   -1.1429   -0.4824 C.2        1 <1>        0.000
     14 C20         4.7490   -2.3898   -1.9472 C.2        1 <1>        0.000
     15 O7          6.9365   -1.1268   -1.2705 O.2        1 <1>        0.000
     16 H          -4.6079   -0.4905    1.1703 H.spc      1 <1>        0.000
     17 H          -2.9368    1.1979   -0.8595 H.spc      1 <1>        0.000
     18 H          -2.3088   -1.3562    0.6368 H.spc      1 <1>        0.000
     19 H          -0.4500   -1.4449   -0.9889 H.spc      1 <1>        0.000
     20 H          -0.4974    1.5454   -0.6259 H.spc      1 <1>        0.000
     21 H           5.3126   -0.6404    1.1954 H.spc      1 <1>        0.000
     22 H           1.2679    1.2774   -2.4762 H.spc      1 <1>        0.000
     23 H           3.1223    0.1256   -1.8161 H.spc      1 <1>        0.000
     24 H           1.7138   -0.9433    0.6971 H.spc      1 <1>        0.000
     25 H           3.5472   -2.2969    0.9750 H.spc      1 <1>        0.000
     26 H           3.8419   -2.8243   -2.3673 H.spc      1 <1>        0.000
     27 H           5.6846   -2.4371   -2.5044 H.spc      1 <1>        0.000
@<TRIPOS>BOND
     1    1    2 1  
     2   13   15 2  
     3    9   10 1  
     4    2    4 2  
     5   10   11 2  
     6    6    8 1  
     7    1    3 2  
     8    8    9 2  
     9   12   14 2  
    10    4    5 1  
    11    5    6 2  
    12   11   12 1  
    13   12   13 1  
    14   13    7 1  
    15    1   16 1  
    16    2   17 1  
    17    4   18 1  
    18    5   19 1  
    19    6   20 1  
    20    7   21 1  
    21    8   22 1  
    22    9   23 1  
    23   10   24 1  
    24   11   25 1  
    25   14   26 1  
    26   14   27 1  
# Name:          frag3-281-3/96164
# Creation time: Sat Jun  5 12:53:24 2010


@<TRIPOS>MOLECULE
frag3-281-3/96164
   27    26     1     1     1
SMALL
USER_CHARGES


@<TRIPOS>ATOM
      1 C4         -4.0987    0.1726   -1.0784 C.2        1 <1>        0.000
      2 C6         -2.7189   -0.1518   -0.6946 C.2        1 <1>        0.000
      3 O3         -4.7800   -0.4236   -1.8955 O.2        1 <1>        0.000
      4 C8         -1.9999    0.5398    0.1984 C.2        1 <1>        0.000
      5 C11        -0.6442    0.2213    0.5813 C.2        1 <1>        0.000
      6 C12         0.2204    0.8166    1.4283 C.2        1 <1>        0.000
      7 O6          6.5804   -2.1261   -0.9998 O.3        1 <1>        0.000
      8 C13         1.5745    0.3992    1.6970 C.2        1 <1>        0.000
      9 C14         2.4712    0.0626    0.7506 C.2        1 <1>        0.000
     10 C15         2.4002    0.0311   -0.7029 C.2        1 <1>        0.000
     11 C16         3.1893   -0.7427   -1.4613 C.2        1 <1>        0.000
     12 C18         4.2456   -1.6580   -1.1195 C.2        1 <1>        0.000
     13 C19         5.6100   -1.4219   -1.5876 C.2        1 <1>        0.000
     14 C20         4.1222   -2.7129   -0.3257 C.2        1 <1>        0.000
     15 O7          5.8511   -0.5795   -2.4400 O.2        1 <1>        0.000
     16 H          -4.5584    1.0291   -0.5853 H.spc      1 <1>        0.000
     17 H          -2.2485   -1.0134   -1.1685 H.spc      1 <1>        0.000
     18 H          -2.4704    1.4031    0.6691 H.spc      1 <1>        0.000
     19 H          -0.2443   -0.6679    0.0939 H.spc      1 <1>        0.000
     20 H          -0.1387    1.6974    1.9606 H.spc      1 <1>        0.000
     21 H           6.1939   -2.7324   -0.3637 H.spc      1 <1>        0.000
     22 H           1.8941    0.3530    2.7381 H.spc      1 <1>        0.000
     23 H           3.4372   -0.2460    1.1503 H.spc      1 <1>        0.000
     24 H           1.6687    0.6687   -1.1995 H.spc      1 <1>        0.000
     25 H           2.9957   -0.6644   -2.5311 H.spc      1 <1>        0.000
     26 H           3.1583   -2.9440    0.1276 H.spc      1 <1>        0.000
     27 H           4.9847   -3.3489   -0.1265 H.spc      1 <1>        0.000
@<TRIPOS>BOND
     1    1    2 1  
     2   13   15 2  
     3    9   10 1  
     4    2    4 2  
     5   10   11 2  
     6    6    8 1  
     7    1    3 2  
     8    8    9 2  
     9   12   14 2  
    10    4    5 1  
    11    5    6 2  
    12   11   12 1  
    13   12   13 1  
    14   13    7 1  
    15    1   16 1  
    16    2   17 1  
    17    4   18 1  
    18    5   19 1  
    19    6   20 1  
    20    7   21 1  
    21    8   22 1  
    22    9   23 1  
    23   10   24 1  
    24   11   25 1  
    25   14   26 1  
    26   14   27 1  
# Name:          frag3-281-3/96164
# Creation time: Sat Jun  5 12:53:24 2010


@<TRIPOS>MOLECULE
frag3-281-3/96164
   27    26     1     1     1
SMALL
USER_CHARGES


@<TRIPOS>ATOM
      1 C4         -4.4361   -0.1077   -0.5905 C.2        1 <1>        0.000
      2 C6         -3.0451    0.3292   -0.5405 C.2        1 <1>        0.000
      3 O3         -5.4217    0.6001   -0.4446 O.2        1 <1>        0.000
      4 C8         -1.9870   -0.4605   -0.7391 C.2        1 <1>        0.000
      5 C11        -0.6046   -0.1338   -0.7145 C.2        1 <1>        0.000
      6 C12         0.0334    0.7513    0.0558 C.2        1 <1>        0.000
      7 O6          4.6785   -2.0859   -2.4845 O.3        1 <1>        0.000
      8 C13         1.3944    1.1397    0.1231 C.2        1 <1>        0.000
      9 C14         2.4271    0.3111    0.2505 C.2        1 <1>        0.000
     10 C15         2.5387   -1.1038    0.3748 C.2        1 <1>        0.000
     11 C16         3.6274   -1.8482    0.1710 C.2        1 <1>        0.000
     12 C18         4.9435   -1.4668   -0.2162 C.2        1 <1>        0.000
     13 C19         5.4990   -1.5380   -1.5857 C.2        1 <1>        0.000
     14 C20         5.7818   -0.8392    0.6175 C.2        1 <1>        0.000
     15 O7          6.5942   -1.1207   -1.9268 O.2        1 <1>        0.000
     16 H          -4.6134   -1.1671   -0.7758 H.spc      1 <1>        0.000
     17 H          -2.8551    1.3806   -0.3245 H.spc      1 <1>        0.000
     18 H          -2.2166   -1.5049   -0.9502 H.spc      1 <1>        0.000
     19 H           0.0207   -0.6801   -1.4207 H.spc      1 <1>        0.000
     20 H          -0.6123    1.2710    0.7636 H.spc      1 <1>        0.000
     21 H           3.8666   -2.3584   -2.0507 H.spc      1 <1>        0.000
     22 H           1.6133    2.2060    0.0657 H.spc      1 <1>        0.000
     23 H           3.3900    0.8217    0.2623 H.spc      1 <1>        0.000
     24 H           1.6348   -1.6373    0.6689 H.spc      1 <1>        0.000
     25 H           3.4868   -2.9180    0.3255 H.spc      1 <1>        0.000
     26 H           5.4648   -0.6026    1.6332 H.spc      1 <1>        0.000
     27 H           6.7815   -0.5647    0.2807 H.spc      1 <1>        0.000
@<TRIPOS>BOND
     1    1    2 1  
     2   13   15 2  
     3    9   10 1  
     4    2    4 2  
     5   10   11 2  
     6    6    8 1  
     7    1    3 2  
     8    8    9 2  
     9   12   14 2  
    10    4    5 1  
    11    5    6 2  
    12   11   12 1  
    13   12   13 1  
    14   13    7 1  
    15    1   16 1  
    16    2   17 1  
    17    4   18 1  
    18    5   19 1  
    19    6   20 1  
    20    7   21 1  
    21    8   22 1  
    22    9   23 1  
    23   10   24 1  
    24   11   25 1  
    25   14   26 1  
    26   14   27 1  
# Name:          frag3-281-3/96164
# Creation time: Sat Jun  5 12:53:24 2010


@<TRIPOS>MOLECULE
frag3-281-3/96164
   27    26     1     1     1
SMALL
USER_CHARGES


@<TRIPOS>ATOM
      1 C4         -4.9932    0.0650   -0.1702 C.2        1 <1>        0.000
      2 C6         -3.6665    0.6002   -0.5033 C.2        1 <1>        0.000
      3 O3         -6.0503    0.3813   -0.6924 O.2        1 <1>        0.000
      4 C8         -2.5372    0.1554    0.0707 C.2        1 <1>        0.000
      5 C11        -1.2028    0.6168   -0.2219 C.2        1 <1>        0.000
      6 C12         0.0089    0.1592    0.1279 C.2        1 <1>        0.000
      7 O6          6.1326   -1.8315   -2.4404 O.3        1 <1>        0.000
      8 C13         1.2954    0.6933   -0.2554 C.2        1 <1>        0.000
      9 C14         2.3695    0.0025   -0.6348 C.2        1 <1>        0.000
     10 C15         2.6380   -1.4022   -0.8079 C.2        1 <1>        0.000
     11 C16         3.8289   -1.9935   -0.6912 C.2        1 <1>        0.000
     12 C18         5.1101   -1.4374   -0.3604 C.2        1 <1>        0.000
     13 C19         6.3439   -1.4785   -1.1690 C.2        1 <1>        0.000
     14 C20         5.2834   -0.8305    0.8244 C.2        1 <1>        0.000
     15 O7          7.4627   -1.2733   -0.7256 O.2        1 <1>        0.000
     16 H          -5.0381   -0.6861    0.6184 H.spc      1 <1>        0.000
     17 H          -3.5958    1.3925   -1.2485 H.spc      1 <1>        0.000
     18 H          -2.6382   -0.6244    0.8256 H.spc      1 <1>        0.000
     19 H          -1.1727    1.5088   -0.8476 H.spc      1 <1>        0.000
     20 H           0.0245   -0.7169    0.7763 H.spc      1 <1>        0.000
     21 H           5.1907   -1.9444   -2.5877 H.spc      1 <1>        0.000
     22 H           1.3983    1.7782   -0.2316 H.spc      1 <1>        0.000
     23 H           3.2277    0.6346   -0.8627 H.spc      1 <1>        0.000
     24 H           1.7907   -2.0409   -1.0571 H.spc      1 <1>        0.000
     25 H           3.8284   -3.0677   -0.8762 H.spc      1 <1>        0.000
     26 H           4.4540   -0.7624    1.5283 H.spc      1 <1>        0.000
     27 H           6.2535   -0.4059    1.0825 H.spc      1 <1>        0.000
@<TRIPOS>BOND
     1    1    2 1  
     2   13   15 2  
     3    9   10 1  
     4    2    4 2  
     5   10   11 2  
     6    6    8 1  
     7    1    3 2  
     8    8    9 2  
     9   12   14 2  
    10    4    5 1  
    11    5    6 2  
    12   11   12 1  
    13   12   13 1  
    14   13    7 1  
    15    1   16 1  
    16    2   17 1  
    17    4   18 1  
    18    5   19 1  
    19    6   20 1  
    20    7   21 1  
    21    8   22 1  
    22    9   23 1  
    23   10   24 1  
    24   11   25 1  
    25   14   26 1  
    26   14   27 1  
# Name:          frag3-281-3/96164
# Creation time: Sat Jun  5 12:53:24 2010


@<TRIPOS>MOLECULE
frag3-281-3/96164
   27    26     1     1     1
SMALL
USER_CHARGES


@<TRIPOS>ATOM
      1 C4         -4.2915   -0.2860   -0.5365 C.2        1 <1>        0.000
      2 C6         -2.8678   -0.0342   -0.7547 C.2        1 <1>        0.000
      3 O3         -5.0539   -0.8252   -1.3262 O.2        1 <1>        0.000
      4 C8         -2.0571    0.5798    0.1199 C.2        1 <1>        0.000
      5 C11        -0.6642    0.8304   -0.0772 C.2        1 <1>        0.000
      6 C12         0.3127    1.3058    0.7068 C.2        1 <1>        0.000
      7 O6          4.8922   -1.7586   -2.6972 O.3        1 <1>        0.000
      8 C13         1.6934    1.4494    0.3329 C.2        1 <1>        0.000
      9 C14         2.4731    0.4481   -0.1032 C.2        1 <1>        0.000
     10 C15         2.2393   -0.9592   -0.3260 C.2        1 <1>        0.000
     11 C16         3.1919   -1.8924   -0.4236 C.2        1 <1>        0.000
     12 C18         4.6121   -1.7410   -0.3638 C.2        1 <1>        0.000
     13 C19         5.5131   -1.6495   -1.5184 C.2        1 <1>        0.000
     14 C20         5.3078   -1.5415    0.7689 C.2        1 <1>        0.000
     15 O7          6.7221   -1.4994   -1.4514 O.2        1 <1>        0.000
     16 H          -4.7114    0.0361    0.4164 H.spc      1 <1>        0.000
     17 H          -2.4337   -0.3698   -1.6965 H.spc      1 <1>        0.000
     18 H          -2.4973    0.9154    1.0589 H.spc      1 <1>        0.000
     19 H          -0.3229    0.5811   -1.0819 H.spc      1 <1>        0.000
     20 H           0.0365    1.6103    1.7163 H.spc      1 <1>        0.000
     21 H           3.9498   -1.8701   -2.5521 H.spc      1 <1>        0.000
     22 H           2.1383    2.4416    0.4090 H.spc      1 <1>        0.000
     23 H           3.4907    0.7610   -0.3370 H.spc      1 <1>        0.000
     24 H           1.2042   -1.2868   -0.4223 H.spc      1 <1>        0.000
     25 H           2.8354   -2.9121   -0.5693 H.spc      1 <1>        0.000
     26 H           4.7878   -1.4858    1.7252 H.spc      1 <1>        0.000
     27 H           6.3920   -1.4354    0.7311 H.spc      1 <1>        0.000
@<TRIPOS>BOND
     1    1    2 1  
     2   13   15 2  
     3    9   10 1  
     4    2    4 2  
     5   10   11 2  
     6    6    8 1  
     7    1    3 2  
     8    8    9 2  
     9   12   14 2  
    10    4    5 1  
    11    5    6 2  
    12   11   12 1  
    13   12   13 1  
    14   13    7 1  
    15    1   16 1  
    16    2   17 1  
    17    4   18 1  
    18    5   19 1  
    19    6   20 1  
    20    7   21 1  
    21    8   22 1  
    22    9   23 1  
    23   10   24 1  
    24   11   25 1  
    25   14   26 1  
    26   14   27 1  
# Name:          frag3-281-3/96164
# Creation time: Sat Jun  5 12:53:24 2010


@<TRIPOS>MOLECULE
frag3-281-3/96164
   27    26     1     1     1
SMALL
USER_CHARGES


@<TRIPOS>ATOM
      1 C4         -4.4230   -0.2087   -0.6390 C.2        1 <1>        0.000
      2 C6         -3.0065    0.1418   -0.6251 C.2        1 <1>        0.000
      3 O3         -4.9328   -1.0998   -1.3089 O.2        1 <1>        0.000
      4 C8         -2.4404    1.1234    0.0958 C.2        1 <1>        0.000
      5 C11        -1.0638    1.4844    0.1001 C.2        1 <1>        0.000
      6 C12        -0.0022    0.6802    0.2020 C.2        1 <1>        0.000
      7 O6          5.3625   -2.9575   -2.1643 O.3        1 <1>        0.000
      8 C13         1.3866    0.9894    0.1755 C.2        1 <1>        0.000
      9 C14         2.4160    0.1533    0.2181 C.2        1 <1>        0.000
     10 C15         2.5713   -1.2644    0.3347 C.2        1 <1>        0.000
     11 C16         3.6998   -1.9350    0.0791 C.2        1 <1>        0.000
     12 C18         4.9697   -1.4619   -0.3737 C.2        1 <1>        0.000
     13 C19         5.5594   -1.7321   -1.6870 C.2        1 <1>        0.000
     14 C20         5.7627   -0.5969    0.2752 C.2        1 <1>        0.000
     15 O7          6.1640   -0.8893   -2.3321 O.2        1 <1>        0.000
     16 H          -5.0856    0.3726    0.0023 H.spc      1 <1>        0.000
     17 H          -2.3456   -0.4487   -1.2596 H.spc      1 <1>        0.000
     18 H          -3.1012    1.7012    0.7420 H.spc      1 <1>        0.000
     19 H          -0.8492    2.5492    0.0089 H.spc      1 <1>        0.000
     20 H          -0.2360   -0.3774    0.3245 H.spc      1 <1>        0.000
     21 H           4.8723   -3.4752   -1.5214 H.spc      1 <1>        0.000
     22 H           1.6367    2.0484    0.1121 H.spc      1 <1>        0.000
     23 H           3.3729    0.6704    0.1473 H.spc      1 <1>        0.000
     24 H           1.7042   -1.8414    0.6562 H.spc      1 <1>        0.000
     25 H           3.6417   -3.0112    0.2417 H.spc      1 <1>        0.000
     26 H           5.4533   -0.1908    1.2383 H.spc      1 <1>        0.000
     27 H           6.7167   -0.2998   -0.1604 H.spc      1 <1>        0.000
@<TRIPOS>BOND
     1    1    2 1  
     2   13   15 2  
     3    9   10 1  
     4    2    4 2  
     5   10   11 2  
     6    6    8 1  
     7    1    3 2  
     8    8    9 2  
     9   12   14 2  
    10    4    5 1  
    11    5    6 2  
    12   11   12 1  
    13   12   13 1  
    14   13    7 1  
    15    1   16 1  
    16    2   17 1  
    17    4   18 1  
    18    5   19 1  
    19    6   20 1  
    20    7   21 1  
    21    8   22 1  
    22    9   23 1  
    23   10   24 1  
    24   11   25 1  
    25   14   26 1  
    26   14   27 1  
# Name:          frag3-281-3/96164
# Creation time: Sat Jun  5 12:53:24 2010


@<TRIPOS>MOLECULE
frag3-281-3/96164
   27    26     1     1     1
SMALL
USER_CHARGES


@<TRIPOS>ATOM
      1 C4         -3.9705   -0.6957   -0.5257 C.2        1 <1>        0.000
      2 C6         -2.5532   -0.4091   -0.7386 C.2        1 <1>        0.000
      3 O3         -4.6365   -1.5255   -1.1291 O.2        1 <1>        0.000
      4 C8         -1.8574    0.5534   -0.1148 C.2        1 <1>        0.000
      5 C11        -0.4705    0.8481   -0.3069 C.2        1 <1>        0.000
      6 C12         0.3469    1.7858    0.1927 C.2        1 <1>        0.000
      7 O6          3.7388   -3.0679   -1.7580 O.3        1 <1>        0.000
      8 C13         1.7477    1.9238   -0.0819 C.2        1 <1>        0.000
      9 C14         2.6840    0.9959    0.1768 C.2        1 <1>        0.000
     10 C15         2.6602   -0.3196    0.7761 C.2        1 <1>        0.000
     11 C16         3.5264   -1.3050    0.5062 C.2        1 <1>        0.000
     12 C18         4.6454   -1.3701   -0.3884 C.2        1 <1>        0.000
     13 C19         4.7663   -2.2377   -1.5626 C.2        1 <1>        0.000
     14 C20         5.6869   -0.5240   -0.3549 C.2        1 <1>        0.000
     15 O7          5.7086   -2.2255   -2.3405 O.2        1 <1>        0.000
     16 H          -4.4818   -0.1158    0.2426 H.spc      1 <1>        0.000
     17 H          -2.0194   -1.0262   -1.4613 H.spc      1 <1>        0.000
     18 H          -2.3986    1.1677    0.6049 H.spc      1 <1>        0.000
     19 H           0.0233    0.1703   -1.0032 H.spc      1 <1>        0.000
     20 H          -0.0957    2.5133    0.8731 H.spc      1 <1>        0.000
     21 H           3.0929   -2.9460   -1.0584 H.spc      1 <1>        0.000
     22 H           2.0794    2.8569   -0.5373 H.spc      1 <1>        0.000
     23 H           3.6827    1.3027   -0.1339 H.spc      1 <1>        0.000
     24 H           1.8760   -0.5256    1.5046 H.spc      1 <1>        0.000
     25 H           3.3489   -2.2224    1.0674 H.spc      1 <1>        0.000
     26 H           5.7165    0.2748    0.3861 H.spc      1 <1>        0.000
     27 H           6.5030   -0.6357   -1.0687 H.spc      1 <1>        0.000
@<TRIPOS>BOND
     1    1    2 1  
     2   13   15 2  
     3    9   10 1  
     4    2    4 2  
     5   10   11 2  
     6    6    8 1  
     7    1    3 2  
     8    8    9 2  
     9   12   14 2  
    10    4    5 1  
    11    5    6 2  
    12   11   12 1  
    13   12   13 1  
    14   13    7 1  
    15    1   16 1  
    16    2   17 1  
    17    4   18 1  
    18    5   19 1  
    19    6   20 1  
    20    7   21 1  
    21    8   22 1  
    22    9   23 1  
    23   10   24 1  
    24   11   25 1  
    25   14   26 1  
    26   14   27 1  
# Name:          frag3-281-3/96164
# Creation time: Sat Jun  5 12:53:24 2010


@<TRIPOS>MOLECULE
frag3-281-3/96164
   27    26     1     1     1
SMALL
USER_CHARGES


@<TRIPOS>ATOM
      1 C4         -4.9846    0.2011   -0.4084 C.2        1 <1>        0.000
      2 C6         -3.6255    0.4266    0.0639 C.2        1 <1>        0.000
      3 O3         -5.9900    0.5903    0.1637 O.2        1 <1>        0.000
      4 C8         -2.5007    0.0274   -0.5358 C.2        1 <1>        0.000
      5 C11        -1.1835    0.2844   -0.0640 C.2        1 <1>        0.000
      6 C12         0.0252    0.1040   -0.5875 C.2        1 <1>        0.000
      7 O6          6.6868   -0.5637   -1.6462 O.3        1 <1>        0.000
      8 C13         1.2915    0.4343   -0.0229 C.2        1 <1>        0.000
      9 C14         2.4974    0.1558   -0.5064 C.2        1 <1>        0.000
     10 C15         2.9158   -0.5492   -1.6739 C.2        1 <1>        0.000
     11 C16         3.9600   -1.3769   -1.6988 C.2        1 <1>        0.000
     12 C18         4.8837   -1.7266   -0.6665 C.2        1 <1>        0.000
     13 C19         6.3237   -1.4212   -0.6928 C.2        1 <1>        0.000
     14 C20         4.5908   -2.2627    0.5349 C.2        1 <1>        0.000
     15 O7          7.1327   -1.8969    0.0910 O.2        1 <1>        0.000
     16 H          -5.1128   -0.3540   -1.3377 H.spc      1 <1>        0.000
     17 H          -3.5153    0.9754    0.9992 H.spc      1 <1>        0.000
     18 H          -2.6001   -0.5407   -1.4607 H.spc      1 <1>        0.000
     19 H          -1.1604    0.7200    0.9349 H.spc      1 <1>        0.000
     20 H           0.0511   -0.3556   -1.5755 H.spc      1 <1>        0.000
     21 H           5.9143   -0.3064   -2.1547 H.spc      1 <1>        0.000
     22 H           1.2678    0.9815    0.9195 H.spc      1 <1>        0.000
     23 H           3.3185    0.5362    0.1012 H.spc      1 <1>        0.000
     24 H           2.3513   -0.4031   -2.5948 H.spc      1 <1>        0.000
     25 H           4.1372   -1.8638   -2.6578 H.spc      1 <1>        0.000
     26 H           3.5546   -2.4727    0.8000 H.spc      1 <1>        0.000
     27 H           5.3901   -2.4863    1.2414 H.spc      1 <1>        0.000
@<TRIPOS>BOND
     1    1    2 1  
     2   13   15 2  
     3    9   10 1  
     4    2    4 2  
     5   10   11 2  
     6    6    8 1  
     7    1    3 2  
     8    8    9 2  
     9   12   14 2  
    10    4    5 1  
    11    5    6 2  
    12   11   12 1  
    13   12   13 1  
    14   13    7 1  
    15    1   16 1  
    16    2   17 1  
    17    4   18 1  
    18    5   19 1  
    19    6   20 1  
    20    7   21 1  
    21    8   22 1  
    22    9   23 1  
    23   10   24 1  
    24   11   25 1  
    25   14   26 1  
    26   14   27 1  
# Name:          frag3-281-3/96164
# Creation time: Sat Jun  5 12:53:24 2010


@<TRIPOS>MOLECULE
frag3-281-3/96164
   27    26     1     1     1
SMALL
USER_CHARGES


@<TRIPOS>ATOM
      1 C4         -4.0460    0.7312    0.9203 C.2        1 <1>        0.000
      2 C6         -2.7687    0.6270    0.2133 C.2        1 <1>        0.000
      3 O3         -4.1801    0.7817    2.1339 O.2        1 <1>        0.000
      4 C8         -2.6260    0.4375   -1.1063 C.2        1 <1>        0.000
      5 C11        -1.3888    0.3614   -1.8287 C.2        1 <1>        0.000
      6 C12        -0.2696   -0.2655   -1.4389 C.2        1 <1>        0.000
      7 O6          6.7193   -0.0586   -0.4578 O.3        1 <1>        0.000
      8 C13         0.9816   -0.3599   -2.1248 C.2        1 <1>        0.000
      9 C14         2.0596   -1.0570   -1.7621 C.2        1 <1>        0.000
     10 C15         2.4046   -1.9391   -0.6711 C.2        1 <1>        0.000
     11 C16         3.6681   -2.1721   -0.2668 C.2        1 <1>        0.000
     12 C18         4.9254   -1.6345   -0.7192 C.2        1 <1>        0.000
     13 C19         5.6998   -0.7053    0.1087 C.2        1 <1>        0.000
     14 C20         5.4385   -1.8113   -1.9332 C.2        1 <1>        0.000
     15 O7          5.4057   -0.5087    1.2829 O.2        1 <1>        0.000
     16 H          -4.9517    0.7667    0.3148 H.spc      1 <1>        0.000
     17 H          -1.8592    0.7103    0.8082 H.spc      1 <1>        0.000
     18 H          -3.5413    0.3306   -1.6884 H.spc      1 <1>        0.000
     19 H          -1.3553    0.8655   -2.7946 H.spc      1 <1>        0.000
     20 H          -0.3200   -0.7688   -0.4734 H.spc      1 <1>        0.000
     21 H           6.8030   -0.3349   -1.3733 H.spc      1 <1>        0.000
     22 H           1.0643    0.2044   -3.0537 H.spc      1 <1>        0.000
     23 H           2.8849   -0.9295   -2.4626 H.spc      1 <1>        0.000
     24 H           1.5955   -2.4454   -0.1447 H.spc      1 <1>        0.000
     25 H           3.7542   -2.8942    0.5452 H.spc      1 <1>        0.000
     26 H           4.8978   -2.4020   -2.6727 H.spc      1 <1>        0.000
     27 H           6.3998   -1.3655   -2.1888 H.spc      1 <1>        0.000
@<TRIPOS>BOND
     1    1    2 1  
     2   13   15 2  
     3    9   10 1  
     4    2    4 2  
     5   10   11 2  
     6    6    8 1  
     7    1    3 2  
     8    8    9 2  
     9   12   14 2  
    10    4    5 1  
    11    5    6 2  
    12   11   12 1  
    13   12   13 1  
    14   13    7 1  
    15    1   16 1  
    16    2   17 1  
    17    4   18 1  
    18    5   19 1  
    19    6   20 1  
    20    7   21 1  
    21    8   22 1  
    22    9   23 1  
    23   10   24 1  
    24   11   25 1  
    25   14   26 1  
    26   14   27 1  
# Name:          frag3-281-3/96164
# Creation time: Sat Jun  5 12:53:24 2010


@<TRIPOS>MOLECULE
frag3-281-3/96164
   27    26     1     1     1
SMALL
USER_CHARGES


@<TRIPOS>ATOM
      1 C4         -4.0548    0.6313    0.7710 C.2        1 <1>        0.000
      2 C6         -2.7857    0.6172    0.0457 C.2        1 <1>        0.000
      3 O3         -5.0641    1.2382    0.4420 O.2        1 <1>        0.000
      4 C8         -1.6846   -0.0522    0.4045 C.2        1 <1>        0.000
      5 C11        -0.4430   -0.0757   -0.2892 C.2        1 <1>        0.000
      6 C12        -0.2241   -0.1698   -1.6102 C.2        1 <1>        0.000
      7 O6          4.8930   -0.2666    1.1668 O.3        1 <1>        0.000
      8 C13         1.0109   -0.1704   -2.3203 C.2        1 <1>        0.000
      9 C14         2.0695   -0.9186   -2.0032 C.2        1 <1>        0.000
     10 C15         2.3187   -1.8942   -0.9823 C.2        1 <1>        0.000
     11 C16         3.5190   -2.1883   -0.4728 C.2        1 <1>        0.000
     12 C18         4.8114   -1.6373   -0.7556 C.2        1 <1>        0.000
     13 C19         5.5336   -0.6528    0.0629 C.2        1 <1>        0.000
     14 C20         5.4899   -1.8389   -1.8995 C.2        1 <1>        0.000
     15 O7          6.6336   -0.1952   -0.2093 O.2        1 <1>        0.000
     16 H          -4.1062    0.0470    1.6897 H.spc      1 <1>        0.000
     17 H          -2.7318    1.2054   -0.8704 H.spc      1 <1>        0.000
     18 H          -1.7449   -0.6390    1.3211 H.spc      1 <1>        0.000
     19 H           0.4485   -0.0084    0.3343 H.spc      1 <1>        0.000
     20 H          -1.1183   -0.2583   -2.2272 H.spc      1 <1>        0.000
     21 H           4.0501   -0.7228    1.2225 H.spc      1 <1>        0.000
     22 H           1.0974    0.4877   -3.1849 H.spc      1 <1>        0.000
     23 H           2.9249   -0.7533   -2.6582 H.spc      1 <1>        0.000
     24 H           1.4604   -2.4398   -0.5902 H.spc      1 <1>        0.000
     25 H           3.5140   -2.9758    0.2808 H.spc      1 <1>        0.000
     26 H           5.0591   -2.4573   -2.6869 H.spc      1 <1>        0.000
     27 H           6.4705   -1.3838   -2.0390 H.spc      1 <1>        0.000
@<TRIPOS>BOND
     1    1    2 1  
     2   13   15 2  
     3    9   10 1  
     4    2    4 2  
     5   10   11 2  
     6    6    8 1  
     7    1    3 2  
     8    8    9 2  
     9   12   14 2  
    10    4    5 1  
    11    5    6 2  
    12   11   12 1  
    13   12   13 1  
    14   13    7 1  
    15    1   16 1  
    16    2   17 1  
    17    4   18 1  
    18    5   19 1  
    19    6   20 1  
    20    7   21 1  
    21    8   22 1  
    22    9   23 1  
    23   10   24 1  
    24   11   25 1  
    25   14   26 1  
    26   14   27 1  
# Name:          frag3-281-3/96164
# Creation time: Sat Jun  5 12:53:24 2010


@<TRIPOS>MOLECULE
frag3-281-3/96164
   27    26     1     1     1
SMALL
USER_CHARGES


@<TRIPOS>ATOM
      1 C4         -2.5944   -1.4121   -0.2405 C.2        1 <1>        0.000
      2 C6         -1.3662   -0.6724   -0.5352 C.2        1 <1>        0.000
      3 O3         -2.7271   -2.6278   -0.2883 O.2        1 <1>        0.000
      4 C8         -1.2330    0.6595   -0.6022 C.2        1 <1>        0.000
      5 C11        -0.0458    1.3997   -0.8955 C.2        1 <1>        0.000
      6 C12         1.1846    1.2571   -0.3840 C.2        1 <1>        0.000
      7 O6          1.9523   -2.4567    0.4112 O.3        1 <1>        0.000
      8 C13         2.4121    1.9416   -0.6671 C.2        1 <1>        0.000
      9 C14         3.6495    1.7088   -0.2100 C.2        1 <1>        0.000
     10 C15         4.1875    0.7182    0.6762 C.2        1 <1>        0.000
     11 C16         4.1693   -0.5923    0.3899 C.2        1 <1>        0.000
     12 C18         3.6673   -1.3019   -0.7531 C.2        1 <1>        0.000
     13 C19         2.5436   -2.2524   -0.7693 C.2        1 <1>        0.000
     14 C20         4.0891   -1.1150   -2.0170 C.2        1 <1>        0.000
     15 O7          2.1345   -2.8275   -1.7648 O.2        1 <1>        0.000
     16 H          -3.4687   -0.8282    0.0472 H.spc      1 <1>        0.000
     17 H          -0.4696   -1.2644   -0.7186 H.spc      1 <1>        0.000
     18 H          -2.1324    1.2450   -0.4113 H.spc      1 <1>        0.000
     19 H          -0.1567    2.1897   -1.6382 H.spc      1 <1>        0.000
     20 H           1.2665    0.4854    0.3815 H.spc      1 <1>        0.000
     21 H           2.3934   -1.9326    1.0837 H.spc      1 <1>        0.000
     22 H           2.3252    2.7788   -1.3596 H.spc      1 <1>        0.000
     23 H           4.3941    2.4106   -0.5857 H.spc      1 <1>        0.000
     24 H           4.6283    1.0425    1.6189 H.spc      1 <1>        0.000
     25 H           4.6117   -1.2279    1.1570 H.spc      1 <1>        0.000
     26 H           4.8664   -0.3810   -2.2292 H.spc      1 <1>        0.000
     27 H           3.6535   -1.6976   -2.8287 H.spc      1 <1>        0.000
@<TRIPOS>BOND
     1    1    2 1  
     2   13   15 2  
     3    9   10 1  
     4    2    4 2  
     5   10   11 2  
     6    6    8 1  
     7    1    3 2  
     8    8    9 2  
     9   12   14 2  
    10    4    5 1  
    11    5    6 2  
    12   11   12 1  
    13   12   13 1  
    14   13    7 1  
    15    1   16 1  
    16    2   17 1  
    17    4   18 1  
    18    5   19 1  
    19    6   20 1  
    20    7   21 1  
    21    8   22 1  
    22    9   23 1  
    23   10   24 1  
    24   11   25 1  
    25   14   26 1  
    26   14   27 1  
# Name:          frag3-281-3/96164
# Creation time: Sat Jun  5 12:53:24 2010


@<TRIPOS>MOLECULE
frag3-281-3/96164
   27    26     1     1     1
SMALL
USER_CHARGES


@<TRIPOS>ATOM
      1 C4         -3.3693   -1.2097   -0.0404 C.2        1 <1>        0.000
      2 C6         -2.2973   -0.3652   -0.5647 C.2        1 <1>        0.000
      3 O3         -4.4684   -1.3769   -0.5501 O.2        1 <1>        0.000
      4 C8         -1.0852   -0.1882   -0.0217 C.2        1 <1>        0.000
      5 C11        -0.0458    0.6405   -0.5461 C.2        1 <1>        0.000
      6 C12         1.2374    0.8336   -0.2314 C.2        1 <1>        0.000
      7 O6          3.0201   -2.5911    0.6816 O.3        1 <1>        0.000
      8 C13         2.2060    1.7096   -0.8344 C.2        1 <1>        0.000
      9 C14         3.5258    1.7998   -0.6205 C.2        1 <1>        0.000
     10 C15         4.4090    1.0558    0.2286 C.2        1 <1>        0.000
     11 C16         4.6267   -0.2588    0.0628 C.2        1 <1>        0.000
     12 C18         4.0994   -1.1852   -0.9011 C.2        1 <1>        0.000
     13 C19         3.2258   -2.3320   -0.6129 C.2        1 <1>        0.000
     14 C20         4.2500   -1.0816   -2.2342 C.2        1 <1>        0.000
     15 O7          2.6892   -3.0238   -1.4654 O.2        1 <1>        0.000
     16 H          -3.1706   -1.7395    0.8912 H.spc      1 <1>        0.000
     17 H          -2.5046    0.1740   -1.4891 H.spc      1 <1>        0.000
     18 H          -0.8729   -0.7245    0.9032 H.spc      1 <1>        0.000
     19 H          -0.3726    1.2494   -1.3891 H.spc      1 <1>        0.000
     20 H           1.6051    0.2401    0.6056 H.spc      1 <1>        0.000
     21 H           3.5099   -1.9606    1.2147 H.spc      1 <1>        0.000
     22 H           1.8073    2.4028   -1.5751 H.spc      1 <1>        0.000
     23 H           4.0179    2.5824   -1.1981 H.spc      1 <1>        0.000
     24 H           4.9221    1.5756    1.0376 H.spc      1 <1>        0.000
     25 H           5.3203   -0.6972    0.7803 H.spc      1 <1>        0.000
     26 H           4.8079   -0.2457   -2.6563 H.spc      1 <1>        0.000
     27 H           3.8141   -1.8335   -2.8920 H.spc      1 <1>        0.000
@<TRIPOS>BOND
     1    1    2 1  
     2   13   15 2  
     3    9   10 1  
     4    2    4 2  
     5   10   11 2  
     6    6    8 1  
     7    1    3 2  
     8    8    9 2  
     9   12   14 2  
    10    4    5 1  
    11    5    6 2  
    12   11   12 1  
    13   12   13 1  
    14   13    7 1  
    15    1   16 1  
    16    2   17 1  
    17    4   18 1  
    18    5   19 1  
    19    6   20 1  
    20    7   21 1  
    21    8   22 1  
    22    9   23 1  
    23   10   24 1  
    24   11   25 1  
    25   14   26 1  
    26   14   27 1  
# Name:          frag3-281-3/96164
# Creation time: Sat Jun  5 12:53:24 2010


@<TRIPOS>MOLECULE
frag3-281-3/96164
   27    26     1     1     1
SMALL
USER_CHARGES


@<TRIPOS>ATOM
      1 C4         -4.2043   -0.2657   -0.6221 C.2        1 <1>        0.000
      2 C6         -2.7786   -0.3026   -0.2904 C.2        1 <1>        0.000
      3 O3         -4.9524   -1.2274   -0.7005 O.2        1 <1>        0.000
      4 C8         -1.9487    0.7494   -0.3020 C.2        1 <1>        0.000
      5 C11        -0.5626    0.7331    0.0332 C.2        1 <1>        0.000
      6 C12         0.3737    1.6760    0.1970 C.2        1 <1>        0.000
      7 O6          5.7648   -0.9995   -2.1874 O.3        1 <1>        0.000
      8 C13         1.7578    1.4889    0.5096 C.2        1 <1>        0.000
      9 C14         2.5662    0.6080   -0.0951 C.2        1 <1>        0.000
     10 C15         2.3495   -0.3318   -1.1620 C.2        1 <1>        0.000
     11 C16         3.0751   -1.4311   -1.3826 C.2        1 <1>        0.000
     12 C18         4.2135   -1.9268   -0.6709 C.2        1 <1>        0.000
     13 C19         5.6104   -1.6940   -1.0614 C.2        1 <1>        0.000
     14 C20         4.1786   -2.5566    0.5155 C.2        1 <1>        0.000
     15 O7          6.5803   -2.0930   -0.4307 O.2        1 <1>        0.000
     16 H          -4.6395    0.7143   -0.8178 H.spc      1 <1>        0.000
     17 H          -2.3565   -1.2677   -0.0103 H.spc      1 <1>        0.000
     18 H          -2.3736    1.7093   -0.5957 H.spc      1 <1>        0.000
     19 H          -0.1788   -0.2747    0.1919 H.spc      1 <1>        0.000
     20 H           0.0429    2.7078    0.0783 H.spc      1 <1>        0.000
     21 H           4.9024   -0.7719   -2.5425 H.spc      1 <1>        0.000
     22 H           2.1857    2.1086    1.2976 H.spc      1 <1>        0.000
     23 H           3.5833    0.6026    0.2968 H.spc      1 <1>        0.000
     24 H           1.5256   -0.1304   -1.8466 H.spc      1 <1>        0.000
     25 H           2.7534   -2.0394   -2.2279 H.spc      1 <1>        0.000
     26 H           3.2246   -2.7261    1.0147 H.spc      1 <1>        0.000
     27 H           5.1043   -2.8980    0.9787 H.spc      1 <1>        0.000
@<TRIPOS>BOND
     1    1    2 1  
     2   13   15 2  
     3    9   10 1  
     4    2    4 2  
     5   10   11 2  
     6    6    8 1  
     7    1    3 2  
     8    8    9 2  
     9   12   14 2  
    10    4    5 1  
    11    5    6 2  
    12   11   12 1  
    13   12   13 1  
    14   13    7 1  
    15    1   16 1  
    16    2   17 1  
    17    4   18 1  
    18    5   19 1  
    19    6   20 1  
    20    7   21 1  
    21    8   22 1  
    22    9   23 1  
    23   10   24 1  
    24   11   25 1  
    25   14   26 1  
    26   14   27 1  
# Name:          frag3-281-3/96164
# Creation time: Sat Jun  5 12:53:24 2010


@<TRIPOS>MOLECULE
frag3-281-3/96164
   27    26     1     1     1
SMALL
USER_CHARGES


@<TRIPOS>ATOM
      1 C4         -4.4804   -0.0886   -0.6196 C.2        1 <1>        0.000
      2 C6         -3.0644    0.0415   -0.2815 C.2        1 <1>        0.000
      3 O3         -5.0313   -1.0849   -1.0684 O.2        1 <1>        0.000
      4 C8         -2.4704    1.1334    0.2144 C.2        1 <1>        0.000
      5 C11        -1.1079    1.3328    0.5735 C.2        1 <1>        0.000
      6 C12        -0.0245    0.7672    0.0433 C.2        1 <1>        0.000
      7 O6          6.2357   -1.2703   -2.3248 O.3        1 <1>        0.000
      8 C13         1.3536    0.8706    0.3408 C.2        1 <1>        0.000
      9 C14         2.3745    0.2722   -0.2600 C.2        1 <1>        0.000
     10 C15         2.5046   -0.6309   -1.3505 C.2        1 <1>        0.000
     11 C16         3.4924   -1.5170   -1.4918 C.2        1 <1>        0.000
     12 C18         4.6308   -1.7955   -0.6727 C.2        1 <1>        0.000
     13 C19         6.0482   -1.6471   -1.0578 C.2        1 <1>        0.000
     14 C20         4.5552   -2.1390    0.6277 C.2        1 <1>        0.000
     15 O7          7.0072   -1.8176   -0.3222 O.2        1 <1>        0.000
     16 H          -5.1073    0.7879   -0.4559 H.spc      1 <1>        0.000
     17 H          -2.4338   -0.8317   -0.4488 H.spc      1 <1>        0.000
     18 H          -3.1236    1.9929    0.3647 H.spc      1 <1>        0.000
     19 H          -0.9279    2.0376    1.3852 H.spc      1 <1>        0.000
     20 H          -0.2440    0.0912   -0.7831 H.spc      1 <1>        0.000
     21 H           5.3848   -1.1821   -2.7605 H.spc      1 <1>        0.000
     22 H           1.6112    1.5273    1.1718 H.spc      1 <1>        0.000
     23 H           3.3346    0.5332    0.1852 H.spc      1 <1>        0.000
     24 H           1.7415   -0.5970   -2.1281 H.spc      1 <1>        0.000
     25 H           3.4186   -2.1354   -2.3864 H.spc      1 <1>        0.000
     26 H           3.5833   -2.2182    1.1148 H.spc      1 <1>        0.000
     27 H           5.4659   -2.3377    1.1927 H.spc      1 <1>        0.000
@<TRIPOS>BOND
     1    1    2 1  
     2   13   15 2  
     3    9   10 1  
     4    2    4 2  
     5   10   11 2  
     6    6    8 1  
     7    1    3 2  
     8    8    9 2  
     9   12   14 2  
    10    4    5 1  
    11    5    6 2  
    12   11   12 1  
    13   12   13 1  
    14   13    7 1  
    15    1   16 1  
    16    2   17 1  
    17    4   18 1  
    18    5   19 1  
    19    6   20 1  
    20    7   21 1  
    21    8   22 1  
    22    9   23 1  
    23   10   24 1  
    24   11   25 1  
    25   14   26 1  
    26   14   27 1  
# Name:          frag3-281-3/96164
# Creation time: Sat Jun  5 12:53:24 2010


@<TRIPOS>MOLECULE
frag3-281-3/96164
   27    26     1     1     1
SMALL
USER_CHARGES


@<TRIPOS>ATOM
      1 C4         -2.5791   -1.2370   -1.0293 C.2        1 <1>        0.000
      2 C6         -1.2920   -0.7173   -0.5602 C.2        1 <1>        0.000
      3 O3         -2.9381   -2.4060   -1.0169 O.2        1 <1>        0.000
      4 C8         -0.9217    0.5650   -0.6432 C.2        1 <1>        0.000
      5 C11         0.3185    1.1617   -0.2510 C.2        1 <1>        0.000
      6 C12         1.0902    0.9238    0.8215 C.2        1 <1>        0.000
      7 O6          1.7981   -2.1195   -2.0015 O.3        1 <1>        0.000
      8 C13         2.3425    1.5113    1.2142 C.2        1 <1>        0.000
      9 C14         3.4009    1.6727    0.4046 C.2        1 <1>        0.000
     10 C15         3.5669    1.3466   -0.9928 C.2        1 <1>        0.000
     11 C16         3.6534    0.0891   -1.4567 C.2        1 <1>        0.000
     12 C18         3.6299   -1.1918   -0.8143 C.2        1 <1>        0.000
     13 C19         2.7240   -2.3226   -1.0603 C.2        1 <1>        0.000
     14 C20         4.4605   -1.4600    0.2016 C.2        1 <1>        0.000
     15 O7          2.7693   -3.3892   -0.4652 O.2        1 <1>        0.000
     16 H          -3.2863   -0.5101   -1.4287 H.spc      1 <1>        0.000
     17 H          -0.5902   -1.4221   -0.1143 H.spc      1 <1>        0.000
     18 H          -1.6617    1.2451   -1.0650 H.spc      1 <1>        0.000
     19 H           0.6950    1.9284   -0.9282 H.spc      1 <1>        0.000
     20 H           0.7064    0.1646    1.5030 H.spc      1 <1>        0.000
     21 H           1.9020   -1.2375   -2.3660 H.spc      1 <1>        0.000
     22 H           2.4395    1.8506    2.2455 H.spc      1 <1>        0.000
     23 H           4.2747    2.1215    0.8771 H.spc      1 <1>        0.000
     24 H           3.6251    2.1656   -1.7097 H.spc      1 <1>        0.000
     25 H           3.7636    0.0311   -2.5396 H.spc      1 <1>        0.000
     26 H           5.1624   -0.7008    0.5466 H.spc      1 <1>        0.000
     27 H           4.4345   -2.4374    0.6833 H.spc      1 <1>        0.000
@<TRIPOS>BOND
     1    1    2 1  
     2   13   15 2  
     3    9   10 1  
     4    2    4 2  
     5   10   11 2  
     6    6    8 1  
     7    1    3 2  
     8    8    9 2  
     9   12   14 2  
    10    4    5 1  
    11    5    6 2  
    12   11   12 1  
    13   12   13 1  
    14   13    7 1  
    15    1   16 1  
    16    2   17 1  
    17    4   18 1  
    18    5   19 1  
    19    6   20 1  
    20    7   21 1  
    21    8   22 1  
    22    9   23 1  
    23   10   24 1  
    24   11   25 1  
    25   14   26 1  
    26   14   27 1  
# Name:          frag3-281-3/96164
# Creation time: Sat Jun  5 12:53:24 2010


@<TRIPOS>MOLECULE
frag3-281-3/96164
   27    26     1     1     1
SMALL
USER_CHARGES


@<TRIPOS>ATOM
      1 C4         -4.4510    0.5311    0.2541 C.2        1 <1>        0.000
      2 C6         -3.1221    0.7901   -0.2840 C.2        1 <1>        0.000
      3 O3         -4.8041   -0.3039    1.0692 O.2        1 <1>        0.000
      4 C8         -2.0398    0.1274    0.1253 C.2        1 <1>        0.000
      5 C11        -0.7078    0.3138   -0.3075 C.2        1 <1>        0.000
      6 C12        -0.2416    0.3957   -1.5605 C.2        1 <1>        0.000
      7 O6          5.7140   -1.1849    1.2123 O.3        1 <1>        0.000
      8 C13         1.1072    0.5949   -1.9756 C.2        1 <1>        0.000
      9 C14         2.1485   -0.1085   -1.5301 C.2        1 <1>        0.000
     10 C15         2.2813   -1.1917   -0.6049 C.2        1 <1>        0.000
     11 C16         3.4125   -1.8461   -0.3435 C.2        1 <1>        0.000
     12 C18         4.7406   -1.6758   -0.8587 C.2        1 <1>        0.000
     13 C19         5.9196   -1.2722   -0.0962 C.2        1 <1>        0.000
     14 C20         5.0523   -1.7295   -2.1669 C.2        1 <1>        0.000
     15 O7          7.0139   -1.0135   -0.5827 O.2        1 <1>        0.000
     16 H          -5.2429    1.1762   -0.1266 H.spc      1 <1>        0.000
     17 H          -3.0081    1.5557   -1.0514 H.spc      1 <1>        0.000
     18 H          -2.2007   -0.6444    0.8779 H.spc      1 <1>        0.000
     19 H           0.0384    0.4026    0.4820 H.spc      1 <1>        0.000
     20 H          -0.9804    0.2986   -2.3560 H.spc      1 <1>        0.000
     21 H           4.8050   -1.4230    1.4088 H.spc      1 <1>        0.000
     22 H           1.3011    1.3776   -2.7091 H.spc      1 <1>        0.000
     23 H           3.0981    0.2082   -1.9613 H.spc      1 <1>        0.000
     24 H           1.3850   -1.5072   -0.0708 H.spc      1 <1>        0.000
     25 H           3.3112   -2.6485    0.3872 H.spc      1 <1>        0.000
     26 H           4.2722   -1.9117   -2.9060 H.spc      1 <1>        0.000
     27 H           6.0849   -1.5908   -2.4873 H.spc      1 <1>        0.000
@<TRIPOS>BOND
     1    1    2 1  
     2   13   15 2  
     3    9   10 1  
     4    2    4 2  
     5   10   11 2  
     6    6    8 1  
     7    1    3 2  
     8    8    9 2  
     9   12   14 2  
    10    4    5 1  
    11    5    6 2  
    12   11   12 1  
    13   12   13 1  
    14   13    7 1  
    15    1   16 1  
    16    2   17 1  
    17    4   18 1  
    18    5   19 1  
    19    6   20 1  
    20    7   21 1  
    21    8   22 1  
    22    9   23 1  
    23   10   24 1  
    24   11   25 1  
    25   14   26 1  
    26   14   27 1  
# Name:          frag3-281-3/96164
# Creation time: Sat Jun  5 12:53:24 2010


@<TRIPOS>MOLECULE
frag3-281-3/96164
   27    26     1     1     1
SMALL
USER_CHARGES


@<TRIPOS>ATOM
      1 C4         -5.0236    0.3907   -0.4605 C.2        1 <1>        0.000
      2 C6         -3.6925    0.9299   -0.7158 C.2        1 <1>        0.000
      3 O3         -5.3265   -0.6202    0.1425 O.2        1 <1>        0.000
      4 C8         -2.5942    0.2728   -0.3370 C.2        1 <1>        0.000
      5 C11        -1.2538    0.6843   -0.5336 C.2        1 <1>        0.000
      6 C12        -0.0866    0.0558   -0.4196 C.2        1 <1>        0.000
      7 O6          5.3582   -2.5484   -2.1317 O.3        1 <1>        0.000
      8 C13         1.2041    0.5894   -0.6642 C.2        1 <1>        0.000
      9 C14         2.3780    0.0512   -0.3498 C.2        1 <1>        0.000
     10 C15         2.7774   -1.1406    0.3191 C.2        1 <1>        0.000
     11 C16         4.0247   -1.6106    0.3499 C.2        1 <1>        0.000
     12 C18         5.2260   -1.1282   -0.2457 C.2        1 <1>        0.000
     13 C19         6.0440   -1.8292   -1.2388 C.2        1 <1>        0.000
     14 C20         5.7303    0.1084   -0.1033 C.2        1 <1>        0.000
     15 O7          7.2578   -1.7785   -1.2610 O.2        1 <1>        0.000
     16 H          -5.8548    0.9697   -0.8629 H.spc      1 <1>        0.000
     17 H          -3.5928    1.8880   -1.2258 H.spc      1 <1>        0.000
     18 H          -2.7445   -0.6772    0.1758 H.spc      1 <1>        0.000
     19 H          -1.1589    1.7260   -0.8401 H.spc      1 <1>        0.000
     20 H          -0.1272   -0.9863   -0.1026 H.spc      1 <1>        0.000
     21 H           4.4185   -2.4652   -1.9540 H.spc      1 <1>        0.000
     22 H           1.2375    1.5546   -1.1696 H.spc      1 <1>        0.000
     23 H           3.2231    0.6570   -0.6768 H.spc      1 <1>        0.000
     24 H           2.0090   -1.7090    0.8431 H.spc      1 <1>        0.000
     25 H           4.1469   -2.5236    0.9326 H.spc      1 <1>        0.000
     26 H           5.2096    0.8417    0.5125 H.spc      1 <1>        0.000
     27 H           6.6603    0.3787   -0.6035 H.spc      1 <1>        0.000
@<TRIPOS>BOND
     1    1    2 1  
     2   13   15 2  
     3    9   10 1  
     4    2    4 2  
     5   10   11 2  
     6    6    8 1  
     7    1    3 2  
     8    8    9 2  
     9   12   14 2  
    10    4    5 1  
    11    5    6 2  
    12   11   12 1  
    13   12   13 1  
    14   13    7 1  
    15    1   16 1  
    16    2   17 1  
    17    4   18 1  
    18    5   19 1  
    19    6   20 1  
    20    7   21 1  
    21    8   22 1  
    22    9   23 1  
    23   10   24 1  
    24   11   25 1  
    25   14   26 1  
    26   14   27 1  
# Name:          frag3-281-3/96164
# Creation time: Sat Jun  5 12:53:24 2010


@<TRIPOS>MOLECULE
frag3-281-3/96164
   27    26     1     1     1
SMALL
USER_CHARGES


@<TRIPOS>ATOM
      1 C4         -4.0711   -0.1042    0.4722 C.2        1 <1>        0.000
      2 C6         -2.6163    0.0177    0.3705 C.2        1 <1>        0.000
      3 O3         -4.6975   -0.5213    1.4362 O.2        1 <1>        0.000
      4 C8         -1.9701    0.5320   -0.6858 C.2        1 <1>        0.000
      5 C11        -0.5579    0.6821   -0.8152 C.2        1 <1>        0.000
      6 C12         0.2524    1.2322   -1.7293 C.2        1 <1>        0.000
      7 O6          4.3935   -0.9554    1.1931 O.3        1 <1>        0.000
      8 C13         1.6844    1.2536   -1.7036 C.2        1 <1>        0.000
      9 C14         2.4800    0.1925   -1.5135 C.2        1 <1>        0.000
     10 C15         2.2492   -1.2139   -1.3181 C.2        1 <1>        0.000
     11 C16         3.1668   -2.1556   -1.0737 C.2        1 <1>        0.000
     12 C18         4.5752   -1.9732   -0.9159 C.2        1 <1>        0.000
     13 C19         5.2350   -1.2930    0.2139 C.2        1 <1>        0.000
     14 C20         5.4768   -2.2470   -1.8667 C.2        1 <1>        0.000
     15 O7          6.4229   -1.0198    0.2864 O.2        1 <1>        0.000
     16 H          -4.6528    0.2070   -0.3955 H.spc      1 <1>        0.000
     17 H          -2.0172   -0.3335    1.2107 H.spc      1 <1>        0.000
     18 H          -2.5814    0.8666   -1.5239 H.spc      1 <1>        0.000
     19 H          -0.0117    0.2494    0.0230 H.spc      1 <1>        0.000
     20 H          -0.2280    1.7135   -2.5812 H.spc      1 <1>        0.000
     21 H           3.5075   -1.2478    0.9671 H.spc      1 <1>        0.000
     22 H           2.1697    2.2183   -1.8518 H.spc      1 <1>        0.000
     23 H           3.5384    0.4530   -1.5050 H.spc      1 <1>        0.000
     24 H           1.2134   -1.5485   -1.3755 H.spc      1 <1>        0.000
     25 H           2.7987   -3.1777   -0.9848 H.spc      1 <1>        0.000
     26 H           5.1505   -2.6341   -2.8320 H.spc      1 <1>        0.000
     27 H           6.5373   -2.0828   -1.6756 H.spc      1 <1>        0.000
@<TRIPOS>BOND
     1    1    2 1  
     2   13   15 2  
     3    9   10 1  
     4    2    4 2  
     5   10   11 2  
     6    6    8 1  
     7    1    3 2  
     8    8    9 2  
     9   12   14 2  
    10    4    5 1  
    11    5    6 2  
    12   11   12 1  
    13   12   13 1  
    14   13    7 1  
    15    1   16 1  
    16    2   17 1  
    17    4   18 1  
    18    5   19 1  
    19    6   20 1  
    20    7   21 1  
    21    8   22 1  
    22    9   23 1  
    23   10   24 1  
    24   11   25 1  
    25   14   26 1  
    26   14   27 1  
# Name:          frag3-281-3/96164
# Creation time: Sat Jun  5 12:53:24 2010


@<TRIPOS>MOLECULE
frag3-281-3/96164
   27    26     1     1     1
SMALL
USER_CHARGES


@<TRIPOS>ATOM
      1 C4         -4.0717   -0.7185   -0.9818 C.2        1 <1>        0.000
      2 C6         -2.6250   -0.5439   -1.0942 C.2        1 <1>        0.000
      3 O3         -4.8684   -0.0327   -0.3633 O.2        1 <1>        0.000
      4 C8         -1.9575    0.3819   -0.3895 C.2        1 <1>        0.000
      5 C11        -0.5553    0.6423   -0.3922 C.2        1 <1>        0.000
      6 C12         0.2391    1.4267    0.3492 C.2        1 <1>        0.000
      7 O6          4.1672   -1.9041   -2.5243 O.3        1 <1>        0.000
      8 C13         1.6609    1.5370    0.2394 C.2        1 <1>        0.000
      9 C14         2.5245    0.5149    0.2604 C.2        1 <1>        0.000
     10 C15         2.3937   -0.9031    0.4139 C.2        1 <1>        0.000
     11 C16         3.3313   -1.8286    0.2011 C.2        1 <1>        0.000
     12 C18         4.6729   -1.6573   -0.2569 C.2        1 <1>        0.000
     13 C19         5.1462   -1.6718   -1.6502 C.2        1 <1>        0.000
     14 C20         5.6736   -1.3273    0.5696 C.2        1 <1>        0.000
     15 O7          6.2919   -1.4886   -2.0310 O.2        1 <1>        0.000
     16 H          -4.4917   -1.5691   -1.5186 H.spc      1 <1>        0.000
     17 H          -2.0689   -1.1887   -1.7747 H.spc      1 <1>        0.000
     18 H          -2.5601    1.0118    0.2648 H.spc      1 <1>        0.000
     19 H          -0.0160    0.0861   -1.1589 H.spc      1 <1>        0.000
     20 H          -0.2451    2.0398    1.1093 H.spc      1 <1>        0.000
     21 H           3.3400   -2.0239   -2.0522 H.spc      1 <1>        0.000
     22 H           2.0763    2.5387    0.1293 H.spc      1 <1>        0.000
     23 H           3.5592    0.8327    0.1319 H.spc      1 <1>        0.000
     24 H           1.4197   -1.2669    0.7410 H.spc      1 <1>        0.000
     25 H           3.0318   -2.8566    0.4049 H.spc      1 <1>        0.000
     26 H           5.4773   -1.1801    1.6316 H.spc      1 <1>        0.000
     27 H           6.6844   -1.2059    0.1803 H.spc      1 <1>        0.000
@<TRIPOS>BOND
     1    1    2 1  
     2   13   15 2  
     3    9   10 1  
     4    2    4 2  
     5   10   11 2  
     6    6    8 1  
     7    1    3 2  
     8    8    9 2  
     9   12   14 2  
    10    4    5 1  
    11    5    6 2  
    12   11   12 1  
    13   12   13 1  
    14   13    7 1  
    15    1   16 1  
    16    2   17 1  
    17    4   18 1  
    18    5   19 1  
    19    6   20 1  
    20    7   21 1  
    21    8   22 1  
    22    9   23 1  
    23   10   24 1  
    24   11   25 1  
    25   14   26 1  
    26   14   27 1  
# Name:          frag3-281-3/96164
# Creation time: Sat Jun  5 12:53:24 2010


@<TRIPOS>MOLECULE
frag3-281-3/96164
   27    26     1     1     1
SMALL
USER_CHARGES


@<TRIPOS>ATOM
      1 C4         -4.4494   -0.0672    0.3034 C.2        1 <1>        0.000
      2 C6         -3.0674    0.2715   -0.0327 C.2        1 <1>        0.000
      3 O3         -4.8803   -0.2757    1.4294 O.2        1 <1>        0.000
      4 C8         -2.5788    0.4819   -1.2636 C.2        1 <1>        0.000
      5 C11        -1.2414    0.8406   -1.6040 C.2        1 <1>        0.000
      6 C12        -0.1051    0.4089   -1.0502 C.2        1 <1>        0.000
      7 O6          6.3623   -1.1873    0.7876 O.3        1 <1>        0.000
      8 C13         1.2471    0.7719   -1.3185 C.2        1 <1>        0.000
      9 C14         2.3493    0.2944   -0.7490 C.2        1 <1>        0.000
     10 C15         2.5808   -0.7060    0.2454 C.2        1 <1>        0.000
     11 C16         3.5913   -1.5761    0.1903 C.2        1 <1>        0.000
     12 C18         4.6523   -1.7349   -0.7505 C.2        1 <1>        0.000
     13 C19         6.0860   -1.5160   -0.4804 C.2        1 <1>        0.000
     14 C20         4.4902   -1.9518   -2.0602 C.2        1 <1>        0.000
     15 O7          6.9865   -1.6273   -1.2966 O.2        1 <1>        0.000
     16 H          -5.1580   -0.1404   -0.5216 H.spc      1 <1>        0.000
     17 H          -2.3667    0.3617    0.7973 H.spc      1 <1>        0.000
     18 H          -3.2781    0.3665   -2.0917 H.spc      1 <1>        0.000
     19 H          -1.1326    1.5570   -2.4183 H.spc      1 <1>        0.000
     20 H          -0.2320   -0.3402   -0.2687 H.spc      1 <1>        0.000
     21 H           5.5459   -1.1430    1.2907 H.spc      1 <1>        0.000
     22 H           1.3953    1.5338   -2.0838 H.spc      1 <1>        0.000
     23 H           3.2636    0.7613   -1.1153 H.spc      1 <1>        0.000
     24 H           1.8968   -0.7611    1.0923 H.spc      1 <1>        0.000
     25 H           3.6093   -2.2937    1.0106 H.spc      1 <1>        0.000
     26 H           3.4871   -2.0191   -2.4814 H.spc      1 <1>        0.000
     27 H           5.3611   -2.0612   -2.7064 H.spc      1 <1>        0.000
@<TRIPOS>BOND
     1    1    2 1  
     2   13   15 2  
     3    9   10 1  
     4    2    4 2  
     5   10   11 2  
     6    6    8 1  
     7    1    3 2  
     8    8    9 2  
     9   12   14 2  
    10    4    5 1  
    11    5    6 2  
    12   11   12 1  
    13   12   13 1  
    14   13    7 1  
    15    1   16 1  
    16    2   17 1  
    17    4   18 1  
    18    5   19 1  
    19    6   20 1  
    20    7   21 1  
    21    8   22 1  
    22    9   23 1  
    23   10   24 1  
    24   11   25 1  
    25   14   26 1  
    26   14   27 1  
# Name:          frag3-281-3/96164
# Creation time: Sat Jun  5 12:53:24 2010


@<TRIPOS>MOLECULE
frag3-281-3/96164
   27    26     1     1     1
SMALL
USER_CHARGES


@<TRIPOS>ATOM
      1 C4         -4.2440   -0.1677    0.5766 C.2        1 <1>        0.000
      2 C6         -2.8563    0.1674    0.2666 C.2        1 <1>        0.000
      3 O3         -4.6153   -1.1059    1.2699 O.2        1 <1>        0.000
      4 C8         -2.4449    1.1094   -0.5918 C.2        1 <1>        0.000
      5 C11        -1.1012    1.4654   -0.9053 C.2        1 <1>        0.000
      6 C12        -0.0525    0.6506   -1.0632 C.2        1 <1>        0.000
      7 O6          5.3865   -2.8600    0.7704 O.3        1 <1>        0.000
      8 C13         1.3090    0.9514   -1.3419 C.2        1 <1>        0.000
      9 C14         2.3132    0.1077   -1.5685 C.2        1 <1>        0.000
     10 C15         2.4570   -1.3133   -1.6505 C.2        1 <1>        0.000
     11 C16         3.6030   -1.9733   -1.4516 C.2        1 <1>        0.000
     12 C18         4.8960   -1.4858   -1.0945 C.2        1 <1>        0.000
     13 C19         5.5444   -1.6623    0.2068 C.2        1 <1>        0.000
     14 C20         5.6718   -0.6860   -1.8427 C.2        1 <1>        0.000
     15 O7          6.1568   -0.7710    0.7700 O.2        1 <1>        0.000
     16 H          -5.0168    0.4740    0.1534 H.spc      1 <1>        0.000
     17 H          -2.0834   -0.4026    0.7822 H.spc      1 <1>        0.000
     18 H          -3.2260    1.6666   -1.1090 H.spc      1 <1>        0.000
     19 H          -0.9044    2.5300   -1.0316 H.spc      1 <1>        0.000
     20 H          -0.2768   -0.4113   -0.9624 H.spc      1 <1>        0.000
     21 H           4.8814   -3.4254    0.1815 H.spc      1 <1>        0.000
     22 H           1.5634    2.0108   -1.3742 H.spc      1 <1>        0.000
     23 H           3.2577    0.6268   -1.7316 H.spc      1 <1>        0.000
     24 H           1.5702   -1.8992   -1.8921 H.spc      1 <1>        0.000
     25 H           3.5396   -3.0535   -1.5829 H.spc      1 <1>        0.000
     26 H           5.3262   -0.3511   -2.8207 H.spc      1 <1>        0.000
     27 H           6.6475   -0.3713   -1.4723 H.spc      1 <1>        0.000
@<TRIPOS>BOND
     1    1    2 1  
     2   13   15 2  
     3    9   10 1  
     4    2    4 2  
     5   10   11 2  
     6    6    8 1  
     7    1    3 2  
     8    8    9 2  
     9   12   14 2  
    10    4    5 1  
    11    5    6 2  
    12   11   12 1  
    13   12   13 1  
    14   13    7 1  
    15    1   16 1  
    16    2   17 1  
    17    4   18 1  
    18    5   19 1  
    19    6   20 1  
    20    7   21 1  
    21    8   22 1  
    22    9   23 1  
    23   10   24 1  
    24   11   25 1  
    25   14   26 1  
    26   14   27 1  
# Name:          frag3-281-3/96164
# Creation time: Sat Jun  5 12:53:24 2010


@<TRIPOS>MOLECULE
frag3-281-3/96164
   27    26     1     1     1
SMALL
USER_CHARGES


@<TRIPOS>ATOM
      1 C4         -4.7029    0.1946    0.4476 C.2        1 <1>        0.000
      2 C6         -3.4747    0.1210   -0.3196 C.2        1 <1>        0.000
      3 O3         -5.7958   -0.1318    0.0144 O.2        1 <1>        0.000
      4 C8         -2.2925    0.5835    0.0931 C.2        1 <1>        0.000
      5 C11        -1.0898    0.5122   -0.6718 C.2        1 <1>        0.000
      6 C12         0.1485    0.9457   -0.4227 C.2        1 <1>        0.000
      7 O6          7.0522   -1.2855   -1.5134 O.3        1 <1>        0.000
      8 C13         1.2878    0.7950   -1.2705 C.2        1 <1>        0.000
      9 C14         2.3101   -0.0312   -1.0396 C.2        1 <1>        0.000
     10 C15         2.6461   -0.9562    0.0166 C.2        1 <1>        0.000
     11 C16         3.7446   -1.7293    0.0215 C.2        1 <1>        0.000
     12 C18         4.8287   -1.8419   -0.9074 C.2        1 <1>        0.000
     13 C19         6.1727   -1.4171   -0.5316 C.2        1 <1>        0.000
     14 C20         4.7242   -2.1695   -2.1965 C.2        1 <1>        0.000
     15 O7          6.4642   -1.1626    0.6300 O.2        1 <1>        0.000
     16 H          -4.6465    0.5633    1.4718 H.spc      1 <1>        0.000
     17 H          -3.5200   -0.3454   -1.3037 H.spc      1 <1>        0.000
     18 H          -2.2425    1.0459    1.0789 H.spc      1 <1>        0.000
     19 H          -1.2024    0.0132   -1.6343 H.spc      1 <1>        0.000
     20 H           0.3053    1.4665    0.5219 H.spc      1 <1>        0.000
     21 H           6.6404   -1.5303   -2.3453 H.spc      1 <1>        0.000
     22 H           1.3253    1.4013   -2.1756 H.spc      1 <1>        0.000
     23 H           3.0625   -0.0006   -1.8277 H.spc      1 <1>        0.000
     24 H           1.9650   -1.0321    0.8642 H.spc      1 <1>        0.000
     25 H           3.8251   -2.3880    0.8862 H.spc      1 <1>        0.000
     26 H           3.7455   -2.3796   -2.6278 H.spc      1 <1>        0.000
     27 H           5.6176   -2.2270   -2.8184 H.spc      1 <1>        0.000
@<TRIPOS>BOND
     1    1    2 1  
     2   13   15 2  
     3    9   10 1  
     4    2    4 2  
     5   10   11 2  
     6    6    8 1  
     7    1    3 2  
     8    8    9 2  
     9   12   14 2  
    10    4    5 1  
    11    5    6 2  
    12   11   12 1  
    13   12   13 1  
    14   13    7 1  
    15    1   16 1  
    16    2   17 1  
    17    4   18 1  
    18    5   19 1  
    19    6   20 1  
    20    7   21 1  
    21    8   22 1  
    22    9   23 1  
    23   10   24 1  
    24   11   25 1  
    25   14   26 1  
    26   14   27 1  
# Name:          frag3-281-3/96164
# Creation time: Sat Jun  5 12:53:24 2010


@<TRIPOS>MOLECULE
frag3-281-3/96164
   27    26     1     1     1
SMALL
USER_CHARGES


@<TRIPOS>ATOM
      1 C4         -3.1475    1.0850   -1.6026 C.2        1 <1>        0.000
      2 C6         -2.3008    0.1090   -0.9155 C.2        1 <1>        0.000
      3 O3         -4.2543    0.8684   -2.0765 O.2        1 <1>        0.000
      4 C8         -1.0738    0.3396   -0.4282 C.2        1 <1>        0.000
      5 C11        -0.2675   -0.6164    0.2717 C.2        1 <1>        0.000
      6 C12         0.9545   -0.5641    0.8185 C.2        1 <1>        0.000
      7 O6          3.4343   -0.9437   -3.1740 O.3        1 <1>        0.000
      8 C13         1.6744   -1.5985    1.5207 C.2        1 <1>        0.000
      9 C14         2.9733   -1.6604    1.8530 C.2        1 <1>        0.000
     10 C15         4.0781   -0.7734    1.6062 C.2        1 <1>        0.000
     11 C16         4.5746   -0.6047    0.3692 C.2        1 <1>        0.000
     12 C18         4.1987   -1.1718   -0.9010 C.2        1 <1>        0.000
     13 C19         3.6248   -0.3730   -1.9887 C.2        1 <1>        0.000
     14 C20         4.2168   -2.4750   -1.2000 C.2        1 <1>        0.000
     15 O7          3.3379    0.8059   -1.8026 O.2        1 <1>        0.000
     16 H          -2.7562    2.0976   -1.7011 H.spc      1 <1>        0.000
     17 H          -2.7043   -0.8956   -0.7887 H.spc      1 <1>        0.000
     18 H          -0.6551    1.3350   -0.5762 H.spc      1 <1>        0.000
     19 H          -0.7485   -1.5883    0.3821 H.spc      1 <1>        0.000
     20 H           1.4750    0.3885    0.7195 H.spc      1 <1>        0.000
     21 H           3.7131   -1.8615   -3.1345 H.spc      1 <1>        0.000
     22 H           1.0751   -2.4561    1.8264 H.spc      1 <1>        0.000
     23 H           3.2421   -2.5532    2.4176 H.spc      1 <1>        0.000
     24 H           4.5213   -0.2273    2.4390 H.spc      1 <1>        0.000
     25 H           5.4151    0.0874    0.3170 H.spc      1 <1>        0.000
     26 H           4.5347   -3.2014   -0.4521 H.spc      1 <1>        0.000
     27 H           3.9136   -2.8109   -2.1916 H.spc      1 <1>        0.000
@<TRIPOS>BOND
     1    1    2 1  
     2   13   15 2  
     3    9   10 1  
     4    2    4 2  
     5   10   11 2  
     6    6    8 1  
     7    1    3 2  
     8    8    9 2  
     9   12   14 2  
    10    4    5 1  
    11    5    6 2  
    12   11   12 1  
    13   12   13 1  
    14   13    7 1  
    15    1   16 1  
    16    2   17 1  
    17    4   18 1  
    18    5   19 1  
    19    6   20 1  
    20    7   21 1  
    21    8   22 1  
    22    9   23 1  
    23   10   24 1  
    24   11   25 1  
    25   14   26 1  
    26   14   27 1  
# Name:          frag3-281-3/96164
# Creation time: Sat Jun  5 12:53:24 2010


@<TRIPOS>MOLECULE
frag3-281-3/96164
   27    26     1     1     1
SMALL
USER_CHARGES


@<TRIPOS>ATOM
      1 C4         -4.1929    0.0335    0.6739 C.2        1 <1>        0.000
      2 C6         -2.9621   -0.1101   -0.1003 C.2        1 <1>        0.000
      3 O3         -5.0930   -0.7874    0.7691 O.2        1 <1>        0.000
      4 C8         -1.9907    0.8083   -0.1505 C.2        1 <1>        0.000
      5 C11        -0.7619    0.7261   -0.8593 C.2        1 <1>        0.000
      6 C12         0.3462    1.4629   -0.9532 C.2        1 <1>        0.000
      7 O6          5.3032   -1.0907    1.2023 O.3        1 <1>        0.000
      8 C13         1.5303    1.1920   -1.7083 C.2        1 <1>        0.000
      9 C14         2.2699    0.0813   -1.6285 C.2        1 <1>        0.000
     10 C15         2.1968   -1.1297   -0.8610 C.2        1 <1>        0.000
     11 C16         3.2099   -1.9518   -0.5794 C.2        1 <1>        0.000
     12 C18         4.5902   -1.8858   -0.9178 C.2        1 <1>        0.000
     13 C19         5.6882   -1.4449   -0.0295 C.2        1 <1>        0.000
     14 C20         5.0279   -2.1129   -2.1595 C.2        1 <1>        0.000
     15 O7          6.8613   -1.3641   -0.3475 O.2        1 <1>        0.000
     16 H          -4.3211    0.9670    1.2218 H.spc      1 <1>        0.000
     17 H          -2.8264   -1.0263   -0.6750 H.spc      1 <1>        0.000
     18 H          -2.1611    1.7234    0.4166 H.spc      1 <1>        0.000
     19 H          -0.7121   -0.1650   -1.4850 H.spc      1 <1>        0.000
     20 H           0.3497    2.3906   -0.3809 H.spc      1 <1>        0.000
     21 H           4.3550   -1.2139    1.2878 H.spc      1 <1>        0.000
     22 H           1.8584    1.9584   -2.4104 H.spc      1 <1>        0.000
     23 H           3.1267    0.0993   -2.3020 H.spc      1 <1>        0.000
     24 H           1.2174   -1.4049   -0.4697 H.spc      1 <1>        0.000
     25 H           2.9317   -2.8242    0.0118 H.spc      1 <1>        0.000
     26 H           4.3194   -2.3578   -2.9508 H.spc      1 <1>        0.000
     27 H           6.0935   -2.0533   -2.3812 H.spc      1 <1>        0.000
@<TRIPOS>BOND
     1    1    2 1  
     2   13   15 2  
     3    9   10 1  
     4    2    4 2  
     5   10   11 2  
     6    6    8 1  
     7    1    3 2  
     8    8    9 2  
     9   12   14 2  
    10    4    5 1  
    11    5    6 2  
    12   11   12 1  
    13   12   13 1  
    14   13    7 1  
    15    1   16 1  
    16    2   17 1  
    17    4   18 1  
    18    5   19 1  
    19    6   20 1  
    20    7   21 1  
    21    8   22 1  
    22    9   23 1  
    23   10   24 1  
    24   11   25 1  
    25   14   26 1  
    26   14   27 1  
# Name:          frag3-281-3/96164
# Creation time: Sat Jun  5 12:53:24 2010


@<TRIPOS>MOLECULE
frag3-281-3/96164
   27    26     1     1     1
SMALL
USER_CHARGES


@<TRIPOS>ATOM
      1 C4         -2.9020   -1.2825   -0.5543 C.2        1 <1>        0.000
      2 C6         -1.7171   -0.4335   -0.4240 C.2        1 <1>        0.000
      3 O3         -3.3833   -1.9919    0.3176 O.2        1 <1>        0.000
      4 C8         -1.1120    0.2462   -1.4060 C.2        1 <1>        0.000
      5 C11         0.0235    1.1105   -1.3271 C.2        1 <1>        0.000
      6 C12         1.0981    1.0223   -0.5390 C.2        1 <1>        0.000
      7 O6          2.3183   -2.8911   -0.1425 O.3        1 <1>        0.000
      8 C13         2.2516    1.8381   -0.3459 C.2        1 <1>        0.000
      9 C14         3.3421    1.6312    0.3995 C.2        1 <1>        0.000
     10 C15         3.7640    0.5436    1.2160 C.2        1 <1>        0.000
     11 C16         4.0024   -0.6864    0.7398 C.2        1 <1>        0.000
     12 C18         3.9196   -1.2063   -0.5943 C.2        1 <1>        0.000
     13 C19         2.9907   -2.2411   -1.0951 C.2        1 <1>        0.000
     14 C20         4.6351   -0.7191   -1.6238 C.2        1 <1>        0.000
     15 O7          2.7923   -2.5132   -2.2706 O.2        1 <1>        0.000
     16 H          -3.4039   -1.2824   -1.5219 H.spc      1 <1>        0.000
     17 H          -1.2838   -0.3457    0.5723 H.spc      1 <1>        0.000
     18 H          -1.5435    0.1239   -2.3995 H.spc      1 <1>        0.000
     19 H           0.0106    1.9627   -2.0066 H.spc      1 <1>        0.000
     20 H           1.0921    0.1346    0.0935 H.spc      1 <1>        0.000
     21 H           2.5873   -2.5625    0.7185 H.spc      1 <1>        0.000
     22 H           2.2429    2.7807   -0.8933 H.spc      1 <1>        0.000
     23 H           4.0492    2.4605    0.3778 H.spc      1 <1>        0.000
     24 H           3.9001    0.7204    2.2829 H.spc      1 <1>        0.000
     25 H           4.3106   -1.4127    1.4919 H.spc      1 <1>        0.000
     26 H           5.3209    0.1132   -1.4654 H.spc      1 <1>        0.000
     27 H           4.5291   -1.1565   -2.6165 H.spc      1 <1>        0.000
@<TRIPOS>BOND
     1    1    2 1  
     2   13   15 2  
     3    9   10 1  
     4    2    4 2  
     5   10   11 2  
     6    6    8 1  
     7    1    3 2  
     8    8    9 2  
     9   12   14 2  
    10    4    5 1  
    11    5    6 2  
    12   11   12 1  
    13   12   13 1  
    14   13    7 1  
    15    1   16 1  
    16    2   17 1  
    17    4   18 1  
    18    5   19 1  
    19    6   20 1  
    20    7   21 1  
    21    8   22 1  
    22    9   23 1  
    23   10   24 1  
    24   11   25 1  
    25   14   26 1  
    26   14   27 1  
# Name:          frag3-281-3/96164
# Creation time: Sat Jun  5 12:53:24 2010


@<TRIPOS>MOLECULE
frag3-281-3/96164
   27    26     1     1     1
SMALL
USER_CHARGES


@<TRIPOS>ATOM
      1 C4         -4.5118   -0.0497   -0.4725 C.2        1 <1>        0.000
      2 C6         -3.1086    0.2305   -0.1920 C.2        1 <1>        0.000
      3 O3         -5.4508    0.6849   -0.1873 O.2        1 <1>        0.000
      4 C8         -2.0679   -0.5721   -0.4546 C.2        1 <1>        0.000
      5 C11        -0.6971   -0.2871   -0.1727 C.2        1 <1>        0.000
      6 C12        -0.0415    0.8659   -0.2940 C.2        1 <1>        0.000
      7 O6          6.0151   -1.2885   -2.3297 O.3        1 <1>        0.000
      8 C13         1.3160    1.1757   -0.0067 C.2        1 <1>        0.000
      9 C14         2.3417    0.4108   -0.3874 C.2        1 <1>        0.000
     10 C15         2.3982   -0.7997   -1.1458 C.2        1 <1>        0.000
     11 C16         3.4170   -1.6629   -1.1220 C.2        1 <1>        0.000
     12 C18         4.6459   -1.6168   -0.4114 C.2        1 <1>        0.000
     13 C19         5.9816   -1.5212   -1.0166 C.2        1 <1>        0.000
     14 C20         4.7633   -1.5140    0.9305 C.2        1 <1>        0.000
     15 O7          7.0221   -1.6290   -0.3875 O.2        1 <1>        0.000
     16 H          -4.7445   -0.9878   -0.9763 H.spc      1 <1>        0.000
     17 H          -2.8837    1.1879    0.2780 H.spc      1 <1>        0.000
     18 H          -2.2878   -1.5298   -0.9264 H.spc      1 <1>        0.000
     19 H          -0.1069   -1.1280    0.1914 H.spc      1 <1>        0.000
     20 H          -0.6359    1.6983   -0.6707 H.spc      1 <1>        0.000
     21 H           5.1179   -1.2320   -2.6665 H.spc      1 <1>        0.000
     22 H           1.5305    2.0856    0.5539 H.spc      1 <1>        0.000
     23 H           3.3149    0.7764   -0.0598 H.spc      1 <1>        0.000
     24 H           1.5500   -1.0347   -1.7888 H.spc      1 <1>        0.000
     25 H           3.2840   -2.5447   -1.7488 H.spc      1 <1>        0.000
     26 H           3.8703   -1.4595    1.5531 H.spc      1 <1>        0.000
     27 H           5.7510   -1.4855    1.3906 H.spc      1 <1>        0.000
@<TRIPOS>BOND
     1    1    2 1  
     2   13   15 2  
     3    9   10 1  
     4    2    4 2  
     5   10   11 2  
     6    6    8 1  
     7    1    3 2  
     8    8    9 2  
     9   12   14 2  
    10    4    5 1  
    11    5    6 2  
    12   11   12 1  
    13   12   13 1  
    14   13    7 1  
    15    1   16 1  
    16    2   17 1  
    17    4   18 1  
    18    5   19 1  
    19    6   20 1  
    20    7   21 1  
    21    8   22 1  
    22    9   23 1  
    23   10   24 1  
    24   11   25 1  
    25   14   26 1  
    26   14   27 1  
# Name:          frag3-281-3/96164
# Creation time: Sat Jun  5 12:53:24 2010


@<TRIPOS>MOLECULE
frag3-281-3/96164
   27    26     1     1     1
SMALL
USER_CHARGES


@<TRIPOS>ATOM
      1 C4         -2.4559   -1.4218   -0.5143 C.2        1 <1>        0.000
      2 C6         -1.1860   -0.7008   -0.5724 C.2        1 <1>        0.000
      3 O3         -2.8582   -2.2326   -1.3382 O.2        1 <1>        0.000
      4 C8         -0.7884    0.2729    0.2519 C.2        1 <1>        0.000
      5 C11         0.4496    0.9762    0.2500 C.2        1 <1>        0.000
      6 C12         1.2204    1.3571   -0.7748 C.2        1 <1>        0.000
      7 O6          1.6396   -2.5848   -0.1229 O.3        1 <1>        0.000
      8 C13         2.4738    2.0367   -0.7686 C.2        1 <1>        0.000
      9 C14         3.5220    1.7266   -0.0001 C.2        1 <1>        0.000
     10 C15         3.6977    0.6699    0.9547 C.2        1 <1>        0.000
     11 C16         3.6896   -0.6325    0.6301 C.2        1 <1>        0.000
     12 C18         3.5420   -1.2849   -0.6431 C.2        1 <1>        0.000
     13 C19         2.4582   -2.1801   -1.0876 C.2        1 <1>        0.000
     14 C20         4.3812   -1.0712   -1.6726 C.2        1 <1>        0.000
     15 O7          2.2379   -2.5039   -2.2419 O.2        1 <1>        0.000
     16 H          -3.1028   -1.2193    0.3393 H.spc      1 <1>        0.000
     17 H          -0.4953   -0.9853   -1.3662 H.spc      1 <1>        0.000
     18 H          -1.5015    0.5655    1.0226 H.spc      1 <1>        0.000
     19 H           0.8277    1.2460    1.2361 H.spc      1 <1>        0.000
     20 H           0.8319    1.1110   -1.7630 H.spc      1 <1>        0.000
     21 H           1.9497   -2.2477    0.7208 H.spc      1 <1>        0.000
     22 H           2.5865    2.8811   -1.4486 H.spc      1 <1>        0.000
     23 H           4.3840    2.3833   -0.1176 H.spc      1 <1>        0.000
     24 H           3.8458    0.9395    2.0004 H.spc      1 <1>        0.000
     25 H           3.8163   -1.3103    1.4742 H.spc      1 <1>        0.000
     26 H           5.2156   -0.3788   -1.5609 H.spc      1 <1>        0.000
     27 H           4.2268   -1.5905   -2.6184 H.spc      1 <1>        0.000
@<TRIPOS>BOND
     1    1    2 1  
     2   13   15 2  
     3    9   10 1  
     4    2    4 2  
     5   10   11 2  
     6    6    8 1  
     7    1    3 2  
     8    8    9 2  
     9   12   14 2  
    10    4    5 1  
    11    5    6 2  
    12   11   12 1  
    13   12   13 1  
    14   13    7 1  
    15    1   16 1  
    16    2   17 1  
    17    4   18 1  
    18    5   19 1  
    19    6   20 1  
    20    7   21 1  
    21    8   22 1  
    22    9   23 1  
    23   10   24 1  
    24   11   25 1  
    25   14   26 1  
    26   14   27 1  
# Name:          frag3-281-3/96164
# Creation time: Sat Jun  5 12:53:24 2010


@<TRIPOS>MOLECULE
frag3-281-3/96164
   27    26     1     1     1
SMALL
USER_CHARGES


@<TRIPOS>ATOM
      1 C4         -3.9682    0.2098    0.7422 C.2        1 <1>        0.000
      2 C6         -2.6831    0.1793    0.0484 C.2        1 <1>        0.000
      3 O3         -5.0146   -0.2729    0.3312 O.2        1 <1>        0.000
      4 C8         -1.5304    0.7050    0.4818 C.2        1 <1>        0.000
      5 C11        -0.2714    0.6642   -0.1785 C.2        1 <1>        0.000
      6 C12        -0.0133    0.7264   -1.4924 C.2        1 <1>        0.000
      7 O6          4.8566   -0.7580    1.2437 O.3        1 <1>        0.000
      8 C13         1.2302    0.6415   -2.1698 C.2        1 <1>        0.000
      9 C14         2.1113   -0.3438   -1.9835 C.2        1 <1>        0.000
     10 C15         2.1242   -1.5100   -1.1505 C.2        1 <1>        0.000
     11 C16         3.2153   -2.1255   -0.6950 C.2        1 <1>        0.000
     12 C18         4.5959   -1.7966   -0.8636 C.2        1 <1>        0.000
     13 C19         5.4650   -1.1163    0.1141 C.2        1 <1>        0.000
     14 C20         5.2628   -1.9286   -2.0250 C.2        1 <1>        0.000
     15 O7          6.6430   -0.8477   -0.0528 O.2        1 <1>        0.000
     16 H          -3.9975    0.7066    1.7120 H.spc      1 <1>        0.000
     17 H          -2.6602   -0.3217   -0.9193 H.spc      1 <1>        0.000
     18 H          -1.5601    1.2188    1.4427 H.spc      1 <1>        0.000
     19 H           0.5995    0.5698    0.4701 H.spc      1 <1>        0.000
     20 H          -0.8848    0.8618   -2.1329 H.spc      1 <1>        0.000
     21 H           3.9400   -1.0420    1.2161 H.spc      1 <1>        0.000
     22 H           1.4807    1.4262   -2.8837 H.spc      1 <1>        0.000
     23 H           3.0092   -0.2396   -2.5926 H.spc      1 <1>        0.000
     24 H           1.1595   -1.9294   -0.8651 H.spc      1 <1>        0.000
     25 H           3.0248   -3.0194   -0.1011 H.spc      1 <1>        0.000
     26 H           4.7486   -2.3061   -2.9089 H.spc      1 <1>        0.000
     27 H           6.3172   -1.6580   -2.0818 H.spc      1 <1>        0.000
@<TRIPOS>BOND
     1    1    2 1  
     2   13   15 2  
     3    9   10 1  
     4    2    4 2  
     5   10   11 2  
     6    6    8 1  
     7    1    3 2  
     8    8    9 2  
     9   12   14 2  
    10    4    5 1  
    11    5    6 2  
    12   11   12 1  
    13   12   13 1  
    14   13    7 1  
    15    1   16 1  
    16    2   17 1  
    17    4   18 1  
    18    5   19 1  
    19    6   20 1  
    20    7   21 1  
    21    8   22 1  
    22    9   23 1  
    23   10   24 1  
    24   11   25 1  
    25   14   26 1  
    26   14   27 1  
# Name:          frag3-281-3/96164
# Creation time: Sat Jun  5 12:53:24 2010


@<TRIPOS>MOLECULE
frag3-281-3/96164
   27    26     1     1     1
SMALL
USER_CHARGES


@<TRIPOS>ATOM
      1 C4         -4.2354    0.1810    0.8186 C.2        1 <1>        0.000
      2 C6         -2.8297    0.4342    0.5017 C.2        1 <1>        0.000
      3 O3         -4.7907    0.4460    1.8736 O.2        1 <1>        0.000
      4 C8         -2.2193    0.0553   -0.6305 C.2        1 <1>        0.000
      5 C11        -0.8433    0.3278   -0.9463 C.2        1 <1>        0.000
      6 C12        -0.1600    0.2839   -2.0976 C.2        1 <1>        0.000
      7 O6          6.9199   -1.3083    0.2220 O.3        1 <1>        0.000
      8 C13         1.2335    0.5956   -2.2448 C.2        1 <1>        0.000
      9 C14         2.2471   -0.1732   -1.8204 C.2        1 <1>        0.000
     10 C15         2.3149   -1.4489   -1.1330 C.2        1 <1>        0.000
     11 C16         3.4555   -2.0511   -0.7581 C.2        1 <1>        0.000
     12 C18         4.8179   -1.6242   -0.8885 C.2        1 <1>        0.000
     13 C19         5.5910   -1.1566    0.2537 C.2        1 <1>        0.000
     14 C20         5.4986   -1.4655   -2.0243 C.2        1 <1>        0.000
     15 O7          5.0234   -0.6690    1.2243 O.2        1 <1>        0.000
     16 H          -4.8420   -0.2864    0.0429 H.spc      1 <1>        0.000
     17 H          -2.2345    0.9706    1.2407 H.spc      1 <1>        0.000
     18 H          -2.8074   -0.4980   -1.3627 H.spc      1 <1>        0.000
     19 H          -0.2430    0.6264   -0.0869 H.spc      1 <1>        0.000
     20 H          -0.7054   -0.0120   -2.9938 H.spc      1 <1>        0.000
     21 H           7.1758   -1.7043   -0.6143 H.spc      1 <1>        0.000
     22 H           1.4881    1.5320   -2.7412 H.spc      1 <1>        0.000
     23 H           3.2277    0.2501   -2.0381 H.spc      1 <1>        0.000
     24 H           1.3759   -1.9533   -0.9051 H.spc      1 <1>        0.000
     25 H           3.3241   -3.0205   -0.2773 H.spc      1 <1>        0.000
     26 H           5.0170   -1.6675   -2.9811 H.spc      1 <1>        0.000
     27 H           6.5365   -1.1338   -1.9958 H.spc      1 <1>        0.000
@<TRIPOS>BOND
     1    1    2 1  
     2   13   15 2  
     3    9   10 1  
     4    2    4 2  
     5   10   11 2  
     6    6    8 1  
     7    1    3 2  
     8    8    9 2  
     9   12   14 2  
    10    4    5 1  
    11    5    6 2  
    12   11   12 1  
    13   12   13 1  
    14   13    7 1  
    15    1   16 1  
    16    2   17 1  
    17    4   18 1  
    18    5   19 1  
    19    6   20 1  
    20    7   21 1  
    21    8   22 1  
    22    9   23 1  
    23   10   24 1  
    24   11   25 1  
    25   14   26 1  
    26   14   27 1  
# Name:          frag3-281-3/96164
# Creation time: Sat Jun  5 12:53:24 2010


@<TRIPOS>MOLECULE
frag3-281-3/96164
   27    26     1     1     1
SMALL
USER_CHARGES


@<TRIPOS>ATOM
      1 C4         -4.3276   -0.5294   -0.4876 C.2        1 <1>        0.000
      2 C6         -2.9359   -0.5753   -0.0517 C.2        1 <1>        0.000
      3 O3         -4.9083    0.3077   -1.1591 O.2        1 <1>        0.000
      4 C8         -2.0846    0.4252   -0.3009 C.2        1 <1>        0.000
      5 C11        -0.7176    0.5168    0.0700 C.2        1 <1>        0.000
      6 C12         0.2391    1.4306   -0.1220 C.2        1 <1>        0.000
      7 O6          5.3052   -1.3130   -2.6200 O.3        1 <1>        0.000
      8 C13         1.6002    1.3384    0.2985 C.2        1 <1>        0.000
      9 C14         2.3947    0.2848    0.0779 C.2        1 <1>        0.000
     10 C15         2.2242   -0.9750   -0.5933 C.2        1 <1>        0.000
     11 C16         3.1752   -1.8927   -0.7945 C.2        1 <1>        0.000
     12 C18         4.5613   -1.8551   -0.4420 C.2        1 <1>        0.000
     13 C19         5.6486   -1.4429   -1.3391 C.2        1 <1>        0.000
     14 C20         5.0515   -2.0702    0.7903 C.2        1 <1>        0.000
     15 O7          6.7973   -1.2231   -0.9764 O.2        1 <1>        0.000
     16 H          -4.9414   -1.3702   -0.1645 H.spc      1 <1>        0.000
     17 H          -2.5801   -1.4501    0.4926 H.spc      1 <1>        0.000
     18 H          -2.4889    1.2721   -0.8554 H.spc      1 <1>        0.000
     19 H          -0.3718   -0.3482    0.6359 H.spc      1 <1>        0.000
     20 H          -0.0492    2.3376   -0.6533 H.spc      1 <1>        0.000
     21 H           4.3742   -1.5229   -2.7234 H.spc      1 <1>        0.000
     22 H           2.0221    2.1866    0.8376 H.spc      1 <1>        0.000
     23 H           3.3917    0.4091    0.5005 H.spc      1 <1>        0.000
     24 H           1.2282   -1.2028   -0.9730 H.spc      1 <1>        0.000
     25 H           2.8472   -2.8009   -1.3002 H.spc      1 <1>        0.000
     26 H           4.3745   -2.2941    1.6147 H.spc      1 <1>        0.000
     27 H           6.1262   -2.0208    0.9656 H.spc      1 <1>        0.000
@<TRIPOS>BOND
     1    1    2 1  
     2   13   15 2  
     3    9   10 1  
     4    2    4 2  
     5   10   11 2  
     6    6    8 1  
     7    1    3 2  
     8    8    9 2  
     9   12   14 2  
    10    4    5 1  
    11    5    6 2  
    12   11   12 1  
    13   12   13 1  
    14   13    7 1  
    15    1   16 1  
    16    2   17 1  
    17    4   18 1  
    18    5   19 1  
    19    6   20 1  
    20    7   21 1  
    21    8   22 1  
    22    9   23 1  
    23   10   24 1  
    24   11   25 1  
    25   14   26 1  
    26   14   27 1  
# Name:          frag3-281-3/96164
# Creation time: Sat Jun  5 12:53:24 2010


@<TRIPOS>MOLECULE
frag3-281-3/96164
   27    26     1     1     1
SMALL
USER_CHARGES


@<TRIPOS>ATOM
      1 C4         -4.0182   -0.4852    0.2001 C.2        1 <1>        0.000
      2 C6         -2.6256   -0.3986   -0.2397 C.2        1 <1>        0.000
      3 O3         -4.7060   -1.4965    0.2304 O.2        1 <1>        0.000
      4 C8         -1.8784    0.7147   -0.2412 C.2        1 <1>        0.000
      5 C11        -0.5204    0.8170   -0.6592 C.2        1 <1>        0.000
      6 C12         0.3257    1.8329   -0.8873 C.2        1 <1>        0.000
      7 O6          5.8544   -1.4499    0.6623 O.3        1 <1>        0.000
      8 C13         1.7035    1.7605   -1.2785 C.2        1 <1>        0.000
      9 C14         2.5770    0.8566   -0.8182 C.2        1 <1>        0.000
     10 C15         2.4283   -0.2125    0.1332 C.2        1 <1>        0.000
     11 C16         3.0811   -1.3722    0.0931 C.2        1 <1>        0.000
     12 C18         4.0725   -1.8403   -0.8253 C.2        1 <1>        0.000
     13 C19         5.5171   -1.8674   -0.5602 C.2        1 <1>        0.000
     14 C20         3.8494   -2.2015   -2.1044 C.2        1 <1>        0.000
     15 O7          6.3630   -2.2309   -1.3550 O.2        1 <1>        0.000
     16 H          -4.4882    0.4403    0.5328 H.spc      1 <1>        0.000
     17 H          -2.1563   -1.3157   -0.5959 H.spc      1 <1>        0.000
     18 H          -2.3558    1.6291    0.1112 H.spc      1 <1>        0.000
     19 H          -0.0622   -0.1564   -0.8345 H.spc      1 <1>        0.000
     20 H          -0.0838    2.8350   -0.7598 H.spc      1 <1>        0.000
     21 H           5.0619   -1.2049    1.1455 H.spc      1 <1>        0.000
     22 H           2.0646    2.4925   -2.0010 H.spc      1 <1>        0.000
     23 H           3.5786    0.9464   -1.2387 H.spc      1 <1>        0.000
     24 H           1.7251   -0.0609    0.9521 H.spc      1 <1>        0.000
     25 H           2.8189   -2.0749    0.8840 H.spc      1 <1>        0.000
     26 H           2.8422   -2.1488   -2.5179 H.spc      1 <1>        0.000
     27 H           4.6761   -2.5464   -2.7254 H.spc      1 <1>        0.000
@<TRIPOS>BOND
     1    1    2 1  
     2   13   15 2  
     3    9   10 1  
     4    2    4 2  
     5   10   11 2  
     6    6    8 1  
     7    1    3 2  
     8    8    9 2  
     9   12   14 2  
    10    4    5 1  
    11    5    6 2  
    12   11   12 1  
    13   12   13 1  
    14   13    7 1  
    15    1   16 1  
    16    2   17 1  
    17    4   18 1  
    18    5   19 1  
    19    6   20 1  
    20    7   21 1  
    21    8   22 1  
    22    9   23 1  
    23   10   24 1  
    24   11   25 1  
    25   14   26 1  
    26   14   27 1  
# Name:          frag3-281-3/96164
# Creation time: Sat Jun  5 12:53:24 2010


@<TRIPOS>MOLECULE
frag3-281-3/96164
   27    26     1     1     1
SMALL
USER_CHARGES


@<TRIPOS>ATOM
      1 C4         -2.9646   -1.2998   -0.4583 C.2        1 <1>        0.000
      2 C6         -1.8417   -0.3647   -0.5366 C.2        1 <1>        0.000
      3 O3         -4.0462   -1.1871   -1.0169 O.2        1 <1>        0.000
      4 C8         -0.6885   -0.5047    0.1274 C.2        1 <1>        0.000
      5 C11         0.4404    0.3644    0.1364 C.2        1 <1>        0.000
      6 C12         1.0882    0.9792   -0.8632 C.2        1 <1>        0.000
      7 O6          2.2901   -2.7973   -0.0931 O.3        1 <1>        0.000
      8 C13         2.1981    1.8855   -0.8585 C.2        1 <1>        0.000
      9 C14         3.2872    1.8249   -0.0789 C.2        1 <1>        0.000
     10 C15         3.6637    0.8537    0.9005 C.2        1 <1>        0.000
     11 C16         3.9130   -0.4324    0.6170 C.2        1 <1>        0.000
     12 C18         3.9178   -1.1468   -0.6297 C.2        1 <1>        0.000
     13 C19         3.0537   -2.2672   -1.0544 C.2        1 <1>        0.000
     14 C20         4.7234   -0.7724   -1.6478 C.2        1 <1>        0.000
     15 O7          2.9887   -2.7085   -2.1937 O.2        1 <1>        0.000
     16 H          -2.8223   -2.1859    0.1603 H.spc      1 <1>        0.000
     17 H          -1.9525    0.5072   -1.1812 H.spc      1 <1>        0.000
     18 H          -0.6014   -1.4008    0.7418 H.spc      1 <1>        0.000
     19 H           0.8478    0.5639    1.1275 H.spc      1 <1>        0.000
     20 H           0.7020    0.7488   -1.8561 H.spc      1 <1>        0.000
     21 H           2.4588   -2.3425    0.7353 H.spc      1 <1>        0.000
     22 H           2.1520    2.7140   -1.5653 H.spc      1 <1>        0.000
     23 H           3.9953    2.6427   -0.2125 H.spc      1 <1>        0.000
     24 H           3.7531    1.1778    1.9373 H.spc      1 <1>        0.000
     25 H           4.1549   -1.0446    1.4858 H.spc      1 <1>        0.000
     26 H           5.3855    0.0857   -1.5317 H.spc      1 <1>        0.000
     27 H           4.7112   -1.3284   -2.5852 H.spc      1 <1>        0.000
@<TRIPOS>BOND
     1    1    2 1  
     2   13   15 2  
     3    9   10 1  
     4    2    4 2  
     5   10   11 2  
     6    6    8 1  
     7    1    3 2  
     8    8    9 2  
     9   12   14 2  
    10    4    5 1  
    11    5    6 2  
    12   11   12 1  
    13   12   13 1  
    14   13    7 1  
    15    1   16 1  
    16    2   17 1  
    17    4   18 1  
    18    5   19 1  
    19    6   20 1  
    20    7   21 1  
    21    8   22 1  
    22    9   23 1  
    23   10   24 1  
    24   11   25 1  
    25   14   26 1  
    26   14   27 1  
# Name:          frag3-281-3/96164
# Creation time: Sat Jun  5 12:53:24 2010


@<TRIPOS>MOLECULE
frag3-281-3/96164
   27    26     1     1     1
SMALL
USER_CHARGES


@<TRIPOS>ATOM
      1 C4         -4.0412   -0.2886   -0.6731 C.2        1 <1>        0.000
      2 C6         -2.5915   -0.1504   -0.8120 C.2        1 <1>        0.000
      3 O3         -4.7624   -1.0338   -1.3211 O.2        1 <1>        0.000
      4 C8         -1.8169    0.6608   -0.0779 C.2        1 <1>        0.000
      5 C11        -0.4022    0.8032   -0.1865 C.2        1 <1>        0.000
      6 C12         0.5132    1.5611    0.4303 C.2        1 <1>        0.000
      7 O6          3.6984   -1.3283   -2.4369 O.3        1 <1>        0.000
      8 C13         1.9293    1.5427    0.2164 C.2        1 <1>        0.000
      9 C14         2.7006    0.4476    0.2733 C.2        1 <1>        0.000
     10 C15         2.4561   -0.9462    0.5647 C.2        1 <1>        0.000
     11 C16         3.2905   -1.9673    0.3211 C.2        1 <1>        0.000
     12 C18         4.5743   -1.9126   -0.3119 C.2        1 <1>        0.000
     13 C19         4.8081   -1.5299   -1.7206 C.2        1 <1>        0.000
     14 C20         5.7558   -2.0454    0.3120 C.2        1 <1>        0.000
     15 O7          5.9111   -1.3861   -2.2276 O.2        1 <1>        0.000
     16 H          -4.5252    0.3325    0.0806 H.spc      1 <1>        0.000
     17 H          -2.1014   -0.7562   -1.5742 H.spc      1 <1>        0.000
     18 H          -2.3167    1.2705    0.6748 H.spc      1 <1>        0.000
     19 H           0.0316    0.1475   -0.9415 H.spc      1 <1>        0.000
     20 H           0.1415    2.2664    1.1736 H.spc      1 <1>        0.000
     21 H           2.9293   -1.4848   -1.8842 H.spc      1 <1>        0.000
     22 H           2.4169    2.4910   -0.0098 H.spc      1 <1>        0.000
     23 H           3.7469    0.6554    0.0495 H.spc      1 <1>        0.000
     24 H           1.5003   -1.1917    1.0276 H.spc      1 <1>        0.000
     25 H           2.9528   -2.9528    0.6418 H.spc      1 <1>        0.000
     26 H           5.7879   -2.2099    1.3890 H.spc      1 <1>        0.000
     27 H           6.6828   -1.9887   -0.2585 H.spc      1 <1>        0.000
@<TRIPOS>BOND
     1    1    2 1  
     2   13   15 2  
     3    9   10 1  
     4    2    4 2  
     5   10   11 2  
     6    6    8 1  
     7    1    3 2  
     8    8    9 2  
     9   12   14 2  
    10    4    5 1  
    11    5    6 2  
    12   11   12 1  
    13   12   13 1  
    14   13    7 1  
    15    1   16 1  
    16    2   17 1  
    17    4   18 1  
    18    5   19 1  
    19    6   20 1  
    20    7   21 1  
    21    8   22 1  
    22    9   23 1  
    23   10   24 1  
    24   11   25 1  
    25   14   26 1  
    26   14   27 1  
# Name:          frag3-281-3/96164
# Creation time: Sat Jun  5 12:53:24 2010


@<TRIPOS>MOLECULE
frag3-281-3/96164
   27    26     1     1     1
SMALL
USER_CHARGES


@<TRIPOS>ATOM
      1 C4         -3.5040   -0.5344   -1.4100 C.2        1 <1>        0.000
      2 C6         -2.4220   -0.3194   -0.4496 C.2        1 <1>        0.000
      3 O3         -4.6702   -0.7822   -1.1380 O.2        1 <1>        0.000
      4 C8         -1.1381   -0.0718   -0.7479 C.2        1 <1>        0.000
      5 C11        -0.1009    0.1706    0.2121 C.2        1 <1>        0.000
      6 C12         1.1790    0.5476    0.1085 C.2        1 <1>        0.000
      7 O6          2.6444   -1.1882   -2.3536 O.3        1 <1>        0.000
      8 C13         2.1437    0.7818    1.1539 C.2        1 <1>        0.000
      9 C14         3.4553    1.0524    1.0651 C.2        1 <1>        0.000
     10 C15         4.3422    1.1732   -0.0619 C.2        1 <1>        0.000
     11 C16         4.7084    0.1078   -0.7938 C.2        1 <1>        0.000
     12 C18         4.3119   -1.2772   -0.6648 C.2        1 <1>        0.000
     13 C19         3.2900   -1.9547   -1.4667 C.2        1 <1>        0.000
     14 C20         4.7624   -2.1373    0.2687 C.2        1 <1>        0.000
     15 O7          3.0213   -3.1415   -1.3718 O.2        1 <1>        0.000
     16 H          -3.2468   -0.4675   -2.4671 H.spc      1 <1>        0.000
     17 H          -2.6836   -0.3646    0.6076 H.spc      1 <1>        0.000
     18 H          -0.8616   -0.0534   -1.8021 H.spc      1 <1>        0.000
     19 H          -0.4222    0.0153    1.2420 H.spc      1 <1>        0.000
     20 H           1.5427    0.6986   -0.9079 H.spc      1 <1>        0.000
     21 H           2.9748   -0.2886   -2.2978 H.spc      1 <1>        0.000
     22 H           1.7487    0.7316    2.1686 H.spc      1 <1>        0.000
     23 H           3.9403    1.2105    2.0283 H.spc      1 <1>        0.000
     24 H           4.7278    2.1571   -0.3292 H.spc      1 <1>        0.000
     25 H           5.4069    0.3180   -1.6038 H.spc      1 <1>        0.000
     26 H           5.4885   -1.8051    1.0107 H.spc      1 <1>        0.000
     27 H           4.4009   -3.1655    0.2822 H.spc      1 <1>        0.000
@<TRIPOS>BOND
     1    1    2 1  
     2   13   15 2  
     3    9   10 1  
     4    2    4 2  
     5   10   11 2  
     6    6    8 1  
     7    1    3 2  
     8    8    9 2  
     9   12   14 2  
    10    4    5 1  
    11    5    6 2  
    12   11   12 1  
    13   12   13 1  
    14   13    7 1  
    15    1   16 1  
    16    2   17 1  
    17    4   18 1  
    18    5   19 1  
    19    6   20 1  
    20    7   21 1  
    21    8   22 1  
    22    9   23 1  
    23   10   24 1  
    24   11   25 1  
    25   14   26 1  
    26   14   27 1  
# Name:          frag3-281-3/96164
# Creation time: Sat Jun  5 12:53:24 2010


@<TRIPOS>MOLECULE
frag3-281-3/96164
   27    26     1     1     1
SMALL
USER_CHARGES


@<TRIPOS>ATOM
      1 C4         -4.2973    0.4479    0.4365 C.2        1 <1>        0.000
      2 C6         -2.9537    0.5324   -0.1229 C.2        1 <1>        0.000
      3 O3         -5.3413    0.6102   -0.1874 O.2        1 <1>        0.000
      4 C8         -1.8156    0.2326    0.5081 C.2        1 <1>        0.000
      5 C11        -0.4909    0.3065   -0.0049 C.2        1 <1>        0.000
      6 C12        -0.0888    0.2129   -1.2846 C.2        1 <1>        0.000
      7 O6          5.1409    0.0673    0.4627 O.3        1 <1>        0.000
      8 C13         1.2200    0.2801   -1.8246 C.2        1 <1>        0.000
      9 C14         2.2372   -0.4714   -1.4311 C.2        1 <1>        0.000
     10 C15         2.3651   -1.5122   -0.4540 C.2        1 <1>        0.000
     11 C16         3.4828   -2.1691   -0.1438 C.2        1 <1>        0.000
     12 C18         4.7979   -1.9779   -0.6776 C.2        1 <1>        0.000
     13 C19         5.6675   -0.8109   -0.3916 C.2        1 <1>        0.000
     14 C20         5.3386   -2.7158   -1.6508 C.2        1 <1>        0.000
     15 O7          6.7608   -0.6059   -0.8837 O.2        1 <1>        0.000
     16 H          -4.3816    0.2213    1.4993 H.spc      1 <1>        0.000
     17 H          -2.8701    0.8729   -1.1550 H.spc      1 <1>        0.000
     18 H          -1.9133   -0.1093    1.5385 H.spc      1 <1>        0.000
     19 H           0.2976    0.4581    0.7323 H.spc      1 <1>        0.000
     20 H          -0.8857    0.0635   -2.0131 H.spc      1 <1>        0.000
     21 H           4.2814   -0.2465    0.7532 H.spc      1 <1>        0.000
     22 H           1.4024    1.0019   -2.6207 H.spc      1 <1>        0.000
     23 H           3.1665   -0.2540   -1.9577 H.spc      1 <1>        0.000
     24 H           1.4618   -1.7936    0.0873 H.spc      1 <1>        0.000
     25 H           3.3833   -2.9495    0.6106 H.spc      1 <1>        0.000
     26 H           4.7694   -3.5316   -2.0965 H.spc      1 <1>        0.000
     27 H           6.3490   -2.5022   -1.9994 H.spc      1 <1>        0.000
@<TRIPOS>BOND
     1    1    2 1  
     2   13   15 2  
     3    9   10 1  
     4    2    4 2  
     5   10   11 2  
     6    6    8 1  
     7    1    3 2  
     8    8    9 2  
     9   12   14 2  
    10    4    5 1  
    11    5    6 2  
    12   11   12 1  
    13   12   13 1  
    14   13    7 1  
    15    1   16 1  
    16    2   17 1  
    17    4   18 1  
    18    5   19 1  
    19    6   20 1  
    20    7   21 1  
    21    8   22 1  
    22    9   23 1  
    23   10   24 1  
    24   11   25 1  
    25   14   26 1  
    26   14   27 1  
# Name:          frag3-281-3/96164
# Creation time: Sat Jun  5 12:53:24 2010


@<TRIPOS>MOLECULE
frag3-281-3/96164
   27    26     1     1     1
SMALL
USER_CHARGES


@<TRIPOS>ATOM
      1 C4         -4.5426   -0.2508   -0.3299 C.2        1 <1>        0.000
      2 C6         -3.1353   -0.0613    0.0119 C.2        1 <1>        0.000
      3 O3         -5.2252    0.3514   -1.1409 O.2        1 <1>        0.000
      4 C8         -2.3862    0.9070   -0.5302 C.2        1 <1>        0.000
      5 C11        -1.0221    1.2255   -0.2848 C.2        1 <1>        0.000
      6 C12        -0.0071    0.3725   -0.1128 C.2        1 <1>        0.000
      7 O6          5.1672   -1.4994   -2.6568 O.3        1 <1>        0.000
      8 C13         1.3648    0.6123    0.1665 C.2        1 <1>        0.000
      9 C14         2.3743   -0.2531    0.1423 C.2        1 <1>        0.000
     10 C15         2.5165   -1.6448   -0.1403 C.2        1 <1>        0.000
     11 C16         3.6811   -2.2747   -0.3219 C.2        1 <1>        0.000
     12 C18         5.0123   -1.7580   -0.3196 C.2        1 <1>        0.000
     13 C19         5.7342   -1.2112   -1.4844 C.2        1 <1>        0.000
     14 C20         5.7329   -1.5422    0.7903 C.2        1 <1>        0.000
     15 O7          6.7585   -0.5465   -1.4391 O.2        1 <1>        0.000
     16 H          -5.0548   -1.0422    0.2173 H.spc      1 <1>        0.000
     17 H          -2.6771   -0.7344    0.7365 H.spc      1 <1>        0.000
     18 H          -2.8918    1.5385   -1.2607 H.spc      1 <1>        0.000
     19 H          -0.7760    2.2860   -0.2308 H.spc      1 <1>        0.000
     20 H          -0.2766   -0.6799   -0.2015 H.spc      1 <1>        0.000
     21 H           4.3774   -2.0246   -2.5085 H.spc      1 <1>        0.000
     22 H           1.6232    1.6366    0.4350 H.spc      1 <1>        0.000
     23 H           3.3243    0.2142    0.4013 H.spc      1 <1>        0.000
     24 H           1.6058   -2.2393   -0.2136 H.spc      1 <1>        0.000
     25 H           3.6028   -3.3474   -0.4989 H.spc      1 <1>        0.000
     26 H           5.3066   -1.7641    1.7686 H.spc      1 <1>        0.000
     27 H           6.7450   -1.1449    0.7143 H.spc      1 <1>        0.000
@<TRIPOS>BOND
     1    1    2 1  
     2   13   15 2  
     3    9   10 1  
     4    2    4 2  
     5   10   11 2  
     6    6    8 1  
     7    1    3 2  
     8    8    9 2  
     9   12   14 2  
    10    4    5 1  
    11    5    6 2  
    12   11   12 1  
    13   12   13 1  
    14   13    7 1  
    15    1   16 1  
    16    2   17 1  
    17    4   18 1  
    18    5   19 1  
    19    6   20 1  
    20    7   21 1  
    21    8   22 1  
    22    9   23 1  
    23   10   24 1  
    24   11   25 1  
    25   14   26 1  
    26   14   27 1  
# Name:          frag3-281-3/96164
# Creation time: Sat Jun  5 12:53:24 2010


@<TRIPOS>MOLECULE
frag3-281-3/96164
   27    26     1     1     1
SMALL
USER_CHARGES


@<TRIPOS>ATOM
      1 C4         -4.1467   -0.1977    0.2821 C.2        1 <1>        0.000
      2 C6         -2.7544    0.1269   -0.0118 C.2        1 <1>        0.000
      3 O3         -4.8674    0.3950    1.0746 O.2        1 <1>        0.000
      4 C8         -1.9557   -0.5402   -0.8553 C.2        1 <1>        0.000
      5 C11        -0.5835   -0.2550   -1.1255 C.2        1 <1>        0.000
      6 C12         0.0085    0.9357   -1.2875 C.2        1 <1>        0.000
      7 O6          5.9484   -1.0314    0.8165 O.3        1 <1>        0.000
      8 C13         1.3735    1.2573   -1.5169 C.2        1 <1>        0.000
      9 C14         2.3830    0.6540   -0.8906 C.2        1 <1>        0.000
     10 C15         2.3706   -0.3966    0.0783 C.2        1 <1>        0.000
     11 C16         3.2345   -1.4300    0.1127 C.2        1 <1>        0.000
     12 C18         4.3366   -1.7250   -0.7427 C.2        1 <1>        0.000
     13 C19         5.7537   -1.5356   -0.4053 C.2        1 <1>        0.000
     14 C20         4.2216   -2.1186   -2.0271 C.2        1 <1>        0.000
     15 O7          6.7007   -1.7120   -1.1512 O.2        1 <1>        0.000
     16 H          -4.5833   -1.0423   -0.2510 H.spc      1 <1>        0.000
     17 H          -2.3265    0.9886    0.5005 H.spc      1 <1>        0.000
     18 H          -2.3968   -1.3831   -1.3873 H.spc      1 <1>        0.000
     19 H           0.0706   -1.1227   -1.2116 H.spc      1 <1>        0.000
     20 H          -0.6626    1.7930   -1.2351 H.spc      1 <1>        0.000
     21 H           5.1050   -0.9575    1.2691 H.spc      1 <1>        0.000
     22 H           1.6065    2.0371   -2.2420 H.spc      1 <1>        0.000
     23 H           3.3742    1.0191   -1.1595 H.spc      1 <1>        0.000
     24 H           1.6018   -0.3589    0.8501 H.spc      1 <1>        0.000
     25 H           3.0656   -2.1484    0.9149 H.spc      1 <1>        0.000
     26 H           3.2349   -2.2300   -2.4767 H.spc      1 <1>        0.000
     27 H           5.1153   -2.3254   -2.6158 H.spc      1 <1>        0.000
@<TRIPOS>BOND
     1    1    2 1  
     2   13   15 2  
     3    9   10 1  
     4    2    4 2  
     5   10   11 2  
     6    6    8 1  
     7    1    3 2  
     8    8    9 2  
     9   12   14 2  
    10    4    5 1  
    11    5    6 2  
    12   11   12 1  
    13   12   13 1  
    14   13    7 1  
    15    1   16 1  
    16    2   17 1  
    17    4   18 1  
    18    5   19 1  
    19    6   20 1  
    20    7   21 1  
    21    8   22 1  
    22    9   23 1  
    23   10   24 1  
    24   11   25 1  
    25   14   26 1  
    26   14   27 1  
# Name:          frag3-281-3/96164
# Creation time: Sat Jun  5 12:53:24 2010


@<TRIPOS>MOLECULE
frag3-281-3/96164
   27    26     1     1     1
SMALL
USER_CHARGES


@<TRIPOS>ATOM
      1 C4         -4.1862   -0.0617    0.3248 C.2        1 <1>        0.000
      2 C6         -2.8389   -0.1361   -0.2414 C.2        1 <1>        0.000
      3 O3         -5.0199   -0.9565    0.3305 O.2        1 <1>        0.000
      4 C8         -1.9257    0.8446   -0.2081 C.2        1 <1>        0.000
      5 C11        -0.6043    0.7834   -0.7362 C.2        1 <1>        0.000
      6 C12         0.4528    1.6033   -0.7162 C.2        1 <1>        0.000
      7 O6          5.3894   -0.5324    0.5987 O.3        1 <1>        0.000
      8 C13         1.7472    1.3523   -1.2759 C.2        1 <1>        0.000
      9 C14         2.4634    0.2395   -1.0636 C.2        1 <1>        0.000
     10 C15         2.2514   -0.9556   -0.2855 C.2        1 <1>        0.000
     11 C16         3.0825   -2.0005   -0.1897 C.2        1 <1>        0.000
     12 C18         4.3716   -2.1414   -0.8056 C.2        1 <1>        0.000
     13 C19         5.5539   -1.3300   -0.4588 C.2        1 <1>        0.000
     14 C20         4.6671   -2.9171   -1.8675 C.2        1 <1>        0.000
     15 O7          6.6190   -1.3650   -1.0554 O.2        1 <1>        0.000
     16 H          -4.4747    0.8827    0.7862 H.spc      1 <1>        0.000
     17 H          -2.5540   -1.0672   -0.7314 H.spc      1 <1>        0.000
     18 H          -2.2229    1.7785    0.2689 H.spc      1 <1>        0.000
     19 H          -0.4103   -0.1411   -1.2800 H.spc      1 <1>        0.000
     20 H           0.3143    2.5646   -0.2213 H.spc      1 <1>        0.000
     21 H           4.4975   -0.6339    0.9390 H.spc      1 <1>        0.000
     22 H           2.1795    2.1191   -1.9187 H.spc      1 <1>        0.000
     23 H           3.4146    0.2376   -1.5959 H.spc      1 <1>        0.000
     24 H           1.3220   -1.0141    0.2810 H.spc      1 <1>        0.000
     25 H           2.7434   -2.8358    0.4230 H.spc      1 <1>        0.000
     26 H           3.8872   -3.5143   -2.3401 H.spc      1 <1>        0.000
     27 H           5.6859   -2.9473   -2.2537 H.spc      1 <1>        0.000
@<TRIPOS>BOND
     1    1    2 1  
     2   13   15 2  
     3    9   10 1  
     4    2    4 2  
     5   10   11 2  
     6    6    8 1  
     7    1    3 2  
     8    8    9 2  
     9   12   14 2  
    10    4    5 1  
    11    5    6 2  
    12   11   12 1  
    13   12   13 1  
    14   13    7 1  
    15    1   16 1  
    16    2   17 1  
    17    4   18 1  
    18    5   19 1  
    19    6   20 1  
    20    7   21 1  
    21    8   22 1  
    22    9   23 1  
    23   10   24 1  
    24   11   25 1  
    25   14   26 1  
    26   14   27 1  
# Name:          frag3-281-3/96164
# Creation time: Sat Jun  5 12:53:24 2010


@<TRIPOS>MOLECULE
frag3-281-3/96164
   27    26     1     1     1
SMALL
USER_CHARGES


@<TRIPOS>ATOM
      1 C4         -3.9286   -0.7006    0.0471 C.2        1 <1>        0.000
      2 C6         -2.5179   -0.4963   -0.2952 C.2        1 <1>        0.000
      3 O3         -4.5119   -1.7728    0.0648 O.2        1 <1>        0.000
      4 C8         -1.9012    0.6944   -0.3220 C.2        1 <1>        0.000
      5 C11        -0.5076    0.8895   -0.6348 C.2        1 <1>        0.000
      6 C12         0.3030    1.9612   -0.5431 C.2        1 <1>        0.000
      7 O6          6.0392   -2.8318   -1.5337 O.3        1 <1>        0.000
      8 C13         1.7079    2.0141   -0.8652 C.2        1 <1>        0.000
      9 C14         2.5959    1.0807   -0.4862 C.2        1 <1>        0.000
     10 C15         2.4440   -0.1254    0.3049 C.2        1 <1>        0.000
     11 C16         3.0945   -1.2667    0.0261 C.2        1 <1>        0.000
     12 C18         4.0541   -1.6164   -0.9835 C.2        1 <1>        0.000
     13 C19         5.3790   -2.1069   -0.6255 C.2        1 <1>        0.000
     14 C20         3.9251   -1.4101   -2.2868 C.2        1 <1>        0.000
     15 O7          5.8476   -1.8861    0.4834 O.2        1 <1>        0.000
     16 H          -4.5087    0.1842    0.3093 H.spc      1 <1>        0.000
     17 H          -1.9267   -1.3769   -0.5464 H.spc      1 <1>        0.000
     18 H          -2.4964    1.5778   -0.0907 H.spc      1 <1>        0.000
     19 H          -0.0145   -0.0030   -1.0201 H.spc      1 <1>        0.000
     20 H          -0.1507    2.8864   -0.1879 H.spc      1 <1>        0.000
     21 H           5.5141   -2.8941   -2.3349 H.spc      1 <1>        0.000
     22 H           2.0695    2.8601   -1.4497 H.spc      1 <1>        0.000
     23 H           3.6124    1.2619   -0.8355 H.spc      1 <1>        0.000
     24 H           1.7725   -0.1046    1.1632 H.spc      1 <1>        0.000
     25 H           2.8454   -2.0885    0.6975 H.spc      1 <1>        0.000
     26 H           3.0254   -0.9343   -2.6768 H.spc      1 <1>        0.000
     27 H           4.7188   -1.7163   -2.9682 H.spc      1 <1>        0.000
@<TRIPOS>BOND
     1    1    2 1  
     2   13   15 2  
     3    9   10 1  
     4    2    4 2  
     5   10   11 2  
     6    6    8 1  
     7    1    3 2  
     8    8    9 2  
     9   12   14 2  
    10    4    5 1  
    11    5    6 2  
    12   11   12 1  
    13   12   13 1  
    14   13    7 1  
    15    1   16 1  
    16    2   17 1  
    17    4   18 1  
    18    5   19 1  
    19    6   20 1  
    20    7   21 1  
    21    8   22 1  
    22    9   23 1  
    23   10   24 1  
    24   11   25 1  
    25   14   26 1  
    26   14   27 1  
# Name:          frag3-281-3/96164
# Creation time: Sat Jun  5 12:53:24 2010


@<TRIPOS>MOLECULE
frag3-281-3/96164
   27    26     1     1     1
SMALL
USER_CHARGES


@<TRIPOS>ATOM
      1 C4         -4.0040   -1.0474    0.1098 C.2        1 <1>        0.000
      2 C6         -2.6274   -0.9304   -0.3400 C.2        1 <1>        0.000
      3 O3         -4.7815   -0.1773    0.4589 O.2        1 <1>        0.000
      4 C8         -2.0225    0.2536   -0.4810 C.2        1 <1>        0.000
      5 C11        -0.6803    0.4848   -0.8954 C.2        1 <1>        0.000
      6 C12         0.0918    1.5805   -0.8650 C.2        1 <1>        0.000
      7 O6          5.6068   -2.2707   -2.1681 O.3        1 <1>        0.000
      8 C13         1.4541    1.6454   -1.2998 C.2        1 <1>        0.000
      9 C14         2.4442    0.9065   -0.7827 C.2        1 <1>        0.000
     10 C15         2.5326   -0.0719    0.2839 C.2        1 <1>        0.000
     11 C16         3.5664   -0.9065    0.4666 C.2        1 <1>        0.000
     12 C18         4.7695   -1.0930   -0.2837 C.2        1 <1>        0.000
     13 C19         5.1111   -2.3595   -0.9337 C.2        1 <1>        0.000
     14 C20         5.6880   -0.1557   -0.5202 C.2        1 <1>        0.000
     15 O7          4.8747   -3.4317   -0.3994 O.2        1 <1>        0.000
     16 H          -4.3989   -2.0629    0.1391 H.spc      1 <1>        0.000
     17 H          -2.0693   -1.8380   -0.5701 H.spc      1 <1>        0.000
     18 H          -2.6209    1.1360   -0.2545 H.spc      1 <1>        0.000
     19 H          -0.1887   -0.3925   -1.3158 H.spc      1 <1>        0.000
     20 H          -0.3542    2.4965   -0.4776 H.spc      1 <1>        0.000
     21 H           5.7194   -1.3462   -2.4008 H.spc      1 <1>        0.000
     22 H           1.7012    2.3401   -2.1025 H.spc      1 <1>        0.000
     23 H           3.4008    1.0800   -1.2755 H.spc      1 <1>        0.000
     24 H           1.7011   -0.1333    0.9859 H.spc      1 <1>        0.000
     25 H           3.4735   -1.5549    1.3378 H.spc      1 <1>        0.000
     26 H           5.5518    0.8521   -0.1279 H.spc      1 <1>        0.000
     27 H           6.5750   -0.3973   -1.1058 H.spc      1 <1>        0.000
@<TRIPOS>BOND
     1    1    2 1  
     2   13   15 2  
     3    9   10 1  
     4    2    4 2  
     5   10   11 2  
     6    6    8 1  
     7    1    3 2  
     8    8    9 2  
     9   12   14 2  
    10    4    5 1  
    11    5    6 2  
    12   11   12 1  
    13   12   13 1  
    14   13    7 1  
    15    1   16 1  
    16    2   17 1  
    17    4   18 1  
    18    5   19 1  
    19    6   20 1  
    20    7   21 1  
    21    8   22 1  
    22    9   23 1  
    23   10   24 1  
    24   11   25 1  
    25   14   26 1  
    26   14   27 1  
# Name:          frag3-281-3/96164
# Creation time: Sat Jun  5 12:53:24 2010


@<TRIPOS>MOLECULE
frag3-281-3/96164
   27    26     1     1     1
SMALL
USER_CHARGES


@<TRIPOS>ATOM
      1 C4         -4.2161   -0.1916    0.2907 C.2        1 <1>        0.000
      2 C6         -2.8155    0.0643   -0.0355 C.2        1 <1>        0.000
      3 O3         -4.7698    0.0918    1.3432 O.2        1 <1>        0.000
      4 C8         -2.1760   -0.3371   -1.1407 C.2        1 <1>        0.000
      5 C11        -0.8073   -0.0995   -1.4551 C.2        1 <1>        0.000
      6 C12        -0.0825    1.0114   -1.2472 C.2        1 <1>        0.000
      7 O6          6.2110   -1.3760   -1.8296 O.3        1 <1>        0.000
      8 C13         1.2979    1.2249   -1.5216 C.2        1 <1>        0.000
      9 C14         2.2571    0.3926   -1.1048 C.2        1 <1>        0.000
     10 C15         2.2471   -0.8206   -0.3189 C.2        1 <1>        0.000
     11 C16         3.3387   -1.4361    0.1442 C.2        1 <1>        0.000
     12 C18         4.7100   -1.0987   -0.0178 C.2        1 <1>        0.000
     13 C19         5.6623   -1.9277   -0.7478 C.2        1 <1>        0.000
     14 C20         5.3002    0.0176    0.4154 C.2        1 <1>        0.000
     15 O7          5.8661   -3.0885   -0.4244 O.2        1 <1>        0.000
     16 H          -4.8221   -0.6791   -0.4730 H.spc      1 <1>        0.000
     17 H          -2.2364    0.6362    0.6896 H.spc      1 <1>        0.000
     18 H          -2.7586   -0.8998   -1.8701 H.spc      1 <1>        0.000
     19 H          -0.2789   -0.9283   -1.9263 H.spc      1 <1>        0.000
     20 H          -0.6184    1.8559   -0.8139 H.spc      1 <1>        0.000
     21 H           5.9241   -0.4627   -1.9021 H.spc      1 <1>        0.000
     22 H           1.5851    2.1053   -2.0965 H.spc      1 <1>        0.000
     23 H           3.2556    0.6910   -1.4243 H.spc      1 <1>        0.000
     24 H           1.2792   -1.2653   -0.0875 H.spc      1 <1>        0.000
     25 H           3.1492   -2.3320    0.7354 H.spc      1 <1>        0.000
     26 H           4.7187    0.7701    0.9479 H.spc      1 <1>        0.000
     27 H           6.3636    0.1765    0.2366 H.spc      1 <1>        0.000
@<TRIPOS>BOND
     1    1    2 1  
     2   13   15 2  
     3    9   10 1  
     4    2    4 2  
     5   10   11 2  
     6    6    8 1  
     7    1    3 2  
     8    8    9 2  
     9   12   14 2  
    10    4    5 1  
    11    5    6 2  
    12   11   12 1  
    13   12   13 1  
    14   13    7 1  
    15    1   16 1  
    16    2   17 1  
    17    4   18 1  
    18    5   19 1  
    19    6   20 1  
    20    7   21 1  
    21    8   22 1  
    22    9   23 1  
    23   10   24 1  
    24   11   25 1  
    25   14   26 1  
    26   14   27 1  
# Name:          frag3-281-3/96164
# Creation time: Sat Jun  5 12:53:24 2010


@<TRIPOS>MOLECULE
frag3-281-3/96164
   27    26     1     1     1
SMALL
USER_CHARGES


@<TRIPOS>ATOM
      1 C4         -2.4574   -1.4224   -0.4861 C.2        1 <1>        0.000
      2 C6         -1.1885   -0.6980   -0.5350 C.2        1 <1>        0.000
      3 O3         -2.8589   -2.2040   -1.3354 O.2        1 <1>        0.000
      4 C8         -0.7936    0.2587    0.3154 C.2        1 <1>        0.000
      5 C11         0.4497    0.9675    0.2941 C.2        1 <1>        0.000
      6 C12         1.1917    1.3580   -0.7600 C.2        1 <1>        0.000
      7 O6          2.4046   -2.7067   -2.2589 O.3        1 <1>        0.000
      8 C13         2.4579    2.0393   -0.7424 C.2        1 <1>        0.000
      9 C14         3.5157    1.7132    0.0253 C.2        1 <1>        0.000
     10 C15         3.6960    0.6282    0.9670 C.2        1 <1>        0.000
     11 C16         3.7073   -0.6666    0.5941 C.2        1 <1>        0.000
     12 C18         3.5569   -1.2773   -0.6988 C.2        1 <1>        0.000
     13 C19         2.4374   -2.1543   -1.0475 C.2        1 <1>        0.000
     14 C20         4.3608   -1.0483   -1.7440 C.2        1 <1>        0.000
     15 O7          1.5437   -2.3606   -0.2375 O.2        1 <1>        0.000
     16 H          -3.0980   -1.2513    0.3790 H.spc      1 <1>        0.000
     17 H          -0.4998   -0.9608   -1.3380 H.spc      1 <1>        0.000
     18 H          -1.4932    0.5257    1.1075 H.spc      1 <1>        0.000
     19 H           0.8544    1.2289    1.2718 H.spc      1 <1>        0.000
     20 H           0.7833    1.1302   -1.7446 H.spc      1 <1>        0.000
     21 H           3.1812   -2.4358   -2.7540 H.spc      1 <1>        0.000
     22 H           2.5717    2.8945   -1.4086 H.spc      1 <1>        0.000
     23 H           4.3763    2.3739   -0.0795 H.spc      1 <1>        0.000
     24 H           3.8281    0.8689    2.0218 H.spc      1 <1>        0.000
     25 H           3.8558   -1.3713    1.4123 H.spc      1 <1>        0.000
     26 H           5.1981   -0.3573   -1.6465 H.spc      1 <1>        0.000
     27 H           4.1782   -1.5528   -2.6928 H.spc      1 <1>        0.000
@<TRIPOS>BOND
     1    1    2 1  
     2   13   15 2  
     3    9   10 1  
     4    2    4 2  
     5   10   11 2  
     6    6    8 1  
     7    1    3 2  
     8    8    9 2  
     9   12   14 2  
    10    4    5 1  
    11    5    6 2  
    12   11   12 1  
    13   12   13 1  
    14   13    7 1  
    15    1   16 1  
    16    2   17 1  
    17    4   18 1  
    18    5   19 1  
    19    6   20 1  
    20    7   21 1  
    21    8   22 1  
    22    9   23 1  
    23   10   24 1  
    24   11   25 1  
    25   14   26 1  
    26   14   27 1  
# Name:          frag3-281-3/96164
# Creation time: Sat Jun  5 12:53:24 2010


@<TRIPOS>MOLECULE
frag3-281-3/96164
   27    26     1     1     1
SMALL
USER_CHARGES


@<TRIPOS>ATOM
      1 C4         -4.3528    0.2252    0.3569 C.2        1 <1>        0.000
      2 C6         -2.9826    0.2391   -0.1610 C.2        1 <1>        0.000
      3 O3         -4.8936   -0.7105    0.9303 O.2        1 <1>        0.000
      4 C8         -2.3438    1.3033   -0.6687 C.2        1 <1>        0.000
      5 C11        -1.0159    1.3738   -1.1889 C.2        1 <1>        0.000
      6 C12         0.0264    0.6030   -0.8575 C.2        1 <1>        0.000
      7 O6          5.4008   -0.2568    0.5823 O.3        1 <1>        0.000
      8 C13         1.3654    0.5696   -1.3305 C.2        1 <1>        0.000
      9 C14         2.3175   -0.3152   -1.0432 C.2        1 <1>        0.000
     10 C15         2.4195   -1.4827   -0.2237 C.2        1 <1>        0.000
     11 C16         3.4998   -2.2637   -0.1131 C.2        1 <1>        0.000
     12 C18         4.7779   -2.1092   -0.7348 C.2        1 <1>        0.000
     13 C19         5.7747   -1.0673   -0.4079 C.2        1 <1>        0.000
     14 C20         5.1809   -2.7792   -1.8251 C.2        1 <1>        0.000
     15 O7          6.8493   -0.9025   -0.9646 O.2        1 <1>        0.000
     16 H          -4.9441    1.1304    0.2189 H.spc      1 <1>        0.000
     17 H          -2.4321   -0.7012   -0.1310 H.spc      1 <1>        0.000
     18 H          -2.9110    2.2339   -0.6866 H.spc      1 <1>        0.000
     19 H          -0.8306    2.1415   -1.9401 H.spc      1 <1>        0.000
     20 H          -0.1917   -0.1332   -0.0838 H.spc      1 <1>        0.000
     21 H           4.5374   -0.5249    0.9050 H.spc      1 <1>        0.000
     22 H           1.6489    1.3692   -2.0149 H.spc      1 <1>        0.000
     23 H           3.2510   -0.0953   -1.5611 H.spc      1 <1>        0.000
     24 H           1.5421   -1.7598    0.3607 H.spc      1 <1>        0.000
     25 H           3.3914   -3.1322    0.5365 H.spc      1 <1>        0.000
     26 H           4.5149   -3.5006   -2.2986 H.spc      1 <1>        0.000
     27 H           6.1743   -2.6021   -2.2374 H.spc      1 <1>        0.000
@<TRIPOS>BOND
     1    1    2 1  
     2   13   15 2  
     3    9   10 1  
     4    2    4 2  
     5   10   11 2  
     6    6    8 1  
     7    1    3 2  
     8    8    9 2  
     9   12   14 2  
    10    4    5 1  
    11    5    6 2  
    12   11   12 1  
    13   12   13 1  
    14   13    7 1  
    15    1   16 1  
    16    2   17 1  
    17    4   18 1  
    18    5   19 1  
    19    6   20 1  
    20    7   21 1  
    21    8   22 1  
    22    9   23 1  
    23   10   24 1  
    24   11   25 1  
    25   14   26 1  
    26   14   27 1  
# Name:          frag3-281-3/96164
# Creation time: Sat Jun  5 12:53:24 2010


@<TRIPOS>MOLECULE
frag3-281-3/96164
   27    26     1     1     1
SMALL
USER_CHARGES


@<TRIPOS>ATOM
      1 C4         -2.9332   -1.3085   -0.3206 C.2        1 <1>        0.000
      2 C6         -1.6814   -0.5859   -0.5475 C.2        1 <1>        0.000
      3 O3         -3.1483   -2.4717   -0.6281 O.2        1 <1>        0.000
      4 C8         -1.4975    0.7347   -0.4057 C.2        1 <1>        0.000
      5 C11        -0.2874    1.4688   -0.6374 C.2        1 <1>        0.000
      6 C12         0.9544    1.1808   -0.2181 C.2        1 <1>        0.000
      7 O6          2.9868   -2.9273   -2.1741 O.3        1 <1>        0.000
      8 C13         2.1871    1.8739   -0.4683 C.2        1 <1>        0.000
      9 C14         3.4101    1.6355    0.0262 C.2        1 <1>        0.000
     10 C15         3.9331    0.6353    0.9238 C.2        1 <1>        0.000
     11 C16         4.1752   -0.6222    0.5177 C.2        1 <1>        0.000
     12 C18         3.9951   -1.2572   -0.7659 C.2        1 <1>        0.000
     13 C19         3.0339   -2.3448   -0.9808 C.2        1 <1>        0.000
     14 C20         4.6120   -0.8896   -1.8932 C.2        1 <1>        0.000
     15 O7          2.2836   -2.6952   -0.0775 O.2        1 <1>        0.000
     16 H          -3.7430   -0.7630    0.1640 H.spc      1 <1>        0.000
     17 H          -0.8194   -1.1750   -0.8605 H.spc      1 <1>        0.000
     18 H          -2.3616    1.3132   -0.0788 H.spc      1 <1>        0.000
     19 H          -0.3895    2.3776   -1.2304 H.spc      1 <1>        0.000
     20 H           1.0401    0.2898    0.4039 H.spc      1 <1>        0.000
     21 H           3.6415   -2.5266   -2.7506 H.spc      1 <1>        0.000
     22 H           2.1184    2.7141   -1.1592 H.spc      1 <1>        0.000
     23 H           4.1635    2.3424   -0.3213 H.spc      1 <1>        0.000
     24 H           4.1375    0.9068    1.9595 H.spc      1 <1>        0.000
     25 H           4.5772   -1.2761    1.2915 H.spc      1 <1>        0.000
     26 H           5.3105   -0.0528   -1.8843 H.spc      1 <1>        0.000
     27 H           4.4166   -1.4266   -2.8214 H.spc      1 <1>        0.000
@<TRIPOS>BOND
     1    1    2 1  
     2   13   15 2  
     3    9   10 1  
     4    2    4 2  
     5   10   11 2  
     6    6    8 1  
     7    1    3 2  
     8    8    9 2  
     9   12   14 2  
    10    4    5 1  
    11    5    6 2  
    12   11   12 1  
    13   12   13 1  
    14   13    7 1  
    15    1   16 1  
    16    2   17 1  
    17    4   18 1  
    18    5   19 1  
    19    6   20 1  
    20    7   21 1  
    21    8   22 1  
    22    9   23 1  
    23   10   24 1  
    24   11   25 1  
    25   14   26 1  
    26   14   27 1  
# Name:          frag3-281-3/96164
# Creation time: Sat Jun  5 12:53:24 2010


@<TRIPOS>MOLECULE
frag3-281-3/96164
   27    26     1     1     1
SMALL
USER_CHARGES


@<TRIPOS>ATOM
      1 C4         -3.4504    0.1121   -1.5627 C.2        1 <1>        0.000
      2 C6         -2.2162   -0.1687   -0.8242 C.2        1 <1>        0.000
      3 O3         -3.5675    0.0846   -2.7792 O.2        1 <1>        0.000
      4 C8         -2.0754   -0.1615    0.5097 C.2        1 <1>        0.000
      5 C11        -0.8857   -0.4509    1.2581 C.2        1 <1>        0.000
      6 C12         0.3723   -0.0617    0.9909 C.2        1 <1>        0.000
      7 O6          5.0500   -2.8820   -1.8025 O.3        1 <1>        0.000
      8 C13         1.5809   -0.3473    1.7135 C.2        1 <1>        0.000
      9 C14         2.8143    0.0964    1.4516 C.2        1 <1>        0.000
     10 C15         3.2939    0.9310    0.3804 C.2        1 <1>        0.000
     11 C16         3.6688    0.4244   -0.8043 C.2        1 <1>        0.000
     12 C18         3.7327   -0.9333   -1.2793 C.2        1 <1>        0.000
     13 C19         4.9967   -1.5510   -1.6842 C.2        1 <1>        0.000
     14 C20         2.7133   -1.8018   -1.3501 C.2        1 <1>        0.000
     15 O7          5.9956   -0.8636   -1.8674 O.2        1 <1>        0.000
     16 H          -4.3359    0.3661   -0.9800 H.spc      1 <1>        0.000
     17 H          -1.3304   -0.4054   -1.4136 H.spc      1 <1>        0.000
     18 H          -2.9629    0.0923    1.0894 H.spc      1 <1>        0.000
     19 H          -1.0187   -1.0605    2.1519 H.spc      1 <1>        0.000
     20 H           0.4928    0.5571    0.1017 H.spc      1 <1>        0.000
     21 H           4.1824   -3.2529   -1.6254 H.spc      1 <1>        0.000
     22 H           1.4800   -1.0037    2.5778 H.spc      1 <1>        0.000
     23 H           3.5776   -0.2240    2.1607 H.spc      1 <1>        0.000
     24 H           3.3543    2.0080    0.5369 H.spc      1 <1>        0.000
     25 H           3.9793    1.1714   -1.5348 H.spc      1 <1>        0.000
     26 H           1.7166   -1.4997   -1.0285 H.spc      1 <1>        0.000
     27 H           2.8814   -2.8098   -1.7293 H.spc      1 <1>        0.000
@<TRIPOS>BOND
     1    1    2 1  
     2   13   15 2  
     3    9   10 1  
     4    2    4 2  
     5   10   11 2  
     6    6    8 1  
     7    1    3 2  
     8    8    9 2  
     9   12   14 2  
    10    4    5 1  
    11    5    6 2  
    12   11   12 1  
    13   12   13 1  
    14   13    7 1  
    15    1   16 1  
    16    2   17 1  
    17    4   18 1  
    18    5   19 1  
    19    6   20 1  
    20    7   21 1  
    21    8   22 1  
    22    9   23 1  
    23   10   24 1  
    24   11   25 1  
    25   14   26 1  
    26   14   27 1  
# Name:          frag3-281-3/96164
# Creation time: Sat Jun  5 12:53:24 2010


@<TRIPOS>MOLECULE
frag3-281-3/96164
   27    26     1     1     1
SMALL
USER_CHARGES


@<TRIPOS>ATOM
      1 C4         -4.0506    0.3208    0.8492 C.2        1 <1>        0.000
      2 C6         -2.6409    0.4716    0.4935 C.2        1 <1>        0.000
      3 O3         -4.9581   -0.2217    0.2406 O.2        1 <1>        0.000
      4 C8         -2.1492   -0.0161   -0.6534 C.2        1 <1>        0.000
      5 C11        -0.8120    0.0199   -1.1239 C.2        1 <1>        0.000
      6 C12         0.0650    1.0314   -1.1262 C.2        1 <1>        0.000
      7 O6          5.4564   -0.4916    0.8170 O.3        1 <1>        0.000
      8 C13         1.4216    1.0763   -1.5465 C.2        1 <1>        0.000
      9 C14         2.3332    0.1613   -1.1972 C.2        1 <1>        0.000
     10 C15         2.2714   -1.0162   -0.3863 C.2        1 <1>        0.000
     11 C16         3.2257   -1.9328   -0.2217 C.2        1 <1>        0.000
     12 C18         4.5354   -1.9699   -0.7763 C.2        1 <1>        0.000
     13 C19         5.7056   -1.2105   -0.2826 C.2        1 <1>        0.000
     14 C20         4.8073   -2.5890   -1.9376 C.2        1 <1>        0.000
     15 O7          6.8126   -1.2067   -0.7983 O.2        1 <1>        0.000
     16 H          -4.3347    0.7607    1.8052 H.spc      1 <1>        0.000
     17 H          -1.9730    0.9939    1.1785 H.spc      1 <1>        0.000
     18 H          -2.8702   -0.5035   -1.3096 H.spc      1 <1>        0.000
     19 H          -0.4434   -0.9148   -1.5465 H.spc      1 <1>        0.000
     20 H          -0.3253    1.9743   -0.7432 H.spc      1 <1>        0.000
     21 H           4.5410   -0.6156    1.0784 H.spc      1 <1>        0.000
     22 H           1.7363    1.8998   -2.1875 H.spc      1 <1>        0.000
     23 H           3.3222    0.3510   -1.6143 H.spc      1 <1>        0.000
     24 H           1.3411   -1.1822    0.1570 H.spc      1 <1>        0.000
     25 H           2.9666   -2.7692    0.4274 H.spc      1 <1>        0.000
     26 H           4.0099   -3.0864   -2.4898 H.spc      1 <1>        0.000
     27 H           5.8252   -2.5937   -2.3274 H.spc      1 <1>        0.000
@<TRIPOS>BOND
     1    1    2 1  
     2   13   15 2  
     3    9   10 1  
     4    2    4 2  
     5   10   11 2  
     6    6    8 1  
     7    1    3 2  
     8    8    9 2  
     9   12   14 2  
    10    4    5 1  
    11    5    6 2  
    12   11   12 1  
    13   12   13 1  
    14   13    7 1  
    15    1   16 1  
    16    2   17 1  
    17    4   18 1  
    18    5   19 1  
    19    6   20 1  
    20    7   21 1  
    21    8   22 1  
    22    9   23 1  
    23   10   24 1  
    24   11   25 1  
    25   14   26 1  
    26   14   27 1  
# Name:          frag3-281-3/96164
# Creation time: Sat Jun  5 12:53:24 2010


@<TRIPOS>MOLECULE
frag3-281-3/96164
   27    26     1     1     1
SMALL
USER_CHARGES


@<TRIPOS>ATOM
      1 C4         -4.1303   -0.2762    0.9137 C.2        1 <1>        0.000
      2 C6         -2.6961   -0.0170    0.8201 C.2        1 <1>        0.000
      3 O3         -4.9492   -0.3569    0.0170 O.2        1 <1>        0.000
      4 C8         -2.1096    0.3238   -0.3330 C.2        1 <1>        0.000
      5 C11        -0.7335    0.6189   -0.5414 C.2        1 <1>        0.000
      6 C12        -0.0387    1.0931   -1.5798 C.2        1 <1>        0.000
      7 O6          5.5167   -2.4334    0.9727 O.3        1 <1>        0.000
      8 C13         1.3750    1.3038   -1.6097 C.2        1 <1>        0.000
      9 C14         2.2919    0.3879   -1.2864 C.2        1 <1>        0.000
     10 C15         2.2048   -0.9728   -0.8444 C.2        1 <1>        0.000
     11 C16         3.2282   -1.8244   -0.7633 C.2        1 <1>        0.000
     12 C18         4.6106   -1.6432   -1.0321 C.2        1 <1>        0.000
     13 C19         5.6914   -1.5956   -0.0437 C.2        1 <1>        0.000
     14 C20         5.1110   -1.3321   -2.2351 C.2        1 <1>        0.000
     15 O7          6.6510   -0.8490   -0.1042 O.2        1 <1>        0.000
     16 H          -4.5196   -0.4162    1.9221 H.spc      1 <1>        0.000
     17 H          -2.0843   -0.1040    1.7180 H.spc      1 <1>        0.000
     18 H          -2.7566    0.3817   -1.2083 H.spc      1 <1>        0.000
     19 H          -0.1140    0.4147    0.3319 H.spc      1 <1>        0.000
     20 H          -0.5982    1.3406   -2.4819 H.spc      1 <1>        0.000
     21 H           4.7081   -2.9333    0.8386 H.spc      1 <1>        0.000
     22 H           1.7316    2.2861   -1.9197 H.spc      1 <1>        0.000
     23 H           3.3162    0.7493   -1.3773 H.spc      1 <1>        0.000
     24 H           1.2221   -1.3417   -0.5506 H.spc      1 <1>        0.000
     25 H           2.9578   -2.8282   -0.4356 H.spc      1 <1>        0.000
     26 H           4.4427   -1.2019   -3.0863 H.spc      1 <1>        0.000
     27 H           6.1865   -1.2092   -2.3628 H.spc      1 <1>        0.000
@<TRIPOS>BOND
     1    1    2 1  
     2   13   15 2  
     3    9   10 1  
     4    2    4 2  
     5   10   11 2  
     6    6    8 1  
     7    1    3 2  
     8    8    9 2  
     9   12   14 2  
    10    4    5 1  
    11    5    6 2  
    12   11   12 1  
    13   12   13 1  
    14   13    7 1  
    15    1   16 1  
    16    2   17 1  
    17    4   18 1  
    18    5   19 1  
    19    6   20 1  
    20    7   21 1  
    21    8   22 1  
    22    9   23 1  
    23   10   24 1  
    24   11   25 1  
    25   14   26 1  
    26   14   27 1  
# Name:          frag3-281-3/96164
# Creation time: Sat Jun  5 12:53:24 2010


@<TRIPOS>MOLECULE
frag3-281-3/96164
   27    26     1     1     1
SMALL
USER_CHARGES


@<TRIPOS>ATOM
      1 C4         -4.5465    1.2232    0.5450 C.2        1 <1>        0.000
      2 C6         -3.4252    0.8317   -0.3018 C.2        1 <1>        0.000
      3 O3         -5.5279    1.8423    0.1609 O.2        1 <1>        0.000
      4 C8         -2.3311    0.1838    0.1177 C.2        1 <1>        0.000
      5 C11        -1.2472   -0.1969   -0.7440 C.2        1 <1>        0.000
      6 C12        -0.0906   -0.8128   -0.5000 C.2        1 <1>        0.000
      7 O6          7.2122   -0.3331   -0.9859 O.3        1 <1>        0.000
      8 C13         0.9072   -1.1624   -1.4635 C.2        1 <1>        0.000
      9 C14         2.1145   -1.6793   -1.2137 C.2        1 <1>        0.000
     10 C15         2.8196   -2.0731   -0.0252 C.2        1 <1>        0.000
     11 C16         4.1556   -2.0254    0.1005 C.2        1 <1>        0.000
     12 C18         5.1700   -1.5825   -0.8004 C.2        1 <1>        0.000
     13 C19         5.9543   -0.3572   -0.5497 C.2        1 <1>        0.000
     14 C20         5.3846   -2.0423   -2.0274 C.2        1 <1>        0.000
     15 O7          5.4738    0.6107    0.0379 O.2        1 <1>        0.000
     16 H          -4.5063    0.9431    1.5976 H.spc      1 <1>        0.000
     17 H          -3.4825    1.0868   -1.3600 H.spc      1 <1>        0.000
     18 H          -2.2589   -0.0696    1.1754 H.spc      1 <1>        0.000
     19 H          -1.3982    0.0664   -1.7909 H.spc      1 <1>        0.000
     20 H           0.1155   -1.0764    0.5374 H.spc      1 <1>        0.000
     21 H           7.4162   -1.1661   -1.4172 H.spc      1 <1>        0.000
     22 H           0.6571   -0.9893   -2.5102 H.spc      1 <1>        0.000
     23 H           2.6984   -1.8387   -2.1202 H.spc      1 <1>        0.000
     24 H           2.2364   -2.4312    0.8232 H.spc      1 <1>        0.000
     25 H           4.5308   -2.3882    1.0574 H.spc      1 <1>        0.000
     26 H           4.7528   -2.8334   -2.4312 H.spc      1 <1>        0.000
     27 H           6.1926   -1.6286   -2.6309 H.spc      1 <1>        0.000
@<TRIPOS>BOND
     1    1    2 1  
     2   13   15 2  
     3    9   10 1  
     4    2    4 2  
     5   10   11 2  
     6    6    8 1  
     7    1    3 2  
     8    8    9 2  
     9   12   14 2  
    10    4    5 1  
    11    5    6 2  
    12   11   12 1  
    13   12   13 1  
    14   13    7 1  
    15    1   16 1  
    16    2   17 1  
    17    4   18 1  
    18    5   19 1  
    19    6   20 1  
    20    7   21 1  
    21    8   22 1  
    22    9   23 1  
    23   10   24 1  
    24   11   25 1  
    25   14   26 1  
    26   14   27 1  
# Name:          frag3-281-3/96164
# Creation time: Sat Jun  5 12:53:24 2010


@<TRIPOS>MOLECULE
frag3-281-3/96164
   27    26     1     1     1
SMALL
USER_CHARGES


@<TRIPOS>ATOM
      1 C4         -4.1686   -0.8022    0.1781 C.2        1 <1>        0.000
      2 C6         -2.7993   -0.7506   -0.3295 C.2        1 <1>        0.000
      3 O3         -4.8799    0.1114    0.5636 O.2        1 <1>        0.000
      4 C8         -2.0729    0.3754   -0.3124 C.2        1 <1>        0.000
      5 C11        -0.7352    0.5545   -0.7584 C.2        1 <1>        0.000
      6 C12         0.1377    1.5705   -0.6739 C.2        1 <1>        0.000
      7 O6          5.9077   -2.2413    0.7568 O.3        1 <1>        0.000
      8 C13         1.4808    1.5734   -1.1552 C.2        1 <1>        0.000
      9 C14         2.3784    0.6168   -0.8915 C.2        1 <1>        0.000
     10 C15         2.3190   -0.5911   -0.1269 C.2        1 <1>        0.000
     11 C16         3.1999   -1.5916   -0.1827 C.2        1 <1>        0.000
     12 C18         4.3813   -1.7461   -0.9538 C.2        1 <1>        0.000
     13 C19         5.7570   -1.6920   -0.4446 C.2        1 <1>        0.000
     14 C20         4.4244   -1.7904   -2.2913 C.2        1 <1>        0.000
     15 O7          6.6931   -1.1698   -1.0278 O.2        1 <1>        0.000
     16 H          -4.6171   -1.7949    0.2180 H.spc      1 <1>        0.000
     17 H          -2.3537   -1.6586   -0.7358 H.spc      1 <1>        0.000
     18 H          -2.5667    1.2592    0.0916 H.spc      1 <1>        0.000
     19 H          -0.3342   -0.3158   -1.2780 H.spc      1 <1>        0.000
     20 H          -0.2137    2.4821   -0.1905 H.spc      1 <1>        0.000
     21 H           5.0669   -2.5985    1.0519 H.spc      1 <1>        0.000
     22 H           1.7964    2.4099   -1.7787 H.spc      1 <1>        0.000
     23 H           3.3505    0.7932   -1.3518 H.spc      1 <1>        0.000
     24 H           1.4811   -0.7037    0.5611 H.spc      1 <1>        0.000
     25 H           2.9743   -2.4315    0.4744 H.spc      1 <1>        0.000
     26 H           3.5043   -1.7049   -2.8694 H.spc      1 <1>        0.000
     27 H           5.3796   -1.9120   -2.8021 H.spc      1 <1>        0.000
@<TRIPOS>BOND
     1    1    2 1  
     2   13   15 2  
     3    9   10 1  
     4    2    4 2  
     5   10   11 2  
     6    6    8 1  
     7    1    3 2  
     8    8    9 2  
     9   12   14 2  
    10    4    5 1  
    11    5    6 2  
    12   11   12 1  
    13   12   13 1  
    14   13    7 1  
    15    1   16 1  
    16    2   17 1  
    17    4   18 1  
    18    5   19 1  
    19    6   20 1  
    20    7   21 1  
    21    8   22 1  
    22    9   23 1  
    23   10   24 1  
    24   11   25 1  
    25   14   26 1  
    26   14   27 1  
# Name:          frag3-281-3/96164
# Creation time: Sat Jun  5 12:53:24 2010


@<TRIPOS>MOLECULE
frag3-281-3/96164
   27    26     1     1     1
SMALL
USER_CHARGES


@<TRIPOS>ATOM
      1 C4         -4.5494   -0.5134    0.1016 C.2        1 <1>        0.000
      2 C6         -3.3295    0.0382   -0.4936 C.2        1 <1>        0.000
      3 O3         -5.6879   -0.2921   -0.2769 O.2        1 <1>        0.000
      4 C8         -2.0913   -0.1617   -0.0357 C.2        1 <1>        0.000
      5 C11        -0.9090    0.3976   -0.6330 C.2        1 <1>        0.000
      6 C12         0.3843    0.3531   -0.2843 C.2        1 <1>        0.000
      7 O6          5.5548   -2.8967   -2.0457 O.3        1 <1>        0.000
      8 C13         1.4880    0.9777   -0.9695 C.2        1 <1>        0.000
      9 C14         2.7639    1.0532   -0.5815 C.2        1 <1>        0.000
     10 C15         3.4964    0.5579    0.5617 C.2        1 <1>        0.000
     11 C16         4.5225   -0.3099    0.4377 C.2        1 <1>        0.000
     12 C18         5.1101   -0.9432   -0.7147 C.2        1 <1>        0.000
     13 C19         5.0561   -2.3990   -0.9112 C.2        1 <1>        0.000
     14 C20         5.6646   -0.3002   -1.7321 C.2        1 <1>        0.000
     15 O7          4.5499   -3.1347   -0.0723 O.2        1 <1>        0.000
     16 H          -4.4294   -1.1790    0.9564 H.spc      1 <1>        0.000
     17 H          -3.4417    0.6614   -1.3808 H.spc      1 <1>        0.000
     18 H          -1.9689   -0.7889    0.8473 H.spc      1 <1>        0.000
     19 H          -1.1012    0.9662   -1.5429 H.spc      1 <1>        0.000
     20 H           0.6274   -0.2160    0.6130 H.spc      1 <1>        0.000
     21 H           5.9078   -2.1813   -2.5797 H.spc      1 <1>        0.000
     22 H           1.2517    1.4475   -1.9243 H.spc      1 <1>        0.000
     23 H           3.3892    1.6099   -1.2795 H.spc      1 <1>        0.000
     24 H           3.2105    0.8966    1.5575 H.spc      1 <1>        0.000
     25 H           4.9927   -0.5812    1.3829 H.spc      1 <1>        0.000
     26 H           5.6985    0.7893   -1.7349 H.spc      1 <1>        0.000
     27 H           6.0868   -0.8608   -2.5661 H.spc      1 <1>        0.000
@<TRIPOS>BOND
     1    1    2 1  
     2   13   15 2  
     3    9   10 1  
     4    2    4 2  
     5   10   11 2  
     6    6    8 1  
     7    1    3 2  
     8    8    9 2  
     9   12   14 2  
    10    4    5 1  
    11    5    6 2  
    12   11   12 1  
    13   12   13 1  
    14   13    7 1  
    15    1   16 1  
    16    2   17 1  
    17    4   18 1  
    18    5   19 1  
    19    6   20 1  
    20    7   21 1  
    21    8   22 1  
    22    9   23 1  
    23   10   24 1  
    24   11   25 1  
    25   14   26 1  
    26   14   27 1  
# Name:          frag3-281-3/96164
# Creation time: Sat Jun  5 12:53:24 2010


@<TRIPOS>MOLECULE
frag3-281-3/96164
   27    26     1     1     1
SMALL
USER_CHARGES


@<TRIPOS>ATOM
      1 C4         -3.9861    0.0167   -1.4861 C.2        1 <1>        0.000
      2 C6         -2.8947   -0.2241   -0.5425 C.2        1 <1>        0.000
      3 O3         -5.1591   -0.2819   -1.3216 O.2        1 <1>        0.000
      4 C8         -1.6231    0.1674   -0.7052 C.2        1 <1>        0.000
      5 C11        -0.5692   -0.0479    0.2462 C.2        1 <1>        0.000
      6 C12         0.7033    0.3569    0.3044 C.2        1 <1>        0.000
      7 O6          3.9233   -1.1467   -2.8473 O.3        1 <1>        0.000
      8 C13         1.6771    0.1034    1.3378 C.2        1 <1>        0.000
      9 C14         2.9857    0.3954    1.3630 C.2        1 <1>        0.000
     10 C15         3.8775    1.0066    0.4152 C.2        1 <1>        0.000
     11 C16         4.6251    0.2734   -0.4233 C.2        1 <1>        0.000
     12 C18         4.7167   -1.1589   -0.6137 C.2        1 <1>        0.000
     13 C19         4.3094   -1.8926   -1.8077 C.2        1 <1>        0.000
     14 C20         5.1392   -2.0301    0.3151 C.2        1 <1>        0.000
     15 O7          4.2982   -3.1106   -1.8841 O.2        1 <1>        0.000
     16 H          -3.7286    0.5087   -2.4240 H.spc      1 <1>        0.000
     17 H          -3.1360   -0.7682    0.3707 H.spc      1 <1>        0.000
     18 H          -1.3701    0.6881   -1.6287 H.spc      1 <1>        0.000
     19 H          -0.8674   -0.6669    1.0924 H.spc      1 <1>        0.000
     20 H           1.0499    0.9559   -0.5378 H.spc      1 <1>        0.000
     21 H           3.9941   -0.2175   -2.6168 H.spc      1 <1>        0.000
     22 H           1.2940   -0.3979    2.2266 H.spc      1 <1>        0.000
     23 H           3.4743    0.1104    2.2947 H.spc      1 <1>        0.000
     24 H           3.9479    2.0936    0.3770 H.spc      1 <1>        0.000
     25 H           5.2764    0.8570   -1.0739 H.spc      1 <1>        0.000
     26 H           5.4449   -1.6728    1.2984 H.spc      1 <1>        0.000
     27 H           5.1767   -3.0952    0.0863 H.spc      1 <1>        0.000
@<TRIPOS>BOND
     1    1    2 1  
     2   13   15 2  
     3    9   10 1  
     4    2    4 2  
     5   10   11 2  
     6    6    8 1  
     7    1    3 2  
     8    8    9 2  
     9   12   14 2  
    10    4    5 1  
    11    5    6 2  
    12   11   12 1  
    13   12   13 1  
    14   13    7 1  
    15    1   16 1  
    16    2   17 1  
    17    4   18 1  
    18    5   19 1  
    19    6   20 1  
    20    7   21 1  
    21    8   22 1  
    22    9   23 1  
    23   10   24 1  
    24   11   25 1  
    25   14   26 1  
    26   14   27 1  
# Name:          frag3-281-3/96164
# Creation time: Sat Jun  5 12:53:24 2010


@<TRIPOS>MOLECULE
frag3-281-3/96164
   27    26     1     1     1
SMALL
USER_CHARGES


@<TRIPOS>ATOM
      1 C4         -4.4442   -0.6312   -0.1263 C.2        1 <1>        0.000
      2 C6         -3.2052   -0.0603   -0.6490 C.2        1 <1>        0.000
      3 O3         -5.5052   -0.7151   -0.7261 O.2        1 <1>        0.000
      4 C8         -2.0576    0.0630    0.0312 C.2        1 <1>        0.000
      5 C11        -0.8497    0.6286   -0.4909 C.2        1 <1>        0.000
      6 C12         0.4124    0.6308   -0.0570 C.2        1 <1>        0.000
      7 O6          4.3370   -3.2546   -0.2571 O.3        1 <1>        0.000
      8 C13         1.5616    1.2448   -0.6651 C.2        1 <1>        0.000
      9 C14         2.8477    1.1420   -0.3123 C.2        1 <1>        0.000
     10 C15         3.5411    0.4609    0.7466 C.2        1 <1>        0.000
     11 C16         4.4833   -0.4649    0.5242 C.2        1 <1>        0.000
     12 C18         5.0195   -1.0289   -0.6938 C.2        1 <1>        0.000
     13 C19         4.9404   -2.4288   -1.1150 C.2        1 <1>        0.000
     14 C20         5.5708   -0.3070   -1.6825 C.2        1 <1>        0.000
     15 O7          5.3714   -2.8526   -2.1766 O.2        1 <1>        0.000
     16 H          -4.4197   -1.0179    0.8925 H.spc      1 <1>        0.000
     17 H          -3.2153    0.2953   -1.6793 H.spc      1 <1>        0.000
     18 H          -2.0419   -0.2945    1.0608 H.spc      1 <1>        0.000
     19 H          -0.9891    1.1641   -1.4300 H.spc      1 <1>        0.000
     20 H           0.5953    0.0996    0.8771 H.spc      1 <1>        0.000
     21 H           4.0616   -2.7620    0.5195 H.spc      1 <1>        0.000
     22 H           1.3576    1.8783   -1.5284 H.spc      1 <1>        0.000
     23 H           3.5159    1.6957   -0.9719 H.spc      1 <1>        0.000
     24 H           3.2887    0.7090    1.7775 H.spc      1 <1>        0.000
     25 H           4.9297   -0.8690    1.4328 H.spc      1 <1>        0.000
     26 H           5.6349    0.7776   -1.5949 H.spc      1 <1>        0.000
     27 H           5.9542   -0.8055   -2.5728 H.spc      1 <1>        0.000
@<TRIPOS>BOND
     1    1    2 1  
     2   13   15 2  
     3    9   10 1  
     4    2    4 2  
     5   10   11 2  
     6    6    8 1  
     7    1    3 2  
     8    8    9 2  
     9   12   14 2  
    10    4    5 1  
    11    5    6 2  
    12   11   12 1  
    13   12   13 1  
    14   13    7 1  
    15    1   16 1  
    16    2   17 1  
    17    4   18 1  
    18    5   19 1  
    19    6   20 1  
    20    7   21 1  
    21    8   22 1  
    22    9   23 1  
    23   10   24 1  
    24   11   25 1  
    25   14   26 1  
    26   14   27 1  
# Name:          frag3-281-3/96164
# Creation time: Sat Jun  5 12:53:24 2010


@<TRIPOS>MOLECULE
frag3-281-3/96164
   27    26     1     1     1
SMALL
USER_CHARGES


@<TRIPOS>ATOM
      1 C4         -3.6453   -0.8915   -0.2136 C.2        1 <1>        0.000
      2 C6         -2.2256   -0.6130   -0.4215 C.2        1 <1>        0.000
      3 O3         -4.1665   -1.9968   -0.1875 O.2        1 <1>        0.000
      4 C8         -1.6701    0.6061   -0.4632 C.2        1 <1>        0.000
      5 C11        -0.2791    0.8820   -0.6435 C.2        1 <1>        0.000
      6 C12         0.4648    1.9939   -0.5453 C.2        1 <1>        0.000
      7 O6          5.0185   -2.4574   -2.3785 O.3        1 <1>        0.000
      8 C13         1.8851    2.1085   -0.7225 C.2        1 <1>        0.000
      9 C14         2.7917    1.2919   -0.1615 C.2        1 <1>        0.000
     10 C15         2.7059    0.1607    0.7376 C.2        1 <1>        0.000
     11 C16         3.4544   -0.9492    0.6238 C.2        1 <1>        0.000
     12 C18         4.4476   -1.3253   -0.3411 C.2        1 <1>        0.000
     13 C19         4.2554   -2.4298   -1.2901 C.2        1 <1>        0.000
     14 C20         5.6030   -0.6816   -0.5351 C.2        1 <1>        0.000
     15 O7          3.3836   -3.2718   -1.1076 O.2        1 <1>        0.000
     16 H          -4.3008   -0.0329   -0.0682 H.spc      1 <1>        0.000
     17 H          -1.5631   -1.4684   -0.5537 H.spc      1 <1>        0.000
     18 H          -2.3366    1.4611   -0.3498 H.spc      1 <1>        0.000
     19 H           0.3006    0.0012   -0.9196 H.spc      1 <1>        0.000
     20 H          -0.0686    2.9133   -0.3040 H.spc      1 <1>        0.000
     21 H           5.6404   -1.7266   -2.3505 H.spc      1 <1>        0.000
     22 H           2.2532    2.9148   -1.3568 H.spc      1 <1>        0.000
     23 H           3.8160    1.5338   -0.4452 H.spc      1 <1>        0.000
     24 H           1.9897    0.2126    1.5577 H.spc      1 <1>        0.000
     25 H           3.2761   -1.6937    1.3997 H.spc      1 <1>        0.000
     26 H           5.8446    0.1969    0.0632 H.spc      1 <1>        0.000
     27 H           6.3036   -1.0352   -1.2916 H.spc      1 <1>        0.000
@<TRIPOS>BOND
     1    1    2 1  
     2   13   15 2  
     3    9   10 1  
     4    2    4 2  
     5   10   11 2  
     6    6    8 1  
     7    1    3 2  
     8    8    9 2  
     9   12   14 2  
    10    4    5 1  
    11    5    6 2  
    12   11   12 1  
    13   12   13 1  
    14   13    7 1  
    15    1   16 1  
    16    2   17 1  
    17    4   18 1  
    18    5   19 1  
    19    6   20 1  
    20    7   21 1  
    21    8   22 1  
    22    9   23 1  
    23   10   24 1  
    24   11   25 1  
    25   14   26 1  
    26   14   27 1  
# Name:          frag3-281-3/96164
# Creation time: Sat Jun  5 12:53:24 2010


@<TRIPOS>MOLECULE
frag3-281-3/96164
   27    26     1     1     1
SMALL
USER_CHARGES


@<TRIPOS>ATOM
      1 C4         -4.4296   -0.3335   -0.5977 C.2        1 <1>        0.000
      2 C6         -3.2099    0.3828   -0.9483 C.2        1 <1>        0.000
      3 O3         -4.5984   -1.2601    0.1750 O.2        1 <1>        0.000
      4 C8         -2.0282    0.1059   -0.3852 C.2        1 <1>        0.000
      5 C11        -0.7828    0.7405   -0.6485 C.2        1 <1>        0.000
      6 C12         0.4597    0.5316   -0.2174 C.2        1 <1>        0.000
      7 O6          6.4564   -1.7325   -0.3176 O.3        1 <1>        0.000
      8 C13         1.6425    1.2727   -0.5503 C.2        1 <1>        0.000
      9 C14         2.8702    1.1431   -0.0392 C.2        1 <1>        0.000
     10 C15         3.3471    0.2249    0.9508 C.2        1 <1>        0.000
     11 C16         3.8751   -0.9652    0.6302 C.2        1 <1>        0.000
     12 C18         4.1161   -1.5926   -0.6399 C.2        1 <1>        0.000
     13 C19         5.4473   -1.9166   -1.1713 C.2        1 <1>        0.000
     14 C20         3.1976   -1.8664   -1.5803 C.2        1 <1>        0.000
     15 O7          5.6603   -2.3078   -2.3102 O.2        1 <1>        0.000
     16 H          -5.3298    0.0133   -1.1051 H.spc      1 <1>        0.000
     17 H          -3.2622    1.1733   -1.6969 H.spc      1 <1>        0.000
     18 H          -2.0189   -0.6931    0.3561 H.spc      1 <1>        0.000
     19 H          -0.8620    1.5714   -1.3496 H.spc      1 <1>        0.000
     20 H           0.5945   -0.3026    0.4711 H.spc      1 <1>        0.000
     21 H           6.1104   -1.4259    0.5237 H.spc      1 <1>        0.000
     22 H           1.5245    2.0383   -1.3172 H.spc      1 <1>        0.000
     23 H           3.6152    1.8351   -0.4319 H.spc      1 <1>        0.000
     24 H           3.2784    0.5033    2.0024 H.spc      1 <1>        0.000
     25 H           4.1761   -1.5656    1.4887 H.spc      1 <1>        0.000
     26 H           2.1522   -1.6074   -1.4128 H.spc      1 <1>        0.000
     27 H           3.4974   -2.3477   -2.5112 H.spc      1 <1>        0.000
@<TRIPOS>BOND
     1    1    2 1  
     2   13   15 2  
     3    9   10 1  
     4    2    4 2  
     5   10   11 2  
     6    6    8 1  
     7    1    3 2  
     8    8    9 2  
     9   12   14 2  
    10    4    5 1  
    11    5    6 2  
    12   11   12 1  
    13   12   13 1  
    14   13    7 1  
    15    1   16 1  
    16    2   17 1  
    17    4   18 1  
    18    5   19 1  
    19    6   20 1  
    20    7   21 1  
    21    8   22 1  
    22    9   23 1  
    23   10   24 1  
    24   11   25 1  
    25   14   26 1  
    26   14   27 1  
# Name:          frag3-281-3/96164
# Creation time: Sat Jun  5 12:53:24 2010


@<TRIPOS>MOLECULE
frag3-281-3/96164
   27    26     1     1     1
SMALL
USER_CHARGES


@<TRIPOS>ATOM
      1 C4         -4.1841    0.6078    0.7540 C.2        1 <1>        0.000
      2 C6         -2.9776    0.3594   -0.0343 C.2        1 <1>        0.000
      3 O3         -4.9016   -0.2447    1.2585 O.2        1 <1>        0.000
      4 C8         -2.2001    1.2931   -0.6001 C.2        1 <1>        0.000
      5 C11        -1.0389    1.0622   -1.3928 C.2        1 <1>        0.000
      6 C12        -0.0205    0.2333   -1.1393 C.2        1 <1>        0.000
      7 O6          5.1348    0.0570    0.6876 O.3        1 <1>        0.000
      8 C13         1.1348   -0.0697   -1.9142 C.2        1 <1>        0.000
      9 C14         2.0903   -0.9627   -1.6597 C.2        1 <1>        0.000
     10 C15         2.3618   -1.9015   -0.6145 C.2        1 <1>        0.000
     11 C16         3.5930   -2.2654   -0.2355 C.2        1 <1>        0.000
     12 C18         4.8773   -1.8375   -0.6989 C.2        1 <1>        0.000
     13 C19         5.7605   -0.8684   -0.0422 C.2        1 <1>        0.000
     14 C20         5.4148   -2.1447   -1.8893 C.2        1 <1>        0.000
     15 O7          6.9789   -0.8915   -0.1289 O.2        1 <1>        0.000
     16 H          -4.4703    1.6485    0.9060 H.spc      1 <1>        0.000
     17 H          -2.6836   -0.6808   -0.1746 H.spc      1 <1>        0.000
     18 H          -2.4845    2.3327   -0.4376 H.spc      1 <1>        0.000
     19 H          -0.9724    1.6313   -2.3201 H.spc      1 <1>        0.000
     20 H          -0.0853   -0.2944   -0.1878 H.spc      1 <1>        0.000
     21 H           4.1866   -0.0837    0.6360 H.spc      1 <1>        0.000
     22 H           1.2528    0.5027   -2.8343 H.spc      1 <1>        0.000
     23 H           2.8522   -0.9831   -2.4389 H.spc      1 <1>        0.000
     24 H           1.5139   -2.3478   -0.0949 H.spc      1 <1>        0.000
     25 H           3.6220   -3.0119    0.5582 H.spc      1 <1>        0.000
     26 H           4.8626   -2.7688   -2.5919 H.spc      1 <1>        0.000
     27 H           6.4037   -1.7702   -2.1537 H.spc      1 <1>        0.000
@<TRIPOS>BOND
     1    1    2 1  
     2   13   15 2  
     3    9   10 1  
     4    2    4 2  
     5   10   11 2  
     6    6    8 1  
     7    1    3 2  
     8    8    9 2  
     9   12   14 2  
    10    4    5 1  
    11    5    6 2  
    12   11   12 1  
    13   12   13 1  
    14   13    7 1  
    15    1   16 1  
    16    2   17 1  
    17    4   18 1  
    18    5   19 1  
    19    6   20 1  
    20    7   21 1  
    21    8   22 1  
    22    9   23 1  
    23   10   24 1  
    24   11   25 1  
    25   14   26 1  
    26   14   27 1  
# Name:          frag3-281-3/96164
# Creation time: Sat Jun  5 12:53:24 2010


@<TRIPOS>MOLECULE
frag3-281-3/96164
   27    26     1     1     1
SMALL
USER_CHARGES


@<TRIPOS>ATOM
      1 C4         -3.7872   -0.5761   -0.6831 C.2        1 <1>        0.000
      2 C6         -2.5070    0.0999   -0.9012 C.2        1 <1>        0.000
      3 O3         -4.8001   -0.4599   -1.3581 O.2        1 <1>        0.000
      4 C8         -1.4063   -0.0696   -0.1579 C.2        1 <1>        0.000
      5 C11        -0.1408    0.5719   -0.3122 C.2        1 <1>        0.000
      6 C12         1.0553    0.4611    0.2699 C.2        1 <1>        0.000
      7 O6          5.2707   -0.5533   -1.6756 O.3        1 <1>        0.000
      8 C13         2.2880    1.1703    0.0719 C.2        1 <1>        0.000
      9 C14         3.5139    0.8836    0.5374 C.2        1 <1>        0.000
     10 C15         3.9894   -0.2122    1.3318 C.2        1 <1>        0.000
     11 C16         4.0811   -1.4672    0.8608 C.2        1 <1>        0.000
     12 C18         3.7809   -1.9347   -0.4634 C.2        1 <1>        0.000
     13 C19         4.1046   -1.2109   -1.7110 C.2        1 <1>        0.000
     14 C20         3.2062   -3.1012   -0.7685 C.2        1 <1>        0.000
     15 O7          3.3746   -1.1750   -2.6905 O.2        1 <1>        0.000
     16 H          -3.8432   -1.2531    0.1693 H.spc      1 <1>        0.000
     17 H          -2.4449    0.7977   -1.7363 H.spc      1 <1>        0.000
     18 H          -1.4863   -0.7824    0.6628 H.spc      1 <1>        0.000
     19 H          -0.1542    1.3342   -1.0912 H.spc      1 <1>        0.000
     20 H           1.1056   -0.3108    1.0379 H.spc      1 <1>        0.000
     21 H           5.6960   -0.7036   -0.8282 H.spc      1 <1>        0.000
     22 H           2.2185    2.0677   -0.5429 H.spc      1 <1>        0.000
     23 H           4.2806    1.6087    0.2647 H.spc      1 <1>        0.000
     24 H           4.2892   -0.0184    2.3617 H.spc      1 <1>        0.000
     25 H           4.4247   -2.2212    1.5690 H.spc      1 <1>        0.000
     26 H           2.9221   -3.7928    0.0247 H.spc      1 <1>        0.000
     27 H           3.0213   -3.3616   -1.8107 H.spc      1 <1>        0.000
@<TRIPOS>BOND
     1    1    2 1  
     2   13   15 2  
     3    9   10 1  
     4    2    4 2  
     5   10   11 2  
     6    6    8 1  
     7    1    3 2  
     8    8    9 2  
     9   12   14 2  
    10    4    5 1  
    11    5    6 2  
    12   11   12 1  
    13   12   13 1  
    14   13    7 1  
    15    1   16 1  
    16    2   17 1  
    17    4   18 1  
    18    5   19 1  
    19    6   20 1  
    20    7   21 1  
    21    8   22 1  
    22    9   23 1  
    23   10   24 1  
    24   11   25 1  
    25   14   26 1  
    26   14   27 1  
# Name:          frag3-281-3/96164
# Creation time: Sat Jun  5 12:53:24 2010


@<TRIPOS>MOLECULE
frag3-281-3/96164
   27    26     1     1     1
SMALL
USER_CHARGES


@<TRIPOS>ATOM
      1 C4         -3.9492   -0.3439   -0.8649 C.2        1 <1>        0.000
      2 C6         -2.5848   -0.0232   -0.4565 C.2        1 <1>        0.000
      3 O3         -4.9364   -0.3741   -0.1425 O.2        1 <1>        0.000
      4 C8         -1.5227   -0.0140   -1.2705 C.2        1 <1>        0.000
      5 C11        -0.1677    0.2572   -0.9256 C.2        1 <1>        0.000
      6 C12         0.3321    1.2133   -0.1344 C.2        1 <1>        0.000
      7 O6          3.8100   -2.0424   -2.4124 O.3        1 <1>        0.000
      8 C13         1.6609    1.4980    0.2863 C.2        1 <1>        0.000
      9 C14         2.5342    0.5742    0.6941 C.2        1 <1>        0.000
     10 C15         2.4420   -0.8468    0.8369 C.2        1 <1>        0.000
     11 C16         3.3480   -1.7415    0.4399 C.2        1 <1>        0.000
     12 C18         4.5951   -1.5555   -0.2253 C.2        1 <1>        0.000
     13 C19         4.8559   -1.6580   -1.6776 C.2        1 <1>        0.000
     14 C20         5.6811   -1.1142    0.4266 C.2        1 <1>        0.000
     15 O7          5.9249   -1.4025   -2.2237 O.2        1 <1>        0.000
     16 H          -4.1039   -0.5798   -1.9178 H.spc      1 <1>        0.000
     17 H          -2.4186    0.2278    0.5911 H.spc      1 <1>        0.000
     18 H          -1.7171   -0.2403   -2.3189 H.spc      1 <1>        0.000
     19 H           0.5691   -0.4113   -1.3709 H.spc      1 <1>        0.000
     20 H          -0.4164    1.9004    0.2604 H.spc      1 <1>        0.000
     21 H           3.0579   -2.2020   -1.8376 H.spc      1 <1>        0.000
     22 H           1.9872    2.5379    0.2750 H.spc      1 <1>        0.000
     23 H           3.5063    0.9813    0.9723 H.spc      1 <1>        0.000
     24 H           1.5440   -1.2358    1.3168 H.spc      1 <1>        0.000
     25 H           3.0949   -2.7789    0.6586 H.spc      1 <1>        0.000
     26 H           5.6233   -0.8883    1.4914 H.spc      1 <1>        0.000
     27 H           6.6215   -0.9815   -0.1084 H.spc      1 <1>        0.000
@<TRIPOS>BOND
     1    1    2 1  
     2   13   15 2  
     3    9   10 1  
     4    2    4 2  
     5   10   11 2  
     6    6    8 1  
     7    1    3 2  
     8    8    9 2  
     9   12   14 2  
    10    4    5 1  
    11    5    6 2  
    12   11   12 1  
    13   12   13 1  
    14   13    7 1  
    15    1   16 1  
    16    2   17 1  
    17    4   18 1  
    18    5   19 1  
    19    6   20 1  
    20    7   21 1  
    21    8   22 1  
    22    9   23 1  
    23   10   24 1  
    24   11   25 1  
    25   14   26 1  
    26   14   27 1  
# Name:          frag3-281-3/96164
# Creation time: Sat Jun  5 12:53:24 2010


@<TRIPOS>MOLECULE
frag3-281-3/96164
   27    26     1     1     1
SMALL
USER_CHARGES


@<TRIPOS>ATOM
      1 C4         -4.2028    0.6577   -1.2927 C.2        1 <1>        0.000
      2 C6         -3.1452   -0.0395   -0.5564 C.2        1 <1>        0.000
      3 O3         -5.4020    0.4280   -1.2259 O.2        1 <1>        0.000
      4 C8         -1.8333    0.2320   -0.6192 C.2        1 <1>        0.000
      5 C11        -0.8216   -0.4432    0.1413 C.2        1 <1>        0.000
      6 C12         0.4791   -0.2143    0.3397 C.2        1 <1>        0.000
      7 O6          5.5780   -2.4997   -2.2794 O.3        1 <1>        0.000
      8 C13         1.3920   -0.9696    1.1617 C.2        1 <1>        0.000
      9 C14         2.6779   -0.7026    1.4177 C.2        1 <1>        0.000
     10 C15         3.4962    0.3836    0.9350 C.2        1 <1>        0.000
     11 C16         4.1553    0.2739   -0.2335 C.2        1 <1>        0.000
     12 C18         4.2640   -0.8064   -1.1931 C.2        1 <1>        0.000
     13 C19         5.5542   -1.4452   -1.4709 C.2        1 <1>        0.000
     14 C20         3.2510   -1.3991   -1.8302 C.2        1 <1>        0.000
     15 O7          6.5806   -1.0290   -0.9438 O.2        1 <1>        0.000
     16 H          -3.8908    1.4576   -1.9642 H.spc      1 <1>        0.000
     17 H          -3.4524   -0.8522    0.1018 H.spc      1 <1>        0.000
     18 H          -1.5126    1.0230   -1.2972 H.spc      1 <1>        0.000
     19 H          -1.1905   -1.3249    0.6653 H.spc      1 <1>        0.000
     20 H           0.9006    0.6453   -0.1814 H.spc      1 <1>        0.000
     21 H           4.6896   -2.6789   -2.5960 H.spc      1 <1>        0.000
     22 H           0.9857   -1.8657    1.6308 H.spc      1 <1>        0.000
     23 H           3.1779   -1.4046    2.0850 H.spc      1 <1>        0.000
     24 H           3.5811    1.2990    1.5206 H.spc      1 <1>        0.000
     25 H           4.7136    1.1681   -0.5107 H.spc      1 <1>        0.000
     26 H           2.2267   -1.0755   -1.6450 H.spc      1 <1>        0.000
     27 H           3.4484   -2.2065   -2.5354 H.spc      1 <1>        0.000
@<TRIPOS>BOND
     1    1    2 1  
     2   13   15 2  
     3    9   10 1  
     4    2    4 2  
     5   10   11 2  
     6    6    8 1  
     7    1    3 2  
     8    8    9 2  
     9   12   14 2  
    10    4    5 1  
    11    5    6 2  
    12   11   12 1  
    13   12   13 1  
    14   13    7 1  
    15    1   16 1  
    16    2   17 1  
    17    4   18 1  
    18    5   19 1  
    19    6   20 1  
    20    7   21 1  
    21    8   22 1  
    22    9   23 1  
    23   10   24 1  
    24   11   25 1  
    25   14   26 1  
    26   14   27 1  
# Name:          frag3-281-3/96164
# Creation time: Sat Jun  5 12:53:24 2010


@<TRIPOS>MOLECULE
frag3-281-3/96164
   27    26     1     1     1
SMALL
USER_CHARGES


@<TRIPOS>ATOM
      1 C4         -3.8723   -0.7475   -0.3059 C.2        1 <1>        0.000
      2 C6         -2.5483   -0.1214   -0.2885 C.2        1 <1>        0.000
      3 O3         -4.3186   -1.4801    0.5652 O.2        1 <1>        0.000
      4 C8         -1.9975    0.5862   -1.2902 C.2        1 <1>        0.000
      5 C11        -0.7143    1.2389   -1.2732 C.2        1 <1>        0.000
      6 C12         0.4023    0.8358   -0.6476 C.2        1 <1>        0.000
      7 O6          5.7755   -2.0840   -2.1583 O.3        1 <1>        0.000
      8 C13         1.6838    1.4820   -0.5851 C.2        1 <1>        0.000
      9 C14         2.7418    1.1121    0.1489 C.2        1 <1>        0.000
     10 C15         2.9115   -0.0213    1.0294 C.2        1 <1>        0.000
     11 C16         3.4282   -1.1784    0.5820 C.2        1 <1>        0.000
     12 C18         3.9186   -1.5797   -0.7142 C.2        1 <1>        0.000
     13 C19         5.3224   -1.9436   -0.9125 C.2        1 <1>        0.000
     14 C20         3.2212   -1.5763   -1.8505 C.2        1 <1>        0.000
     15 O7          6.0690   -2.0960    0.0506 O.2        1 <1>        0.000
     16 H          -4.5114   -0.5438   -1.1650 H.spc      1 <1>        0.000
     17 H          -1.9559   -0.2399    0.6188 H.spc      1 <1>        0.000
     18 H          -2.5807    0.6746   -2.2068 H.spc      1 <1>        0.000
     19 H          -0.6412    2.1703   -1.8347 H.spc      1 <1>        0.000
     20 H           0.3266   -0.1115   -0.1138 H.spc      1 <1>        0.000
     21 H           5.0585   -1.9296   -2.7777 H.spc      1 <1>        0.000
     22 H           1.8092    2.3712   -1.2029 H.spc      1 <1>        0.000
     23 H           3.6091    1.7676    0.0697 H.spc      1 <1>        0.000
     24 H           2.6152    0.0639    2.0749 H.spc      1 <1>        0.000
     25 H           3.4880   -1.9596    1.3398 H.spc      1 <1>        0.000
     26 H           2.1816   -1.2488   -1.8509 H.spc      1 <1>        0.000
     27 H           3.6907   -1.9010   -2.7791 H.spc      1 <1>        0.000
@<TRIPOS>BOND
     1    1    2 1  
     2   13   15 2  
     3    9   10 1  
     4    2    4 2  
     5   10   11 2  
     6    6    8 1  
     7    1    3 2  
     8    8    9 2  
     9   12   14 2  
    10    4    5 1  
    11    5    6 2  
    12   11   12 1  
    13   12   13 1  
    14   13    7 1  
    15    1   16 1  
    16    2   17 1  
    17    4   18 1  
    18    5   19 1  
    19    6   20 1  
    20    7   21 1  
    21    8   22 1  
    22    9   23 1  
    23   10   24 1  
    24   11   25 1  
    25   14   26 1  
    26   14   27 1  
# Name:          frag3-281-3/96164
# Creation time: Sat Jun  5 12:53:24 2010


@<TRIPOS>MOLECULE
frag3-281-3/96164
   27    26     1     1     1
SMALL
USER_CHARGES


@<TRIPOS>ATOM
      1 C4         -4.4675    0.2262   -0.5091 C.2        1 <1>        0.000
      2 C6         -3.0416    0.3231   -0.1945 C.2        1 <1>        0.000
      3 O3         -5.1642   -0.7724   -0.3929 O.2        1 <1>        0.000
      4 C8         -2.2391    1.3482   -0.5113 C.2        1 <1>        0.000
      5 C11        -0.8528    1.4914   -0.2123 C.2        1 <1>        0.000
      6 C12         0.1005    0.5570   -0.2877 C.2        1 <1>        0.000
      7 O6          4.9632   -0.4570   -2.1641 O.3        1 <1>        0.000
      8 C13         1.4844    0.6046    0.0283 C.2        1 <1>        0.000
      9 C14         2.4028   -0.3486   -0.1079 C.2        1 <1>        0.000
     10 C15         2.4245   -1.6963   -0.5879 C.2        1 <1>        0.000
     11 C16         3.5161   -2.4597   -0.7239 C.2        1 <1>        0.000
     12 C18         4.8762   -2.1013   -0.4643 C.2        1 <1>        0.000
     13 C19         5.6394   -1.0480   -1.1760 C.2        1 <1>        0.000
     14 C20         5.6011   -2.5447    0.5720 C.2        1 <1>        0.000
     15 O7          6.7803   -0.6955   -0.9181 O.2        1 <1>        0.000
     16 H          -4.9539    1.1277   -0.8816 H.spc      1 <1>        0.000
     17 H          -2.5933   -0.5115    0.3446 H.spc      1 <1>        0.000
     18 H          -2.7001    2.1682   -1.0619 H.spc      1 <1>        0.000
     19 H          -0.5319    2.4797    0.1168 H.spc      1 <1>        0.000
     20 H          -0.2443   -0.4093   -0.6557 H.spc      1 <1>        0.000
     21 H           4.0901   -0.8501   -2.2326 H.spc      1 <1>        0.000
     22 H           1.8424    1.5493    0.4375 H.spc      1 <1>        0.000
     23 H           3.3852   -0.0203    0.2314 H.spc      1 <1>        0.000
     24 H           1.4690   -2.1403   -0.8672 H.spc      1 <1>        0.000
     25 H           3.3478   -3.4778   -1.0750 H.spc      1 <1>        0.000
     26 H           5.1576   -3.2310    1.2934 H.spc      1 <1>        0.000
     27 H           6.6342   -2.2190    0.6935 H.spc      1 <1>        0.000
@<TRIPOS>BOND
     1    1    2 1  
     2   13   15 2  
     3    9   10 1  
     4    2    4 2  
     5   10   11 2  
     6    6    8 1  
     7    1    3 2  
     8    8    9 2  
     9   12   14 2  
    10    4    5 1  
    11    5    6 2  
    12   11   12 1  
    13   12   13 1  
    14   13    7 1  
    15    1   16 1  
    16    2   17 1  
    17    4   18 1  
    18    5   19 1  
    19    6   20 1  
    20    7   21 1  
    21    8   22 1  
    22    9   23 1  
    23   10   24 1  
    24   11   25 1  
    25   14   26 1  
    26   14   27 1  
# Name:          frag3-281-3/96164
# Creation time: Sat Jun  5 12:53:24 2010


@<TRIPOS>MOLECULE
frag3-281-3/96164
   27    26     1     1     1
SMALL
USER_CHARGES


@<TRIPOS>ATOM
      1 C4         -4.5299   -0.0584    0.3502 C.2        1 <1>        0.000
      2 C6         -3.1608    0.2632   -0.0549 C.2        1 <1>        0.000
      3 O3         -5.0196    0.1065    1.4589 O.2        1 <1>        0.000
      4 C8         -2.6537    0.1191   -1.2861 C.2        1 <1>        0.000
      5 C11        -1.3288    0.4697   -1.6971 C.2        1 <1>        0.000
      6 C12        -0.1681    0.0715   -1.1673 C.2        1 <1>        0.000
      7 O6          6.4343   -1.8211   -1.9429 O.3        1 <1>        0.000
      8 C13         1.1564    0.4417   -1.5412 C.2        1 <1>        0.000
      9 C14         2.2919    0.1254   -0.9221 C.2        1 <1>        0.000
     10 C15         2.6448   -0.6235    0.2569 C.2        1 <1>        0.000
     11 C16         3.8955   -1.0194    0.5465 C.2        1 <1>        0.000
     12 C18         5.1162   -0.8573   -0.1897 C.2        1 <1>        0.000
     13 C19         5.8316   -2.0010   -0.7676 C.2        1 <1>        0.000
     14 C20         5.6978    0.3069   -0.4735 C.2        1 <1>        0.000
     15 O7          5.8157   -3.0965   -0.2198 O.2        1 <1>        0.000
     16 H          -5.1786   -0.4882   -0.4130 H.spc      1 <1>        0.000
     17 H          -2.4946    0.6548    0.7138 H.spc      1 <1>        0.000
     18 H          -3.3112   -0.3045   -2.0453 H.spc      1 <1>        0.000
     19 H          -1.2571    1.1461   -2.5488 H.spc      1 <1>        0.000
     20 H          -0.2449   -0.6310   -0.3375 H.spc      1 <1>        0.000
     21 H           6.3424   -0.9040   -2.2113 H.spc      1 <1>        0.000
     22 H           1.2507    1.0546   -2.4376 H.spc      1 <1>        0.000
     23 H           3.1664    0.5315   -1.4305 H.spc      1 <1>        0.000
     24 H           1.8498   -0.8844    0.9555 H.spc      1 <1>        0.000
     25 H           3.9996   -1.5491    1.4934 H.spc      1 <1>        0.000
     26 H           5.2433    1.2392   -0.1383 H.spc      1 <1>        0.000
     27 H           6.6282    0.3273   -1.0410 H.spc      1 <1>        0.000
@<TRIPOS>BOND
     1    1    2 1  
     2   13   15 2  
     3    9   10 1  
     4    2    4 2  
     5   10   11 2  
     6    6    8 1  
     7    1    3 2  
     8    8    9 2  
     9   12   14 2  
    10    4    5 1  
    11    5    6 2  
    12   11   12 1  
    13   12   13 1  
    14   13    7 1  
    15    1   16 1  
    16    2   17 1  
    17    4   18 1  
    18    5   19 1  
    19    6   20 1  
    20    7   21 1  
    21    8   22 1  
    22    9   23 1  
    23   10   24 1  
    24   11   25 1  
    25   14   26 1  
    26   14   27 1  
# Name:          frag3-281-3/96164
# Creation time: Sat Jun  5 12:53:24 2010


@<TRIPOS>MOLECULE
frag3-281-3/96164
   27    26     1     1     1
SMALL
USER_CHARGES


@<TRIPOS>ATOM
      1 C4         -3.9719    0.7296    0.8507 C.2        1 <1>        0.000
      2 C6         -2.7406    0.6014    0.0800 C.2        1 <1>        0.000
      3 O3         -4.9711    1.3386    0.4945 O.2        1 <1>        0.000
      4 C8         -1.5941    0.0496    0.4909 C.2        1 <1>        0.000
      5 C11        -0.3929   -0.0580   -0.2729 C.2        1 <1>        0.000
      6 C12        -0.2548   -0.3339   -1.5753 C.2        1 <1>        0.000
      7 O6          6.6686   -0.1539   -0.3544 O.3        1 <1>        0.000
      8 C13         0.9386   -0.4257   -2.3463 C.2        1 <1>        0.000
      9 C14         2.0126   -1.1383   -1.9936 C.2        1 <1>        0.000
     10 C15         2.3074   -1.9835   -0.8627 C.2        1 <1>        0.000
     11 C16         3.5276   -2.1899   -0.3579 C.2        1 <1>        0.000
     12 C18         4.7849   -1.6288   -0.7495 C.2        1 <1>        0.000
     13 C19         5.4230   -0.5195   -0.0346 C.2        1 <1>        0.000
     14 C20         5.4612   -1.9281   -1.8775 C.2        1 <1>        0.000
     15 O7          4.8247    0.0672    0.8589 O.2        1 <1>        0.000
     16 H          -4.0046    0.2422    1.8251 H.spc      1 <1>        0.000
     17 H          -2.7565    0.9961   -0.9359 H.spc      1 <1>        0.000
     18 H          -1.5749   -0.3555    1.5026 H.spc      1 <1>        0.000
     19 H           0.5338    0.1061    0.2769 H.spc      1 <1>        0.000
     20 H          -1.1821   -0.5126   -2.1197 H.spc      1 <1>        0.000
     21 H           6.9907   -0.7094   -1.0680 H.spc      1 <1>        0.000
     22 H           0.9789    0.1222   -3.2877 H.spc      1 <1>        0.000
     23 H           2.8340   -1.0660   -2.7065 H.spc      1 <1>        0.000
     24 H           1.4714   -2.4927   -0.3832 H.spc      1 <1>        0.000
     25 H           3.5719   -2.8899    0.4764 H.spc      1 <1>        0.000
     26 H           5.0536   -2.6541   -2.5809 H.spc      1 <1>        0.000
     27 H           6.4153   -1.4439   -2.0856 H.spc      1 <1>        0.000
@<TRIPOS>BOND
     1    1    2 1  
     2   13   15 2  
     3    9   10 1  
     4    2    4 2  
     5   10   11 2  
     6    6    8 1  
     7    1    3 2  
     8    8    9 2  
     9   12   14 2  
    10    4    5 1  
    11    5    6 2  
    12   11   12 1  
    13   12   13 1  
    14   13    7 1  
    15    1   16 1  
    16    2   17 1  
    17    4   18 1  
    18    5   19 1  
    19    6   20 1  
    20    7   21 1  
    21    8   22 1  
    22    9   23 1  
    23   10   24 1  
    24   11   25 1  
    25   14   26 1  
    26   14   27 1  
# Name:          frag3-281-3/96164
# Creation time: Sat Jun  5 12:53:24 2010


@<TRIPOS>MOLECULE
frag3-281-3/96164
   27    26     1     1     1
SMALL
USER_CHARGES


@<TRIPOS>ATOM
      1 C4         -4.2429    0.0086   -0.8604 C.2        1 <1>        0.000
      2 C6         -2.8239    0.1852   -0.5670 C.2        1 <1>        0.000
      3 O3         -4.9474    0.7756   -1.5000 O.2        1 <1>        0.000
      4 C8         -2.0791   -0.5700    0.2453 C.2        1 <1>        0.000
      5 C11        -0.6959   -0.4191    0.5260 C.2        1 <1>        0.000
      6 C12         0.0001    0.7017    0.7334 C.2        1 <1>        0.000
      7 O6          5.9818   -1.9558   -2.5611 O.3        1 <1>        0.000
      8 C13         1.3863    0.8938    0.9597 C.2        1 <1>        0.000
      9 C14         2.3332    0.3451    0.2001 C.2        1 <1>        0.000
     10 C15         2.2645   -0.5222   -0.9386 C.2        1 <1>        0.000
     11 C16         3.2207   -1.3592   -1.3423 C.2        1 <1>        0.000
     12 C18         4.4889   -1.6340   -0.7607 C.2        1 <1>        0.000
     13 C19         5.7860   -1.3575   -1.3895 C.2        1 <1>        0.000
     14 C20         4.7202   -2.0418    0.4990 C.2        1 <1>        0.000
     15 O7          6.6309   -0.6239   -0.8935 O.2        1 <1>        0.000
     16 H          -4.7189   -0.8920   -0.4726 H.spc      1 <1>        0.000
     17 H          -2.3213    1.0171   -1.0604 H.spc      1 <1>        0.000
     18 H          -2.5894   -1.3919    0.7474 H.spc      1 <1>        0.000
     19 H          -0.1232   -1.3450    0.5796 H.spc      1 <1>        0.000
     20 H          -0.5933    1.6160    0.7278 H.spc      1 <1>        0.000
     21 H           5.2121   -2.4857   -2.7811 H.spc      1 <1>        0.000
     22 H           1.6925    1.5215    1.7966 H.spc      1 <1>        0.000
     23 H           3.3486    0.6038    0.5004 H.spc      1 <1>        0.000
     24 H           1.3479   -0.4952   -1.5279 H.spc      1 <1>        0.000
     25 H           2.9972   -1.9151   -2.2529 H.spc      1 <1>        0.000
     26 H           3.8865   -2.1923    1.1849 H.spc      1 <1>        0.000
     27 H           5.7415   -2.2220    0.8347 H.spc      1 <1>        0.000
@<TRIPOS>BOND
     1    1    2 1  
     2   13   15 2  
     3    9   10 1  
     4    2    4 2  
     5   10   11 2  
     6    6    8 1  
     7    1    3 2  
     8    8    9 2  
     9   12   14 2  
    10    4    5 1  
    11    5    6 2  
    12   11   12 1  
    13   12   13 1  
    14   13    7 1  
    15    1   16 1  
    16    2   17 1  
    17    4   18 1  
    18    5   19 1  
    19    6   20 1  
    20    7   21 1  
    21    8   22 1  
    22    9   23 1  
    23   10   24 1  
    24   11   25 1  
    25   14   26 1  
    26   14   27 1  
# Name:          frag3-281-3/96164
# Creation time: Sat Jun  5 12:53:24 2010


@<TRIPOS>MOLECULE
frag3-281-3/96164
   27    26     1     1     1
SMALL
USER_CHARGES


@<TRIPOS>ATOM
      1 C4         -4.5822   -0.1459   -0.3122 C.2        1 <1>        0.000
      2 C6         -3.1908    0.2823   -0.3379 C.2        1 <1>        0.000
      3 O3         -5.3703    0.1048    0.5869 O.2        1 <1>        0.000
      4 C8         -2.3042    0.0242   -1.3052 C.2        1 <1>        0.000
      5 C11        -0.9471    0.4473   -1.3497 C.2        1 <1>        0.000
      6 C12        -0.1007    0.5819   -0.3216 C.2        1 <1>        0.000
      7 O6          5.2044   -2.2407   -2.3052 O.3        1 <1>        0.000
      8 C13         1.2460    1.0223   -0.3291 C.2        1 <1>        0.000
      9 C14         2.3120    0.2557   -0.1181 C.2        1 <1>        0.000
     10 C15         2.5138   -1.1260    0.1897 C.2        1 <1>        0.000
     11 C16         3.6986   -1.7421    0.1691 C.2        1 <1>        0.000
     12 C18         5.0033   -1.2745   -0.1668 C.2        1 <1>        0.000
     13 C19         5.8575   -1.7734   -1.2416 C.2        1 <1>        0.000
     14 C20         5.6090   -0.2077    0.3787 C.2        1 <1>        0.000
     15 O7          7.0741   -1.7813   -1.1866 O.2        1 <1>        0.000
     16 H          -4.9468   -0.7322   -1.1557 H.spc      1 <1>        0.000
     17 H          -2.8387    0.8683    0.5111 H.spc      1 <1>        0.000
     18 H          -2.6582   -0.5719   -2.1463 H.spc      1 <1>        0.000
     19 H          -0.5502    0.6901   -2.3354 H.spc      1 <1>        0.000
     20 H          -0.5028    0.3161    0.6560 H.spc      1 <1>        0.000
     21 H           4.2591   -2.1506   -2.1639 H.spc      1 <1>        0.000
     22 H           1.4234    2.0799   -0.5245 H.spc      1 <1>        0.000
     23 H           3.2481    0.8083   -0.1983 H.spc      1 <1>        0.000
     24 H           1.6394   -1.7179    0.4601 H.spc      1 <1>        0.000
     25 H           3.6617   -2.7914    0.4618 H.spc      1 <1>        0.000
     26 H           5.0983    0.3769    1.1439 H.spc      1 <1>        0.000
     27 H           6.6115    0.0738    0.0564 H.spc      1 <1>        0.000
@<TRIPOS>BOND
     1    1    2 1  
     2   13   15 2  
     3    9   10 1  
     4    2    4 2  
     5   10   11 2  
     6    6    8 1  
     7    1    3 2  
     8    8    9 2  
     9   12   14 2  
    10    4    5 1  
    11    5    6 2  
    12   11   12 1  
    13   12   13 1  
    14   13    7 1  
    15    1   16 1  
    16    2   17 1  
    17    4   18 1  
    18    5   19 1  
    19    6   20 1  
    20    7   21 1  
    21    8   22 1  
    22    9   23 1  
    23   10   24 1  
    24   11   25 1  
    25   14   26 1  
    26   14   27 1  
# Name:          frag3-281-3/96164
# Creation time: Sat Jun  5 12:53:24 2010


@<TRIPOS>MOLECULE
frag3-281-3/96164
   27    26     1     1     1
SMALL
USER_CHARGES


@<TRIPOS>ATOM
      1 C4         -4.2558   -0.0101   -0.6292 C.2        1 <1>        0.000
      2 C6         -2.8533   -0.0947   -0.2173 C.2        1 <1>        0.000
      3 O3         -5.1111   -0.8721   -0.4837 O.2        1 <1>        0.000
      4 C8         -1.9220    0.8315   -0.4899 C.2        1 <1>        0.000
      5 C11        -0.5546    0.7854   -0.0961 C.2        1 <1>        0.000
      6 C12         0.5151    1.5643   -0.2991 C.2        1 <1>        0.000
      7 O6          4.9284   -0.5455   -2.1837 O.3        1 <1>        0.000
      8 C13         1.8515    1.3164    0.1589 C.2        1 <1>        0.000
      9 C14         2.5090    0.1525    0.0445 C.2        1 <1>        0.000
     10 C15         2.2037   -1.1357   -0.5255 C.2        1 <1>        0.000
     11 C16         3.0595   -2.1393   -0.7549 C.2        1 <1>        0.000
     12 C18         4.4725   -2.1427   -0.5183 C.2        1 <1>        0.000
     13 C19         5.4548   -1.2847   -1.2069 C.2        1 <1>        0.000
     14 C20         5.0846   -2.7924    0.4829 C.2        1 <1>        0.000
     15 O7          6.6413   -1.2063   -0.9312 O.2        1 <1>        0.000
     16 H          -4.5692    0.9143   -1.1144 H.spc      1 <1>        0.000
     17 H          -2.5442   -0.9721    0.3508 H.spc      1 <1>        0.000
     18 H          -2.2417    1.6997   -1.0662 H.spc      1 <1>        0.000
     19 H          -0.3249   -0.0887    0.5133 H.spc      1 <1>        0.000
     20 H           0.3543    2.4789   -0.8699 H.spc      1 <1>        0.000
     21 H           3.9907   -0.7370   -2.2586 H.spc      1 <1>        0.000
     22 H           2.3764    2.1419    0.6397 H.spc      1 <1>        0.000
     23 H           3.5054    0.1897    0.4848 H.spc      1 <1>        0.000
     24 H           1.1635   -1.3118   -0.7994 H.spc      1 <1>        0.000
     25 H           2.6345   -3.0545   -1.1670 H.spc      1 <1>        0.000
     26 H           4.4982   -3.3746    1.1938 H.spc      1 <1>        0.000
     27 H           6.1684   -2.7382    0.5856 H.spc      1 <1>        0.000
@<TRIPOS>BOND
     1    1    2 1  
     2   13   15 2  
     3    9   10 1  
     4    2    4 2  
     5   10   11 2  
     6    6    8 1  
     7    1    3 2  
     8    8    9 2  
     9   12   14 2  
    10    4    5 1  
    11    5    6 2  
    12   11   12 1  
    13   12   13 1  
    14   13    7 1  
    15    1   16 1  
    16    2   17 1  
    17    4   18 1  
    18    5   19 1  
    19    6   20 1  
    20    7   21 1  
    21    8   22 1  
    22    9   23 1  
    23   10   24 1  
    24   11   25 1  
    25   14   26 1  
    26   14   27 1  
# Name:          frag3-281-3/96164
# Creation time: Sat Jun  5 12:53:24 2010


@<TRIPOS>MOLECULE
frag3-281-3/96164
   27    26     1     1     1
SMALL
USER_CHARGES


@<TRIPOS>ATOM
      1 C4         -3.6924    0.6976   -1.3459 C.2        1 <1>        0.000
      2 C6         -2.5471    0.2493   -0.5559 C.2        1 <1>        0.000
      3 O3         -4.1045    1.8465   -1.4172 O.2        1 <1>        0.000
      4 C8         -2.0791   -1.0042   -0.4677 C.2        1 <1>        0.000
      5 C11        -0.9762   -1.4246    0.3448 C.2        1 <1>        0.000
      6 C12         0.2364   -0.8675    0.4605 C.2        1 <1>        0.000
      7 O6          5.6784   -2.3244   -1.9551 O.3        1 <1>        0.000
      8 C13         1.3391   -1.2536    1.2880 C.2        1 <1>        0.000
      9 C14         2.5224   -0.6457    1.4146 C.2        1 <1>        0.000
     10 C15         3.0414    0.5218    0.7500 C.2        1 <1>        0.000
     11 C16         3.6849    0.4123   -0.4247 C.2        1 <1>        0.000
     12 C18         4.0245   -0.7415   -1.2214 C.2        1 <1>        0.000
     13 C19         5.4171   -1.1032   -1.5070 C.2        1 <1>        0.000
     14 C20         3.1589   -1.6347   -1.7206 C.2        1 <1>        0.000
     15 O7          6.3194   -0.3013   -1.2921 O.2        1 <1>        0.000
     16 H          -4.2258   -0.0586   -1.9219 H.spc      1 <1>        0.000
     17 H          -2.0204    1.0107    0.0195 H.spc      1 <1>        0.000
     18 H          -2.5795   -1.7672   -1.0640 H.spc      1 <1>        0.000
     19 H          -1.1466   -2.3158    0.9487 H.spc      1 <1>        0.000
     20 H           0.4087    0.0072   -0.1667 H.spc      1 <1>        0.000
     21 H           4.8557   -2.8070   -2.0638 H.spc      1 <1>        0.000
     22 H           1.1961   -2.1526    1.8876 H.spc      1 <1>        0.000
     23 H           3.2009   -1.1054    2.1333 H.spc      1 <1>        0.000
     24 H           2.9110    1.5040    1.2043 H.spc      1 <1>        0.000
     25 H           4.0070    1.3626   -0.8505 H.spc      1 <1>        0.000
     26 H           2.0909   -1.5214   -1.5346 H.spc      1 <1>        0.000
     27 H           3.5229   -2.4744   -2.3126 H.spc      1 <1>        0.000
@<TRIPOS>BOND
     1    1    2 1  
     2   13   15 2  
     3    9   10 1  
     4    2    4 2  
     5   10   11 2  
     6    6    8 1  
     7    1    3 2  
     8    8    9 2  
     9   12   14 2  
    10    4    5 1  
    11    5    6 2  
    12   11   12 1  
    13   12   13 1  
    14   13    7 1  
    15    1   16 1  
    16    2   17 1  
    17    4   18 1  
    18    5   19 1  
    19    6   20 1  
    20    7   21 1  
    21    8   22 1  
    22    9   23 1  
    23   10   24 1  
    24   11   25 1  
    25   14   26 1  
    26   14   27 1  
# Name:          frag3-281-3/96164
# Creation time: Sat Jun  5 12:53:24 2010


@<TRIPOS>MOLECULE
frag3-281-3/96164
   27    26     1     1     1
SMALL
USER_CHARGES


@<TRIPOS>ATOM
      1 C4         -2.2523    0.7839   -1.7704 C.2        1 <1>        0.000
      2 C6         -1.1762    0.1569   -1.0082 C.2        1 <1>        0.000
      3 O3         -2.4440    0.6369   -2.9669 O.2        1 <1>        0.000
      4 C8         -0.9118    0.3201    0.2911 C.2        1 <1>        0.000
      5 C11         0.1505   -0.3094    1.0183 C.2        1 <1>        0.000
      6 C12         0.6348   -1.5509    0.9277 C.2        1 <1>        0.000
      7 O6          2.7352   -1.3509   -3.0646 O.3        1 <1>        0.000
      8 C13         1.7261   -2.1214    1.6633 C.2        1 <1>        0.000
      9 C14         2.8929   -1.5050    1.9014 C.2        1 <1>        0.000
     10 C15         3.3884   -0.2018    1.5150 C.2        1 <1>        0.000
     11 C16         3.7489    0.0539    0.2485 C.2        1 <1>        0.000
     12 C18         3.7220   -0.7924   -0.9311 C.2        1 <1>        0.000
     13 C19         2.9704   -0.4196   -2.1418 C.2        1 <1>        0.000
     14 C20         4.2999   -1.9850   -1.0273 C.2        1 <1>        0.000
     15 O7          2.5385    0.7116   -2.3047 O.2        1 <1>        0.000
     16 H          -2.9385    1.4345   -1.2282 H.spc      1 <1>        0.000
     17 H          -0.5184   -0.5162   -1.5580 H.spc      1 <1>        0.000
     18 H          -1.5632    0.9931    0.8487 H.spc      1 <1>        0.000
     19 H           0.6388    0.3226    1.7600 H.spc      1 <1>        0.000
     20 H           0.1429   -2.2078    0.2104 H.spc      1 <1>        0.000
     21 H           3.1372   -2.1789   -2.7917 H.spc      1 <1>        0.000
     22 H           1.5975   -3.1295    2.0575 H.spc      1 <1>        0.000
     23 H           3.5952   -2.0921    2.4932 H.spc      1 <1>        0.000
     24 H           3.4701    0.5849    2.2651 H.spc      1 <1>        0.000
     25 H           4.1237    1.0629    0.0766 H.spc      1 <1>        0.000
     26 H           4.8460   -2.3961   -0.1782 H.spc      1 <1>        0.000
     27 H           4.2279   -2.5523   -1.9553 H.spc      1 <1>        0.000
@<TRIPOS>BOND
     1    1    2 1  
     2   13   15 2  
     3    9   10 1  
     4    2    4 2  
     5   10   11 2  
     6    6    8 1  
     7    1    3 2  
     8    8    9 2  
     9   12   14 2  
    10    4    5 1  
    11    5    6 2  
    12   11   12 1  
    13   12   13 1  
    14   13    7 1  
    15    1   16 1  
    16    2   17 1  
    17    4   18 1  
    18    5   19 1  
    19    6   20 1  
    20    7   21 1  
    21    8   22 1  
    22    9   23 1  
    23   10   24 1  
    24   11   25 1  
    25   14   26 1  
    26   14   27 1  
# Name:          frag3-281-3/96164
# Creation time: Sat Jun  5 12:53:24 2010


@<TRIPOS>MOLECULE
frag3-281-3/96164
   27    26     1     1     1
SMALL
USER_CHARGES


@<TRIPOS>ATOM
      1 C4         -4.3842    0.0925   -0.5838 C.2        1 <1>        0.000
      2 C6         -2.9349    0.2786   -0.6496 C.2        1 <1>        0.000
      3 O3         -5.0335   -0.7670   -1.1634 O.2        1 <1>        0.000
      4 C8         -2.2614    1.2096    0.0450 C.2        1 <1>        0.000
      5 C11        -0.8577    1.4781    0.0370 C.2        1 <1>        0.000
      6 C12         0.1454    0.5971    0.0972 C.2        1 <1>        0.000
      7 O6          4.3465   -0.9894   -2.4412 O.3        1 <1>        0.000
      8 C13         1.5559    0.7310    0.0467 C.2        1 <1>        0.000
      9 C14         2.4917   -0.2155    0.0709 C.2        1 <1>        0.000
     10 C15         2.5504   -1.6420    0.1638 C.2        1 <1>        0.000
     11 C16         3.6409   -2.3956   -0.0301 C.2        1 <1>        0.000
     12 C18         4.9649   -1.9704   -0.3632 C.2        1 <1>        0.000
     13 C19         5.3364   -1.1563   -1.5535 C.2        1 <1>        0.000
     14 C20         6.0338   -2.1834    0.4176 C.2        1 <1>        0.000
     15 O7          6.4293   -0.6405   -1.7433 O.2        1 <1>        0.000
     16 H          -4.9407    0.7886    0.0438 H.spc      1 <1>        0.000
     17 H          -2.3651   -0.3807   -1.3044 H.spc      1 <1>        0.000
     18 H          -2.8623    1.8417    0.6988 H.spc      1 <1>        0.000
     19 H          -0.5707    2.5278   -0.0258 H.spc      1 <1>        0.000
     20 H          -0.1890   -0.4345    0.2076 H.spc      1 <1>        0.000
     21 H           3.5649   -1.4578   -2.1391 H.spc      1 <1>        0.000
     22 H           1.9266    1.7538   -0.0216 H.spc      1 <1>        0.000
     23 H           3.4902    0.2160    0.0004 H.spc      1 <1>        0.000
     24 H           1.6257   -2.1618    0.4146 H.spc      1 <1>        0.000
     25 H           3.5010   -3.4709    0.0802 H.spc      1 <1>        0.000
     26 H           5.9198   -2.7076    1.3664 H.spc      1 <1>        0.000
     27 H           7.0168   -1.8323    0.1035 H.spc      1 <1>        0.000
@<TRIPOS>BOND
     1    1    2 1  
     2   13   15 2  
     3    9   10 1  
     4    2    4 2  
     5   10   11 2  
     6    6    8 1  
     7    1    3 2  
     8    8    9 2  
     9   12   14 2  
    10    4    5 1  
    11    5    6 2  
    12   11   12 1  
    13   12   13 1  
    14   13    7 1  
    15    1   16 1  
    16    2   17 1  
    17    4   18 1  
    18    5   19 1  
    19    6   20 1  
    20    7   21 1  
    21    8   22 1  
    22    9   23 1  
    23   10   24 1  
    24   11   25 1  
    25   14   26 1  
    26   14   27 1  
# Name:          frag3-281-3/96164
# Creation time: Sat Jun  5 12:53:24 2010


@<TRIPOS>MOLECULE
frag3-281-3/96164
   27    26     1     1     1
SMALL
USER_CHARGES


@<TRIPOS>ATOM
      1 C4         -3.8969   -0.7610   -0.4881 C.2        1 <1>        0.000
      2 C6         -2.5981   -0.1046   -0.3364 C.2        1 <1>        0.000
      3 O3         -4.6307   -0.6846   -1.4638 O.2        1 <1>        0.000
      4 C8         -1.8434   -0.0685    0.7705 C.2        1 <1>        0.000
      5 C11        -0.5939    0.6032    0.9205 C.2        1 <1>        0.000
      6 C12         0.4703    0.5960    0.1114 C.2        1 <1>        0.000
      7 O6          6.1044   -1.6952   -1.7577 O.3        1 <1>        0.000
      8 C13         1.7134    1.2914    0.1948 C.2        1 <1>        0.000
      9 C14         2.7320    1.2808   -0.6701 C.2        1 <1>        0.000
     10 C15         2.8996    0.5613   -1.8862 C.2        1 <1>        0.000
     11 C16         3.4215   -0.6700   -1.9234 C.2        1 <1>        0.000
     12 C18         3.9243   -1.5020   -0.8686 C.2        1 <1>        0.000
     13 C19         5.3146   -1.9770   -0.7224 C.2        1 <1>        0.000
     14 C20         3.2364   -1.8836    0.2180 C.2        1 <1>        0.000
     15 O7          5.7697   -2.5594    0.2518 O.2        1 <1>        0.000
     16 H          -4.2421   -1.3741    0.3444 H.spc      1 <1>        0.000
     17 H          -2.2038    0.4078   -1.2139 H.spc      1 <1>        0.000
     18 H          -2.2212   -0.6047    1.6411 H.spc      1 <1>        0.000
     19 H          -0.4925    1.2076    1.8219 H.spc      1 <1>        0.000
     20 H           0.3716   -0.0511   -0.7602 H.spc      1 <1>        0.000
     21 H           5.5953   -1.2404   -2.4326 H.spc      1 <1>        0.000
     22 H           1.8501    1.9127    1.0799 H.spc      1 <1>        0.000
     23 H           3.5680    1.9264   -0.4010 H.spc      1 <1>        0.000
     24 H           2.5918    1.0301   -2.8209 H.spc      1 <1>        0.000
     25 H           3.4731   -1.1135   -2.9178 H.spc      1 <1>        0.000
     26 H           2.2050   -1.5576    0.3524 H.spc      1 <1>        0.000
     27 H           3.7089   -2.5196    0.9666 H.spc      1 <1>        0.000
@<TRIPOS>BOND
     1    1    2 1  
     2   13   15 2  
     3    9   10 1  
     4    2    4 2  
     5   10   11 2  
     6    6    8 1  
     7    1    3 2  
     8    8    9 2  
     9   12   14 2  
    10    4    5 1  
    11    5    6 2  
    12   11   12 1  
    13   12   13 1  
    14   13    7 1  
    15    1   16 1  
    16    2   17 1  
    17    4   18 1  
    18    5   19 1  
    19    6   20 1  
    20    7   21 1  
    21    8   22 1  
    22    9   23 1  
    23   10   24 1  
    24   11   25 1  
    25   14   26 1  
    26   14   27 1  
# Name:          frag3-281-3/96164
# Creation time: Sat Jun  5 12:53:24 2010


@<TRIPOS>MOLECULE
frag3-281-3/96164
   27    26     1     1     1
SMALL
USER_CHARGES


@<TRIPOS>ATOM
      1 C4         -4.2237    0.2963    0.7511 C.2        1 <1>        0.000
      2 C6         -2.9740    0.4588    0.0154 C.2        1 <1>        0.000
      3 O3         -5.0064    1.1858    1.0468 O.2        1 <1>        0.000
      4 C8         -2.1053   -0.5203   -0.2485 C.2        1 <1>        0.000
      5 C11        -0.8855   -0.4416   -0.9704 C.2        1 <1>        0.000
      6 C12         0.0285    0.5345   -0.9799 C.2        1 <1>        0.000
      7 O6          5.6344   -1.6817    1.2528 O.3        1 <1>        0.000
      8 C13         1.2481    0.6579   -1.6952 C.2        1 <1>        0.000
      9 C14         2.2077   -0.2649   -1.7502 C.2        1 <1>        0.000
     10 C15         2.3629   -1.5646   -1.1701 C.2        1 <1>        0.000
     11 C16         3.5251   -2.1366   -0.8489 C.2        1 <1>        0.000
     12 C18         4.8424   -1.6179   -0.9793 C.2        1 <1>        0.000
     13 C19         5.6380   -1.0184    0.0968 C.2        1 <1>        0.000
     14 C20         5.4884   -1.4973   -2.1449 C.2        1 <1>        0.000
     15 O7          6.2427    0.0367   -0.0253 O.2        1 <1>        0.000
     16 H          -4.4830   -0.7144    1.0664 H.spc      1 <1>        0.000
     17 H          -2.7306    1.4575   -0.3471 H.spc      1 <1>        0.000
     18 H          -2.3658   -1.5050    0.1396 H.spc      1 <1>        0.000
     19 H          -0.6624   -1.2978   -1.6069 H.spc      1 <1>        0.000
     20 H          -0.2020    1.3775   -0.3285 H.spc      1 <1>        0.000
     21 H           5.1114   -2.4814    1.1600 H.spc      1 <1>        0.000
     22 H           1.4135    1.5844   -2.2451 H.spc      1 <1>        0.000
     23 H           3.0546    0.0331   -2.3683 H.spc      1 <1>        0.000
     24 H           1.4551   -2.1352   -0.9742 H.spc      1 <1>        0.000
     25 H           3.4547   -3.1398   -0.4286 H.spc      1 <1>        0.000
     26 H           5.0039   -1.8064   -3.0711 H.spc      1 <1>        0.000
     27 H           6.4992   -1.0900   -2.1682 H.spc      1 <1>        0.000
@<TRIPOS>BOND
     1    1    2 1  
     2   13   15 2  
     3    9   10 1  
     4    2    4 2  
     5   10   11 2  
     6    6    8 1  
     7    1    3 2  
     8    8    9 2  
     9   12   14 2  
    10    4    5 1  
    11    5    6 2  
    12   11   12 1  
    13   12   13 1  
    14   13    7 1  
    15    1   16 1  
    16    2   17 1  
    17    4   18 1  
    18    5   19 1  
    19    6   20 1  
    20    7   21 1  
    21    8   22 1  
    22    9   23 1  
    23   10   24 1  
    24   11   25 1  
    25   14   26 1  
    26   14   27 1  
# Name:          frag3-281-3/96164
# Creation time: Sat Jun  5 12:53:24 2010


@<TRIPOS>MOLECULE
frag3-281-3/96164
   27    26     1     1     1
SMALL
USER_CHARGES


@<TRIPOS>ATOM
      1 C4         -4.3823   -0.0641   -0.0959 C.2        1 <1>        0.000
      2 C6         -2.9774    0.0826   -0.4749 C.2        1 <1>        0.000
      3 O3         -5.0042   -1.1147   -0.0469 O.2        1 <1>        0.000
      4 C8         -2.2845    1.2302   -0.4660 C.2        1 <1>        0.000
      5 C11        -0.9175    1.3895   -0.8561 C.2        1 <1>        0.000
      6 C12         0.1405    0.6912   -0.4258 C.2        1 <1>        0.000
      7 O6          5.8803   -0.8098   -2.1575 O.3        1 <1>        0.000
      8 C13         1.5107    0.7921   -0.8154 C.2        1 <1>        0.000
      9 C14         2.5377    0.0516   -0.3934 C.2        1 <1>        0.000
     10 C15         2.7225   -1.0497    0.5341 C.2        1 <1>        0.000
     11 C16         3.8646   -1.7480    0.6988 C.2        1 <1>        0.000
     12 C18         5.0852   -1.5638   -0.0374 C.2        1 <1>        0.000
     13 C19         5.1282   -1.6857   -1.4981 C.2        1 <1>        0.000
     14 C20         6.2864   -1.2644    0.4615 C.2        1 <1>        0.000
     15 O7          4.4330   -2.5103   -2.0766 O.2        1 <1>        0.000
     16 H          -4.9230    0.8453    0.1664 H.spc      1 <1>        0.000
     17 H          -2.4492   -0.8169   -0.7912 H.spc      1 <1>        0.000
     18 H          -2.8110    2.1238   -0.1308 H.spc      1 <1>        0.000
     19 H          -0.7136    2.1702   -1.5889 H.spc      1 <1>        0.000
     20 H          -0.0749   -0.0631    0.3310 H.spc      1 <1>        0.000
     21 H           6.3468   -0.2535   -1.5294 H.spc      1 <1>        0.000
     22 H           1.7460    1.5669   -1.5450 H.spc      1 <1>        0.000
     23 H           3.4747    0.3490   -0.8643 H.spc      1 <1>        0.000
     24 H           1.8683   -1.3357    1.1477 H.spc      1 <1>        0.000
     25 H           3.8616   -2.5257    1.4625 H.spc      1 <1>        0.000
     26 H           6.4131   -1.1341    1.5362 H.spc      1 <1>        0.000
     27 H           7.1407   -1.1502   -0.2058 H.spc      1 <1>        0.000
@<TRIPOS>BOND
     1    1    2 1  
     2   13   15 2  
     3    9   10 1  
     4    2    4 2  
     5   10   11 2  
     6    6    8 1  
     7    1    3 2  
     8    8    9 2  
     9   12   14 2  
    10    4    5 1  
    11    5    6 2  
    12   11   12 1  
    13   12   13 1  
    14   13    7 1  
    15    1   16 1  
    16    2   17 1  
    17    4   18 1  
    18    5   19 1  
    19    6   20 1  
    20    7   21 1  
    21    8   22 1  
    22    9   23 1  
    23   10   24 1  
    24   11   25 1  
    25   14   26 1  
    26   14   27 1  
# Name:          frag3-281-3/96164
# Creation time: Sat Jun  5 12:53:24 2010


@<TRIPOS>MOLECULE
frag3-281-3/96164
   27    26     1     1     1
SMALL
USER_CHARGES


@<TRIPOS>ATOM
      1 C4         -2.6498    1.2627   -1.4255 C.2        1 <1>        0.000
      2 C6         -1.7557    0.3084   -0.7771 C.2        1 <1>        0.000
      3 O3         -3.6197    0.9696   -2.1104 O.2        1 <1>        0.000
      4 C8         -0.6940    0.5993   -0.0169 C.2        1 <1>        0.000
      5 C11         0.1586   -0.3391    0.6364 C.2        1 <1>        0.000
      6 C12         0.5876   -1.5414    0.2148 C.2        1 <1>        0.000
      7 O6          3.7489   -0.5986   -3.1669 O.3        1 <1>        0.000
      8 C13         1.4277   -2.4650    0.9147 C.2        1 <1>        0.000
      9 C14         2.5878   -2.1723    1.5279 C.2        1 <1>        0.000
     10 C15         3.3147   -0.9308    1.6238 C.2        1 <1>        0.000
     11 C16         3.9584   -0.4041    0.5675 C.2        1 <1>        0.000
     12 C18         4.0725   -0.8712   -0.7866 C.2        1 <1>        0.000
     13 C19         3.4914   -0.1661   -1.9349 C.2        1 <1>        0.000
     14 C20         4.6123   -2.0436   -1.1549 C.2        1 <1>        0.000
     15 O7          2.7826    0.8189   -1.7617 O.2        1 <1>        0.000
     16 H          -2.4357    2.3226   -1.2881 H.spc      1 <1>        0.000
     17 H          -1.9754   -0.7486   -0.9276 H.spc      1 <1>        0.000
     18 H          -0.4578    1.6551    0.1160 H.spc      1 <1>        0.000
     19 H           0.5144   -0.0373    1.6215 H.spc      1 <1>        0.000
     20 H           0.2566   -1.8492   -0.7771 H.spc      1 <1>        0.000
     21 H           4.3145   -1.3729   -3.1213 H.spc      1 <1>        0.000
     22 H           1.0959   -3.5025    0.9542 H.spc      1 <1>        0.000
     23 H           3.0571   -3.0138    2.0375 H.spc      1 <1>        0.000
     24 H           3.3431   -0.4052    2.5783 H.spc      1 <1>        0.000
     25 H           4.4795    0.5312    0.7719 H.spc      1 <1>        0.000
     26 H           5.0063   -2.7234   -0.3995 H.spc      1 <1>        0.000
     27 H           4.6566   -2.3159   -2.2094 H.spc      1 <1>        0.000
@<TRIPOS>BOND
     1    1    2 1  
     2   13   15 2  
     3    9   10 1  
     4    2    4 2  
     5   10   11 2  
     6    6    8 1  
     7    1    3 2  
     8    8    9 2  
     9   12   14 2  
    10    4    5 1  
    11    5    6 2  
    12   11   12 1  
    13   12   13 1  
    14   13    7 1  
    15    1   16 1  
    16    2   17 1  
    17    4   18 1  
    18    5   19 1  
    19    6   20 1  
    20    7   21 1  
    21    8   22 1  
    22    9   23 1  
    23   10   24 1  
    24   11   25 1  
    25   14   26 1  
    26   14   27 1  
# Name:          frag3-281-3/96164
# Creation time: Sat Jun  5 12:53:25 2010


@<TRIPOS>MOLECULE
frag3-281-3/96164
   27    26     1     1     1
SMALL
USER_CHARGES


@<TRIPOS>ATOM
      1 C4         -2.4770    0.8987   -1.7607 C.2        1 <1>        0.000
      2 C6         -1.4513    0.1552   -1.0334 C.2        1 <1>        0.000
      3 O3         -2.2839    1.5841   -2.7531 O.2        1 <1>        0.000
      4 C8         -1.6134   -0.6056    0.0531 C.2        1 <1>        0.000
      5 C11        -0.6020   -1.3343    0.7530 C.2        1 <1>        0.000
      6 C12         0.6492   -0.9699    1.0421 C.2        1 <1>        0.000
      7 O6          2.8085   -1.2611   -3.0403 O.3        1 <1>        0.000
      8 C13         1.6796   -1.6767    1.7274 C.2        1 <1>        0.000
      9 C14         2.9606   -1.3420    1.9262 C.2        1 <1>        0.000
     10 C15         3.7545   -0.2207    1.5152 C.2        1 <1>        0.000
     11 C16         4.1499   -0.0786    0.2442 C.2        1 <1>        0.000
     12 C18         3.9242   -0.9089   -0.9125 C.2        1 <1>        0.000
     13 C19         3.2438   -0.4036   -2.1209 C.2        1 <1>        0.000
     14 C20         4.2302   -2.2050   -1.0121 C.2        1 <1>        0.000
     15 O7          3.0504    0.7951   -2.2778 O.2        1 <1>        0.000
     16 H          -3.4990    0.8367   -1.3869 H.spc      1 <1>        0.000
     17 H          -0.4357    0.2297   -1.4221 H.spc      1 <1>        0.000
     18 H          -2.6265   -0.6785    0.4486 H.spc      1 <1>        0.000
     19 H          -0.8933   -2.3261    1.0989 H.spc      1 <1>        0.000
     20 H           0.9270    0.0269    0.6995 H.spc      1 <1>        0.000
     21 H           3.0352   -2.1554   -2.7750 H.spc      1 <1>        0.000
     22 H           1.3796   -2.6339    2.1539 H.spc      1 <1>        0.000
     23 H           3.5122   -2.0697    2.5214 H.spc      1 <1>        0.000
     24 H           4.0414    0.5300    2.2516 H.spc      1 <1>        0.000
     25 H           4.7424    0.8157    0.0513 H.spc      1 <1>        0.000
     26 H           4.6922   -2.7221   -0.1711 H.spc      1 <1>        0.000
     27 H           4.0180   -2.7458   -1.9344 H.spc      1 <1>        0.000
@<TRIPOS>BOND
     1    1    2 1  
     2   13   15 2  
     3    9   10 1  
     4    2    4 2  
     5   10   11 2  
     6    6    8 1  
     7    1    3 2  
     8    8    9 2  
     9   12   14 2  
    10    4    5 1  
    11    5    6 2  
    12   11   12 1  
    13   12   13 1  
    14   13    7 1  
    15    1   16 1  
    16    2   17 1  
    17    4   18 1  
    18    5   19 1  
    19    6   20 1  
    20    7   21 1  
    21    8   22 1  
    22    9   23 1  
    23   10   24 1  
    24   11   25 1  
    25   14   26 1  
    26   14   27 1  
# Name:          frag3-281-3/96164
# Creation time: Sat Jun  5 12:53:25 2010


@<TRIPOS>MOLECULE
frag3-281-3/96164
   27    26     1     1     1
SMALL
USER_CHARGES


@<TRIPOS>ATOM
      1 C4         -3.3845   -0.6617   -0.8425 C.2        1 <1>        0.000
      2 C6         -2.0596   -0.0991   -0.5372 C.2        1 <1>        0.000
      3 O3         -4.0529   -1.3589   -0.0930 O.2        1 <1>        0.000
      4 C8         -1.2855    0.5765   -1.4001 C.2        1 <1>        0.000
      5 C11         0.0041    1.1753   -1.1308 C.2        1 <1>        0.000
      6 C12         0.9482    0.7264   -0.2990 C.2        1 <1>        0.000
      7 O6          4.1989   -1.0315   -2.6403 O.3        1 <1>        0.000
      8 C13         2.2340    1.2872    0.0532 C.2        1 <1>        0.000
      9 C14         3.1790    0.7387    0.8418 C.2        1 <1>        0.000
     10 C15         3.2011   -0.5426    1.5352 C.2        1 <1>        0.000
     11 C16         3.2618   -1.7193    0.8847 C.2        1 <1>        0.000
     12 C18         3.3566   -1.8947   -0.5545 C.2        1 <1>        0.000
     13 C19         4.4196   -1.2566   -1.3424 C.2        1 <1>        0.000
     14 C20         2.5423   -2.6011   -1.3255 C.2        1 <1>        0.000
     15 O7          5.4600   -0.9118   -0.7992 O.2        1 <1>        0.000
     16 H          -3.8067   -0.4373   -1.8220 H.spc      1 <1>        0.000
     17 H          -1.6755   -0.2430    0.4727 H.spc      1 <1>        0.000
     18 H          -1.6698    0.6862   -2.4142 H.spc      1 <1>        0.000
     19 H           0.2308    2.0967   -1.6672 H.spc      1 <1>        0.000
     20 H           0.7108   -0.2160    0.1946 H.spc      1 <1>        0.000
     21 H           3.3338   -1.3716   -2.8803 H.spc      1 <1>        0.000
     22 H           2.4651    2.2658   -0.3675 H.spc      1 <1>        0.000
     23 H           4.0692    1.3515    0.9837 H.spc      1 <1>        0.000
     24 H           3.1671   -0.5484    2.6247 H.spc      1 <1>        0.000
     25 H           3.2376   -2.6233    1.4932 H.spc      1 <1>        0.000
     26 H           1.6949   -3.1269   -0.8856 H.spc      1 <1>        0.000
     27 H           2.7200   -2.6563   -2.3995 H.spc      1 <1>        0.000
@<TRIPOS>BOND
     1    1    2 1  
     2   13   15 2  
     3    9   10 1  
     4    2    4 2  
     5   10   11 2  
     6    6    8 1  
     7    1    3 2  
     8    8    9 2  
     9   12   14 2  
    10    4    5 1  
    11    5    6 2  
    12   11   12 1  
    13   12   13 1  
    14   13    7 1  
    15    1   16 1  
    16    2   17 1  
    17    4   18 1  
    18    5   19 1  
    19    6   20 1  
    20    7   21 1  
    21    8   22 1  
    22    9   23 1  
    23   10   24 1  
    24   11   25 1  
    25   14   26 1  
    26   14   27 1  
# Name:          frag3-281-3/96164
# Creation time: Sat Jun  5 12:53:25 2010


@<TRIPOS>MOLECULE
frag3-281-3/96164
   27    26     1     1     1
SMALL
USER_CHARGES


@<TRIPOS>ATOM
      1 C4         -2.7872   -0.8313    0.9638 C.2        1 <1>        0.000
      2 C6         -1.7637   -0.4261   -0.0010 C.2        1 <1>        0.000
      3 O3         -3.7784   -1.5038    0.7203 O.2        1 <1>        0.000
      4 C8         -0.6782    0.3080    0.2886 C.2        1 <1>        0.000
      5 C11         0.3187    0.7099   -0.6593 C.2        1 <1>        0.000
      6 C12         1.4495    1.4266   -0.5979 C.2        1 <1>        0.000
      7 O6          4.2770   -1.7140    1.4613 O.3        1 <1>        0.000
      8 C13         2.3371    1.7128   -1.7035 C.2        1 <1>        0.000
      9 C14         2.7420    0.8410   -2.6577 C.2        1 <1>        0.000
     10 C15         2.4603   -0.5676   -2.8462 C.2        1 <1>        0.000
     11 C16         2.9632   -1.5079   -2.0252 C.2        1 <1>        0.000
     12 C18         3.8300   -1.3934   -0.8785 C.2        1 <1>        0.000
     13 C19         3.3817   -1.7313    0.4762 C.2        1 <1>        0.000
     14 C20         5.0577   -0.8682   -0.8918 C.2        1 <1>        0.000
     15 O7          2.2136   -2.0280    0.7012 O.2        1 <1>        0.000
     16 H          -2.6531   -0.5030    1.9945 H.spc      1 <1>        0.000
     17 H          -1.8933   -0.7454   -1.0351 H.spc      1 <1>        0.000
     18 H          -0.5446    0.6225    1.3236 H.spc      1 <1>        0.000
     19 H           0.1079    0.3480   -1.6656 H.spc      1 <1>        0.000
     20 H           1.7260    1.8314    0.3756 H.spc      1 <1>        0.000
     21 H           5.1339   -1.4624    1.1091 H.spc      1 <1>        0.000
     22 H           2.7181    2.7315   -1.7760 H.spc      1 <1>        0.000
     23 H           3.3935    1.2749   -3.4162 H.spc      1 <1>        0.000
     24 H           1.8234   -0.8742   -3.6759 H.spc      1 <1>        0.000
     25 H           2.6651   -2.5279   -2.2679 H.spc      1 <1>        0.000
     26 H           5.4761   -0.4840   -1.8221 H.spc      1 <1>        0.000
     27 H           5.6414   -0.8237    0.0276 H.spc      1 <1>        0.000
@<TRIPOS>BOND
     1    1    2 1  
     2   13   15 2  
     3    9   10 1  
     4    2    4 2  
     5   10   11 2  
     6    6    8 1  
     7    1    3 2  
     8    8    9 2  
     9   12   14 2  
    10    4    5 1  
    11    5    6 2  
    12   11   12 1  
    13   12   13 1  
    14   13    7 1  
    15    1   16 1  
    16    2   17 1  
    17    4   18 1  
    18    5   19 1  
    19    6   20 1  
    20    7   21 1  
    21    8   22 1  
    22    9   23 1  
    23   10   24 1  
    24   11   25 1  
    25   14   26 1  
    26   14   27 1  
# Name:          frag3-281-3/96164
# Creation time: Sat Jun  5 12:53:25 2010


@<TRIPOS>MOLECULE
frag3-281-3/96164
   27    26     1     1     1
SMALL
USER_CHARGES


@<TRIPOS>ATOM
      1 C4         -4.4233   -0.1632    0.1743 C.2        1 <1>        0.000
      2 C6         -3.0425    0.0263   -0.2899 C.2        1 <1>        0.000
      3 O3         -4.9734   -1.2275    0.4221 O.2        1 <1>        0.000
      4 C8         -2.4573    1.2196   -0.4961 C.2        1 <1>        0.000
      5 C11        -1.1135    1.4557   -0.9503 C.2        1 <1>        0.000
      6 C12         0.0091    0.8552   -0.5121 C.2        1 <1>        0.000
      7 O6          6.8248   -1.5553   -1.6628 O.3        1 <1>        0.000
      8 C13         1.3533    1.0310   -0.9759 C.2        1 <1>        0.000
      9 C14         2.4251    0.3251   -0.6091 C.2        1 <1>        0.000
     10 C15         2.6302   -0.7764    0.3076 C.2        1 <1>        0.000
     11 C16         3.5699   -1.7223    0.1279 C.2        1 <1>        0.000
     12 C18         4.5650   -1.8765   -0.8981 C.2        1 <1>        0.000
     13 C19         5.9777   -1.5946   -0.6327 C.2        1 <1>        0.000
     14 C20         4.3201   -2.1968   -2.1687 C.2        1 <1>        0.000
     15 O7          6.3581   -1.3736    0.5141 O.2        1 <1>        0.000
     16 H          -5.0200    0.7385    0.3124 H.spc      1 <1>        0.000
     17 H          -2.4478   -0.8669   -0.4815 H.spc      1 <1>        0.000
     18 H          -3.0664    2.1015   -0.2978 H.spc      1 <1>        0.000
     19 H          -0.9903    2.2022   -1.7349 H.spc      1 <1>        0.000
     20 H          -0.1218    0.1421    0.3018 H.spc      1 <1>        0.000
     21 H           6.3502   -1.7527   -2.4736 H.spc      1 <1>        0.000
     22 H           1.5179    1.8245   -1.7048 H.spc      1 <1>        0.000
     23 H           3.3408    0.6464   -1.1054 H.spc      1 <1>        0.000
     24 H           1.9909   -0.8428    1.1880 H.spc      1 <1>        0.000
     25 H           3.5781   -2.5032    0.8883 H.spc      1 <1>        0.000
     26 H           3.2955   -2.3646   -2.5007 H.spc      1 <1>        0.000
     27 H           5.1444   -2.2909   -2.8756 H.spc      1 <1>        0.000
@<TRIPOS>BOND
     1    1    2 1  
     2   13   15 2  
     3    9   10 1  
     4    2    4 2  
     5   10   11 2  
     6    6    8 1  
     7    1    3 2  
     8    8    9 2  
     9   12   14 2  
    10    4    5 1  
    11    5    6 2  
    12   11   12 1  
    13   12   13 1  
    14   13    7 1  
    15    1   16 1  
    16    2   17 1  
    17    4   18 1  
    18    5   19 1  
    19    6   20 1  
    20    7   21 1  
    21    8   22 1  
    22    9   23 1  
    23   10   24 1  
    24   11   25 1  
    25   14   26 1  
    26   14   27 1  
# Name:          frag3-281-3/96164
# Creation time: Sat Jun  5 12:53:25 2010


@<TRIPOS>MOLECULE
frag3-281-3/96164
   27    26     1     1     1
SMALL
USER_CHARGES


@<TRIPOS>ATOM
      1 C4         -4.1011   -0.7078   -0.6782 C.2        1 <1>        0.000
      2 C6         -2.8724    0.0781   -0.7826 C.2        1 <1>        0.000
      3 O3         -5.1863   -0.4124   -1.1577 O.2        1 <1>        0.000
      4 C8         -1.6722   -0.2602   -0.2920 C.2        1 <1>        0.000
      5 C11        -0.4858    0.5291   -0.3982 C.2        1 <1>        0.000
      6 C12         0.7294    0.4476    0.1459 C.2        1 <1>        0.000
      7 O6          5.0268   -1.9652   -2.7108 O.3        1 <1>        0.000
      8 C13         1.8561    1.3253   -0.0244 C.2        1 <1>        0.000
      9 C14         3.0925    1.1811    0.4693 C.2        1 <1>        0.000
     10 C15         3.6226    0.1088    1.2699 C.2        1 <1>        0.000
     11 C16         3.9443   -1.0872    0.7413 C.2        1 <1>        0.000
     12 C18         3.9041   -1.5848   -0.6137 C.2        1 <1>        0.000
     13 C19         5.1297   -1.7511   -1.4047 C.2        1 <1>        0.000
     14 C20         2.8099   -1.8091   -1.3500 C.2        1 <1>        0.000
     15 O7          6.2258   -1.6655   -0.8638 O.2        1 <1>        0.000
     16 H          -4.0443   -1.6432   -0.1216 H.spc      1 <1>        0.000
     17 H          -2.9391    1.0298   -1.3097 H.spc      1 <1>        0.000
     18 H          -1.5947   -1.2140    0.2299 H.spc      1 <1>        0.000
     19 H          -0.5979    1.3815   -1.0682 H.spc      1 <1>        0.000
     20 H           0.8907   -0.4008    0.8110 H.spc      1 <1>        0.000
     21 H           4.0993   -2.0027   -2.9557 H.spc      1 <1>        0.000
     22 H           1.6825    2.2158   -0.6286 H.spc      1 <1>        0.000
     23 H           3.7914    1.9836    0.2332 H.spc      1 <1>        0.000
     24 H           3.7683    0.2700    2.3380 H.spc      1 <1>        0.000
     25 H           4.3010   -1.8140    1.4711 H.spc      1 <1>        0.000
     26 H           1.8224   -1.6128   -0.9325 H.spc      1 <1>        0.000
     27 H           2.9059   -2.1882   -2.3674 H.spc      1 <1>        0.000
@<TRIPOS>BOND
     1    1    2 1  
     2   13   15 2  
     3    9   10 1  
     4    2    4 2  
     5   10   11 2  
     6    6    8 1  
     7    1    3 2  
     8    8    9 2  
     9   12   14 2  
    10    4    5 1  
    11    5    6 2  
    12   11   12 1  
    13   12   13 1  
    14   13    7 1  
    15    1   16 1  
    16    2   17 1  
    17    4   18 1  
    18    5   19 1  
    19    6   20 1  
    20    7   21 1  
    21    8   22 1  
    22    9   23 1  
    23   10   24 1  
    24   11   25 1  
    25   14   26 1  
    26   14   27 1  
# Name:          frag3-281-3/96164
# Creation time: Sat Jun  5 12:53:25 2010


@<TRIPOS>MOLECULE
frag3-281-3/96164
   27    26     1     1     1
SMALL
USER_CHARGES


@<TRIPOS>ATOM
      1 C4         -4.3851   -0.1696    0.1367 C.2        1 <1>        0.000
      2 C6         -3.0348    0.0948   -0.3623 C.2        1 <1>        0.000
      3 O3         -5.3365    0.5983    0.0808 O.2        1 <1>        0.000
      4 C8         -1.9641   -0.6942   -0.1954 C.2        1 <1>        0.000
      5 C11        -0.6428   -0.4561   -0.6853 C.2        1 <1>        0.000
      6 C12        -0.0130    0.7239   -0.8154 C.2        1 <1>        0.000
      7 O6          6.3864   -1.9789   -1.9022 O.3        1 <1>        0.000
      8 C13         1.3029    0.9770   -1.3027 C.2        1 <1>        0.000
      9 C14         2.4273    0.4976   -0.7594 C.2        1 <1>        0.000
     10 C15         2.7029   -0.3184    0.4019 C.2        1 <1>        0.000
     11 C16         3.8639   -0.9427    0.6495 C.2        1 <1>        0.000
     12 C18         5.0491   -0.9897   -0.1563 C.2        1 <1>        0.000
     13 C19         5.2620   -2.0061   -1.1931 C.2        1 <1>        0.000
     14 C20         6.0011   -0.0483   -0.1593 C.2        1 <1>        0.000
     15 O7          4.4039   -2.8608   -1.3874 O.2        1 <1>        0.000
     16 H          -4.5595   -1.1402    0.6011 H.spc      1 <1>        0.000
     17 H          -2.8861    1.0187   -0.9213 H.spc      1 <1>        0.000
     18 H          -2.1169   -1.6120    0.3725 H.spc      1 <1>        0.000
     19 H          -0.0782   -1.3373   -0.9900 H.spc      1 <1>        0.000
     20 H          -0.5820    1.6015   -0.5086 H.spc      1 <1>        0.000
     21 H           6.9305   -1.2443   -1.6091 H.spc      1 <1>        0.000
     22 H           1.4000    1.6093   -2.1852 H.spc      1 <1>        0.000
     23 H           3.3252    0.7822   -1.3079 H.spc      1 <1>        0.000
     24 H           1.9040   -0.4355    1.1341 H.spc      1 <1>        0.000
     25 H           3.9132   -1.4887    1.5916 H.spc      1 <1>        0.000
     26 H           5.9030    0.8280    0.4814 H.spc      1 <1>        0.000
     27 H           6.8742   -0.1582   -0.8025 H.spc      1 <1>        0.000
@<TRIPOS>BOND
     1    1    2 1  
     2   13   15 2  
     3    9   10 1  
     4    2    4 2  
     5   10   11 2  
     6    6    8 1  
     7    1    3 2  
     8    8    9 2  
     9   12   14 2  
    10    4    5 1  
    11    5    6 2  
    12   11   12 1  
    13   12   13 1  
    14   13    7 1  
    15    1   16 1  
    16    2   17 1  
    17    4   18 1  
    18    5   19 1  
    19    6   20 1  
    20    7   21 1  
    21    8   22 1  
    22    9   23 1  
    23   10   24 1  
    24   11   25 1  
    25   14   26 1  
    26   14   27 1  
# Name:          frag3-281-3/96164
# Creation time: Sat Jun  5 12:53:25 2010


@<TRIPOS>MOLECULE
frag3-281-3/96164
   27    26     1     1     1
SMALL
USER_CHARGES


@<TRIPOS>ATOM
      1 C4         -4.2017    0.2078   -0.8881 C.2        1 <1>        0.000
      2 C6         -2.7933    0.5318   -0.6749 C.2        1 <1>        0.000
      3 O3         -4.7969   -0.8380   -0.6946 O.2        1 <1>        0.000
      4 C8         -1.9648   -0.2735   -0.0016 C.2        1 <1>        0.000
      5 C11        -0.5807   -0.0990    0.2576 C.2        1 <1>        0.000
      6 C12         0.0970    1.0392    0.4510 C.2        1 <1>        0.000
      7 O6          5.8565   -1.4510   -2.4293 O.3        1 <1>        0.000
      8 C13         1.4809    1.2655    0.6618 C.2        1 <1>        0.000
      9 C14         2.4298    0.7106   -0.0899 C.2        1 <1>        0.000
     10 C15         2.3581   -0.1726   -1.2100 C.2        1 <1>        0.000
     11 C16         3.1872   -1.1943   -1.4249 C.2        1 <1>        0.000
     12 C18         4.3081   -1.6617   -0.6741 C.2        1 <1>        0.000
     13 C19         5.7094   -1.7028   -1.1269 C.2        1 <1>        0.000
     14 C20         4.2496   -2.0329    0.6192 C.2        1 <1>        0.000
     15 O7          6.6841   -1.9022   -0.4249 O.2        1 <1>        0.000
     16 H          -4.8111    1.0229   -1.2784 H.spc      1 <1>        0.000
     17 H          -2.4029    1.4654   -1.0800 H.spc      1 <1>        0.000
     18 H          -2.4111   -1.1829    0.4007 H.spc      1 <1>        0.000
     19 H           0.0097   -1.0140    0.3057 H.spc      1 <1>        0.000
     20 H          -0.5160    1.9405    0.4455 H.spc      1 <1>        0.000
     21 H           4.9933   -1.3190   -2.8281 H.spc      1 <1>        0.000
     22 H           1.7818    1.9240    1.4766 H.spc      1 <1>        0.000
     23 H           3.4449    0.9790    0.2026 H.spc      1 <1>        0.000
     24 H           1.5690    0.0011   -1.9416 H.spc      1 <1>        0.000
     25 H           2.9733   -1.7698   -2.3256 H.spc      1 <1>        0.000
     26 H           3.3029   -1.9862    1.1573 H.spc      1 <1>        0.000
     27 H           5.1490   -2.3801    1.1278 H.spc      1 <1>        0.000
@<TRIPOS>BOND
     1    1    2 1  
     2   13   15 2  
     3    9   10 1  
     4    2    4 2  
     5   10   11 2  
     6    6    8 1  
     7    1    3 2  
     8    8    9 2  
     9   12   14 2  
    10    4    5 1  
    11    5    6 2  
    12   11   12 1  
    13   12   13 1  
    14   13    7 1  
    15    1   16 1  
    16    2   17 1  
    17    4   18 1  
    18    5   19 1  
    19    6   20 1  
    20    7   21 1  
    21    8   22 1  
    22    9   23 1  
    23   10   24 1  
    24   11   25 1  
    25   14   26 1  
    26   14   27 1  
# Name:          frag3-281-3/96164
# Creation time: Sat Jun  5 12:53:25 2010


@<TRIPOS>MOLECULE
frag3-281-3/96164
   27    26     1     1     1
SMALL
USER_CHARGES


@<TRIPOS>ATOM
      1 C4         -4.3231   -0.3209   -0.6447 C.2        1 <1>        0.000
      2 C6         -3.0070    0.3090   -0.7718 C.2        1 <1>        0.000
      3 O3         -5.3638    0.0785   -1.1478 O.2        1 <1>        0.000
      4 C8         -1.8794   -0.1264   -0.1905 C.2        1 <1>        0.000
      5 C11        -0.5924    0.5035   -0.3190 C.2        1 <1>        0.000
      6 C12         0.6069    0.2457    0.2027 C.2        1 <1>        0.000
      7 O6          5.3445   -1.3883   -2.7533 O.3        1 <1>        0.000
      8 C13         1.8351    0.9778    0.0167 C.2        1 <1>        0.000
      9 C14         3.0537    0.6503    0.4821 C.2        1 <1>        0.000
     10 C15         3.4615   -0.4974    1.2557 C.2        1 <1>        0.000
     11 C16         3.9307   -1.6279    0.6995 C.2        1 <1>        0.000
     12 C18         4.1713   -1.8991   -0.7099 C.2        1 <1>        0.000
     13 C19         5.2646   -1.2424   -1.4321 C.2        1 <1>        0.000
     14 C20         3.4404   -2.6708   -1.5167 C.2        1 <1>        0.000
     15 O7          6.0803   -0.5648   -0.8205 O.2        1 <1>        0.000
     16 H          -4.3804   -1.2301   -0.0462 H.spc      1 <1>        0.000
     17 H          -2.9383    1.2047   -1.3892 H.spc      1 <1>        0.000
     18 H          -1.9428   -1.0239    0.4248 H.spc      1 <1>        0.000
     19 H          -0.5994    1.3707   -0.9793 H.spc      1 <1>        0.000
     20 H           0.6666   -0.6283    0.8513 H.spc      1 <1>        0.000
     21 H           4.6263   -1.9487   -3.0562 H.spc      1 <1>        0.000
     22 H           1.7687    1.8974   -0.5648 H.spc      1 <1>        0.000
     23 H           3.8494    1.3547    0.2395 H.spc      1 <1>        0.000
     24 H           3.3856   -0.4454    2.3418 H.spc      1 <1>        0.000
     25 H           4.1589   -2.4410    1.3887 H.spc      1 <1>        0.000
     26 H           2.5557   -3.1779   -1.1316 H.spc      1 <1>        0.000
     27 H           3.7281   -2.7941   -2.5608 H.spc      1 <1>        0.000
@<TRIPOS>BOND
     1    1    2 1  
     2   13   15 2  
     3    9   10 1  
     4    2    4 2  
     5   10   11 2  
     6    6    8 1  
     7    1    3 2  
     8    8    9 2  
     9   12   14 2  
    10    4    5 1  
    11    5    6 2  
    12   11   12 1  
    13   12   13 1  
    14   13    7 1  
    15    1   16 1  
    16    2   17 1  
    17    4   18 1  
    18    5   19 1  
    19    6   20 1  
    20    7   21 1  
    21    8   22 1  
    22    9   23 1  
    23   10   24 1  
    24   11   25 1  
    25   14   26 1  
    26   14   27 1  
# Name:          frag3-281-3/96164
# Creation time: Sat Jun  5 12:53:25 2010


@<TRIPOS>MOLECULE
frag3-281-3/96164
   27    26     1     1     1
SMALL
USER_CHARGES


@<TRIPOS>ATOM
      1 C4         -4.3945    0.1313    0.0657 C.2        1 <1>        0.000
      2 C6         -3.0311    0.3921   -0.3932 C.2        1 <1>        0.000
      3 O3         -5.2864    0.9577    0.1921 O.2        1 <1>        0.000
      4 C8         -2.0585   -0.5276   -0.3792 C.2        1 <1>        0.000
      5 C11        -0.6958   -0.4052   -0.7780 C.2        1 <1>        0.000
      6 C12         0.0865    0.6838   -0.7213 C.2        1 <1>        0.000
      7 O6          5.7248    0.0474   -0.1166 O.3        1 <1>        0.000
      8 C13         1.4419    0.8946   -1.0903 C.2        1 <1>        0.000
      9 C14         2.4913    0.2255   -0.6135 C.2        1 <1>        0.000
     10 C15         2.6255   -0.8216    0.3522 C.2        1 <1>        0.000
     11 C16         3.5545   -1.7776    0.3568 C.2        1 <1>        0.000
     12 C18         4.6204   -1.9938   -0.5653 C.2        1 <1>        0.000
     13 C19         5.7270   -1.0586   -0.8727 C.2        1 <1>        0.000
     14 C20         4.6366   -3.0779   -1.3597 C.2        1 <1>        0.000
     15 O7          6.5810   -1.2432   -1.7266 O.2        1 <1>        0.000
     16 H          -4.6395   -0.9000    0.3198 H.spc      1 <1>        0.000
     17 H          -2.7940    1.3883   -0.7666 H.spc      1 <1>        0.000
     18 H          -2.3506   -1.5107   -0.0100 H.spc      1 <1>        0.000
     19 H          -0.2320   -1.3067   -1.1782 H.spc      1 <1>        0.000
     20 H          -0.4084    1.5676   -0.3187 H.spc      1 <1>        0.000
     21 H           4.9840    0.0154    0.4931 H.spc      1 <1>        0.000
     22 H           1.6412    1.6718   -1.8281 H.spc      1 <1>        0.000
     23 H           3.4404    0.5400   -1.0476 H.spc      1 <1>        0.000
     24 H           1.8973   -0.8394    1.1630 H.spc      1 <1>        0.000
     25 H           3.4906   -2.4917    1.1778 H.spc      1 <1>        0.000
     26 H           3.8276   -3.8063   -1.3043 H.spc      1 <1>        0.000
     27 H           5.4587   -3.2286   -2.0593 H.spc      1 <1>        0.000
@<TRIPOS>BOND
     1    1    2 1  
     2   13   15 2  
     3    9   10 1  
     4    2    4 2  
     5   10   11 2  
     6    6    8 1  
     7    1    3 2  
     8    8    9 2  
     9   12   14 2  
    10    4    5 1  
    11    5    6 2  
    12   11   12 1  
    13   12   13 1  
    14   13    7 1  
    15    1   16 1  
    16    2   17 1  
    17    4   18 1  
    18    5   19 1  
    19    6   20 1  
    20    7   21 1  
    21    8   22 1  
    22    9   23 1  
    23   10   24 1  
    24   11   25 1  
    25   14   26 1  
    26   14   27 1  
# Name:          frag3-281-3/96164
# Creation time: Sat Jun  5 12:53:25 2010


@<TRIPOS>MOLECULE
frag3-281-3/96164
   27    26     1     1     1
SMALL
USER_CHARGES


@<TRIPOS>ATOM
      1 C4         -2.8900   -1.1940   -0.6923 C.2        1 <1>        0.000
      2 C6         -1.6895   -0.4934   -0.2397 C.2        1 <1>        0.000
      3 O3         -3.6675   -1.8180    0.0136 O.2        1 <1>        0.000
      4 C8         -0.7708    0.0827   -1.0266 C.2        1 <1>        0.000
      5 C11         0.3968    0.7741   -0.5825 C.2        1 <1>        0.000
      6 C12         1.4726    1.3077   -1.1725 C.2        1 <1>        0.000
      7 O6          3.5201   -2.5741   -2.4447 O.3        1 <1>        0.000
      8 C13         2.5766    1.9683   -0.5213 C.2        1 <1>        0.000
      9 C14         3.2248    1.5406    0.5819 C.2        1 <1>        0.000
     10 C15         3.0647    0.3460    1.3804 C.2        1 <1>        0.000
     11 C16         3.3209   -0.8799    0.8857 C.2        1 <1>        0.000
     12 C18         3.7773   -1.2882   -0.4185 C.2        1 <1>        0.000
     13 C19         2.9656   -2.1028   -1.3326 C.2        1 <1>        0.000
     14 C20         4.9321   -0.9054   -0.9943 C.2        1 <1>        0.000
     15 O7          1.7896   -2.3367   -1.0863 O.2        1 <1>        0.000
     16 H          -3.1120   -1.1561   -1.7588 H.spc      1 <1>        0.000
     17 H          -1.5269   -0.4343    0.8365 H.spc      1 <1>        0.000
     18 H          -0.9291    0.0177   -2.1031 H.spc      1 <1>        0.000
     19 H           0.4166    0.8971    0.5004 H.spc      1 <1>        0.000
     20 H           1.5194    1.2355   -2.2591 H.spc      1 <1>        0.000
     21 H           4.4397   -2.3011   -2.4830 H.spc      1 <1>        0.000
     22 H           2.9206    2.9035   -0.9630 H.spc      1 <1>        0.000
     23 H           4.0067    2.2141    0.9329 H.spc      1 <1>        0.000
     24 H           2.7269    0.4404    2.4124 H.spc      1 <1>        0.000
     25 H           3.1559   -1.6977    1.5872 H.spc      1 <1>        0.000
     26 H           5.6074   -0.2321   -0.4663 H.spc      1 <1>        0.000
     27 H           5.1920   -1.2687   -1.9886 H.spc      1 <1>        0.000
@<TRIPOS>BOND
     1    1    2 1  
     2   13   15 2  
     3    9   10 1  
     4    2    4 2  
     5   10   11 2  
     6    6    8 1  
     7    1    3 2  
     8    8    9 2  
     9   12   14 2  
    10    4    5 1  
    11    5    6 2  
    12   11   12 1  
    13   12   13 1  
    14   13    7 1  
    15    1   16 1  
    16    2   17 1  
    17    4   18 1  
    18    5   19 1  
    19    6   20 1  
    20    7   21 1  
    21    8   22 1  
    22    9   23 1  
    23   10   24 1  
    24   11   25 1  
    25   14   26 1  
    26   14   27 1  
# Name:          frag3-281-3/96164
# Creation time: Sat Jun  5 12:53:25 2010


@<TRIPOS>MOLECULE
frag3-281-3/96164
   27    26     1     1     1
SMALL
USER_CHARGES


@<TRIPOS>ATOM
      1 C4         -3.6875   -0.8420   -0.6104 C.2        1 <1>        0.000
      2 C6         -2.6040    0.0967   -0.8820 C.2        1 <1>        0.000
      3 O3         -3.6943   -1.8700    0.0426 O.2        1 <1>        0.000
      4 C8         -1.3577   -0.1085   -0.4445 C.2        1 <1>        0.000
      5 C11        -0.2282    0.7361   -0.6352 C.2        1 <1>        0.000
      6 C12         1.0432    0.6860   -0.2298 C.2        1 <1>        0.000
      7 O6          3.3549   -3.1664    0.0454 O.3        1 <1>        0.000
      8 C13         2.0915    1.6352   -0.4757 C.2        1 <1>        0.000
      9 C14         3.3455    1.6598   -0.0048 C.2        1 <1>        0.000
     10 C15         4.0629    0.7732    0.8667 C.2        1 <1>        0.000
     11 C16         4.4408   -0.4523    0.4704 C.2        1 <1>        0.000
     12 C18         4.2417   -1.1154   -0.7849 C.2        1 <1>        0.000
     13 C19         3.4457   -2.3293   -0.9943 C.2        1 <1>        0.000
     14 C20         4.7081   -0.7048   -1.9752 C.2        1 <1>        0.000
     15 O7          2.8606   -2.5714   -2.0379 O.2        1 <1>        0.000
     16 H          -4.6436   -0.5816   -1.0645 H.spc      1 <1>        0.000
     17 H          -2.8180    0.9951   -1.4609 H.spc      1 <1>        0.000
     18 H          -1.1876   -1.0245    0.1212 H.spc      1 <1>        0.000
     19 H          -0.4485    1.6133   -1.2435 H.spc      1 <1>        0.000
     20 H           1.3199   -0.1860    0.3628 H.spc      1 <1>        0.000
     21 H           3.8733   -2.8235    0.7771 H.spc      1 <1>        0.000
     22 H           1.8289    2.4560   -1.1431 H.spc      1 <1>        0.000
     23 H           3.9307    2.5131   -0.3478 H.spc      1 <1>        0.000
     24 H           4.3071    1.1036    1.8763 H.spc      1 <1>        0.000
     25 H           4.9822   -1.0323    1.2178 H.spc      1 <1>        0.000
     26 H           5.2967    0.2100   -2.0438 H.spc      1 <1>        0.000
     27 H           4.4981   -1.2863   -2.8729 H.spc      1 <1>        0.000
@<TRIPOS>BOND
     1    1    2 1  
     2   13   15 2  
     3    9   10 1  
     4    2    4 2  
     5   10   11 2  
     6    6    8 1  
     7    1    3 2  
     8    8    9 2  
     9   12   14 2  
    10    4    5 1  
    11    5    6 2  
    12   11   12 1  
    13   12   13 1  
    14   13    7 1  
    15    1   16 1  
    16    2   17 1  
    17    4   18 1  
    18    5   19 1  
    19    6   20 1  
    20    7   21 1  
    21    8   22 1  
    22    9   23 1  
    23   10   24 1  
    24   11   25 1  
    25   14   26 1  
    26   14   27 1  
# Name:          frag3-281-3/96164
# Creation time: Sat Jun  5 12:53:25 2010


@<TRIPOS>MOLECULE
frag3-281-3/96164
   27    26     1     1     1
SMALL
USER_CHARGES


@<TRIPOS>ATOM
      1 C4         -4.0497   -0.0884    0.7818 C.2        1 <1>        0.000
      2 C6         -2.8174   -0.1375   -0.0001 C.2        1 <1>        0.000
      3 O3         -4.8274   -1.0158    0.9510 O.2        1 <1>        0.000
      4 C8         -1.9185    0.8505   -0.0925 C.2        1 <1>        0.000
      5 C11        -0.7076    0.7917   -0.8475 C.2        1 <1>        0.000
      6 C12         0.4042    1.5390   -0.8651 C.2        1 <1>        0.000
      7 O6          6.7497   -1.7704   -0.1253 O.3        1 <1>        0.000
      8 C13         1.5643    1.3153   -1.6795 C.2        1 <1>        0.000
      9 C14         2.2348    0.1543   -1.7412 C.2        1 <1>        0.000
     10 C15         2.0998   -1.1346   -1.0927 C.2        1 <1>        0.000
     11 C16         3.1242   -1.9625   -0.8224 C.2        1 <1>        0.000
     12 C18         4.5315   -1.8090   -1.0412 C.2        1 <1>        0.000
     13 C19         5.4596   -1.5043    0.0509 C.2        1 <1>        0.000
     14 C20         5.1245   -1.7652   -2.2332 C.2        1 <1>        0.000
     15 O7          5.0514   -1.0364    1.1072 O.2        1 <1>        0.000
     16 H          -4.2982    0.8605    1.2572 H.spc      1 <1>        0.000
     17 H          -2.6125   -1.0537   -0.5540 H.spc      1 <1>        0.000
     18 H          -2.1272    1.7719    0.4511 H.spc      1 <1>        0.000
     19 H          -0.6828   -0.0342   -1.5583 H.spc      1 <1>        0.000
     20 H           0.4300    2.3996   -0.1966 H.spc      1 <1>        0.000
     21 H           6.8840   -2.1287   -1.0057 H.spc      1 <1>        0.000
     22 H           1.9252    2.1439   -2.2889 H.spc      1 <1>        0.000
     23 H           3.0721    0.1887   -2.4383 H.spc      1 <1>        0.000
     24 H           1.0987   -1.4550   -0.8041 H.spc      1 <1>        0.000
     25 H           2.8361   -2.9067   -0.3603 H.spc      1 <1>        0.000
     26 H           4.5284   -1.8492   -3.1419 H.spc      1 <1>        0.000
     27 H           6.2058   -1.6453   -2.2999 H.spc      1 <1>        0.000
@<TRIPOS>BOND
     1    1    2 1  
     2   13   15 2  
     3    9   10 1  
     4    2    4 2  
     5   10   11 2  
     6    6    8 1  
     7    1    3 2  
     8    8    9 2  
     9   12   14 2  
    10    4    5 1  
    11    5    6 2  
    12   11   12 1  
    13   12   13 1  
    14   13    7 1  
    15    1   16 1  
    16    2   17 1  
    17    4   18 1  
    18    5   19 1  
    19    6   20 1  
    20    7   21 1  
    21    8   22 1  
    22    9   23 1  
    23   10   24 1  
    24   11   25 1  
    25   14   26 1  
    26   14   27 1  
# Name:          frag3-281-3/96164
# Creation time: Sat Jun  5 12:53:25 2010


@<TRIPOS>MOLECULE
frag3-281-3/96164
   27    26     1     1     1
SMALL
USER_CHARGES


@<TRIPOS>ATOM
      1 C4         -4.3674    0.0254   -0.3856 C.2        1 <1>        0.000
      2 C6         -2.9174    0.1385   -0.1973 C.2        1 <1>        0.000
      3 O3         -4.9668   -0.9887   -0.7194 O.2        1 <1>        0.000
      4 C8         -2.2634    1.2476    0.1806 C.2        1 <1>        0.000
      5 C11        -0.8592    1.4149    0.3874 C.2        1 <1>        0.000
      6 C12         0.1323    0.7572   -0.2303 C.2        1 <1>        0.000
      7 O6          5.6086   -0.3127   -1.7677 O.3        1 <1>        0.000
      8 C13         1.5487    0.8429   -0.0685 C.2        1 <1>        0.000
      9 C14         2.4823    0.0487   -0.5983 C.2        1 <1>        0.000
     10 C15         2.4538   -1.0998   -1.4714 C.2        1 <1>        0.000
     11 C16         3.3854   -2.0623   -1.4969 C.2        1 <1>        0.000
     12 C18         4.5853   -2.1477   -0.7158 C.2        1 <1>        0.000
     13 C19         5.7305   -1.2183   -0.8034 C.2        1 <1>        0.000
     14 C20         4.7602   -2.9864    0.3126 C.2        1 <1>        0.000
     15 O7          6.7104   -1.2325   -0.0755 O.2        1 <1>        0.000
     16 H          -4.9631    0.9218   -0.2135 H.spc      1 <1>        0.000
     17 H          -2.3199   -0.7547   -0.3799 H.spc      1 <1>        0.000
     18 H          -2.8796    2.1305    0.3510 H.spc      1 <1>        0.000
     19 H          -0.5622    2.1578    1.1276 H.spc      1 <1>        0.000
     20 H          -0.1971    0.0380   -0.9802 H.spc      1 <1>        0.000
     21 H           4.7816   -0.4533   -2.2345 H.spc      1 <1>        0.000
     22 H           1.9111    1.6539    0.5632 H.spc      1 <1>        0.000
     23 H           3.4934    0.3316   -0.3053 H.spc      1 <1>        0.000
     24 H           1.6137   -1.1909   -2.1599 H.spc      1 <1>        0.000
     25 H           3.2102   -2.8798   -2.1962 H.spc      1 <1>        0.000
     26 H           3.9587   -3.6648    0.6050 H.spc      1 <1>        0.000
     27 H           5.7041   -2.9909    0.8577 H.spc      1 <1>        0.000
@<TRIPOS>BOND
     1    1    2 1  
     2   13   15 2  
     3    9   10 1  
     4    2    4 2  
     5   10   11 2  
     6    6    8 1  
     7    1    3 2  
     8    8    9 2  
     9   12   14 2  
    10    4    5 1  
    11    5    6 2  
    12   11   12 1  
    13   12   13 1  
    14   13    7 1  
    15    1   16 1  
    16    2   17 1  
    17    4   18 1  
    18    5   19 1  
    19    6   20 1  
    20    7   21 1  
    21    8   22 1  
    22    9   23 1  
    23   10   24 1  
    24   11   25 1  
    25   14   26 1  
    26   14   27 1  
# Name:          frag3-281-3/96164
# Creation time: Sat Jun  5 12:53:25 2010


@<TRIPOS>MOLECULE
frag3-281-3/96164
   27    26     1     1     1
SMALL
USER_CHARGES


@<TRIPOS>ATOM
      1 C4         -4.4065    0.2545    0.5665 C.2        1 <1>        0.000
      2 C6         -3.1358    0.2480   -0.1542 C.2        1 <1>        0.000
      3 O3         -5.5084    0.3433    0.0477 O.2        1 <1>        0.000
      4 C8         -1.9287    0.2902    0.4259 C.2        1 <1>        0.000
      5 C11        -0.6755    0.3106   -0.2750 C.2        1 <1>        0.000
      6 C12        -0.3190   -0.4336   -1.3408 C.2        1 <1>        0.000
      7 O6          6.8709   -1.8465   -1.3325 O.3        1 <1>        0.000
      8 C13         0.9240   -0.4033   -2.0467 C.2        1 <1>        0.000
      9 C14         2.1293   -0.4023   -1.4588 C.2        1 <1>        0.000
     10 C15         2.5604   -0.4521   -0.0727 C.2        1 <1>        0.000
     11 C16         3.8384   -0.5227    0.3252 C.2        1 <1>        0.000
     12 C18         5.0356   -0.6029   -0.4625 C.2        1 <1>        0.000
     13 C19         5.7521   -1.8632   -0.6067 C.2        1 <1>        0.000
     14 C20         5.5583    0.3960   -1.1767 C.2        1 <1>        0.000
     15 O7          5.3283   -2.8892   -0.0883 O.2        1 <1>        0.000
     16 H          -4.3680    0.1737    1.6528 H.spc      1 <1>        0.000
     17 H          -3.1723    0.2058   -1.2428 H.spc      1 <1>        0.000
     18 H          -1.8954    0.3106    1.5152 H.spc      1 <1>        0.000
     19 H           0.0741    1.0086    0.0980 H.spc      1 <1>        0.000
     20 H          -1.0642   -1.1399   -1.7067 H.spc      1 <1>        0.000
     21 H           7.0321   -0.9548   -1.6494 H.spc      1 <1>        0.000
     22 H           0.8896   -0.3794   -3.1359 H.spc      1 <1>        0.000
     23 H           2.9561   -0.3542   -2.1674 H.spc      1 <1>        0.000
     24 H           1.7903   -0.4305    0.6984 H.spc      1 <1>        0.000
     25 H           3.9908   -0.5186    1.4045 H.spc      1 <1>        0.000
     26 H           5.0687    1.3697   -1.1915 H.spc      1 <1>        0.000
     27 H           6.4748    0.2381   -1.7452 H.spc      1 <1>        0.000
@<TRIPOS>BOND
     1    1    2 1  
     2   13   15 2  
     3    9   10 1  
     4    2    4 2  
     5   10   11 2  
     6    6    8 1  
     7    1    3 2  
     8    8    9 2  
     9   12   14 2  
    10    4    5 1  
    11    5    6 2  
    12   11   12 1  
    13   12   13 1  
    14   13    7 1  
    15    1   16 1  
    16    2   17 1  
    17    4   18 1  
    18    5   19 1  
    19    6   20 1  
    20    7   21 1  
    21    8   22 1  
    22    9   23 1  
    23   10   24 1  
    24   11   25 1  
    25   14   26 1  
    26   14   27 1  
# Name:          frag3-281-3/96164
# Creation time: Sat Jun  5 12:53:25 2010


@<TRIPOS>MOLECULE
frag3-281-3/96164
   27    26     1     1     1
SMALL
USER_CHARGES


@<TRIPOS>ATOM
      1 C4         -4.7234    1.0951    0.2435 C.2        1 <1>        0.000
      2 C6         -3.5704    0.9343   -0.6333 C.2        1 <1>        0.000
      3 O3         -4.8723    0.8191    1.4221 O.2        1 <1>        0.000
      4 C8         -2.4125    0.4273   -0.2048 C.2        1 <1>        0.000
      5 C11        -1.2376    0.2146   -0.9702 C.2        1 <1>        0.000
      6 C12        -0.0753   -0.3739   -0.7094 C.2        1 <1>        0.000
      7 O6          7.0250   -0.2651   -0.9787 O.3        1 <1>        0.000
      8 C13         1.0323   -0.5473   -1.5885 C.2        1 <1>        0.000
      9 C14         2.1562   -1.2239   -1.3747 C.2        1 <1>        0.000
     10 C15         2.6702   -1.9957   -0.2842 C.2        1 <1>        0.000
     11 C16         3.9703   -2.2285   -0.0643 C.2        1 <1>        0.000
     12 C18         5.1193   -1.7506   -0.7804 C.2        1 <1>        0.000
     13 C19         5.8927   -0.5744   -0.3467 C.2        1 <1>        0.000
     14 C20         5.5426   -2.2127   -1.9663 C.2        1 <1>        0.000
     15 O7          5.5062    0.1084    0.5860 O.2        1 <1>        0.000
     16 H          -5.5988    1.5356   -0.2338 H.spc      1 <1>        0.000
     17 H          -3.6568    1.2390   -1.6763 H.spc      1 <1>        0.000
     18 H          -2.3647    0.1463    0.8473 H.spc      1 <1>        0.000
     19 H          -1.3013    0.6170   -1.9812 H.spc      1 <1>        0.000
     20 H           0.0453   -0.7718    0.2982 H.spc      1 <1>        0.000
     21 H           7.1813   -0.8997   -1.6819 H.spc      1 <1>        0.000
     22 H           0.9471   -0.0630   -2.5613 H.spc      1 <1>        0.000
     23 H           2.8415   -1.1815   -2.2212 H.spc      1 <1>        0.000
     24 H           1.9531   -2.4238    0.4162 H.spc      1 <1>        0.000
     25 H           4.1888   -2.8770    0.7842 H.spc      1 <1>        0.000
     26 H           4.9996   -3.0167   -2.4632 H.spc      1 <1>        0.000
     27 H           6.4295   -1.7843   -2.4331 H.spc      1 <1>        0.000
@<TRIPOS>BOND
     1    1    2 1  
     2   13   15 2  
     3    9   10 1  
     4    2    4 2  
     5   10   11 2  
     6    6    8 1  
     7    1    3 2  
     8    8    9 2  
     9   12   14 2  
    10    4    5 1  
    11    5    6 2  
    12   11   12 1  
    13   12   13 1  
    14   13    7 1  
    15    1   16 1  
    16    2   17 1  
    17    4   18 1  
    18    5   19 1  
    19    6   20 1  
    20    7   21 1  
    21    8   22 1  
    22    9   23 1  
    23   10   24 1  
    24   11   25 1  
    25   14   26 1  
    26   14   27 1  
# Name:          frag3-281-3/96164
# Creation time: Sat Jun  5 12:53:25 2010


@<TRIPOS>MOLECULE
frag3-281-3/96164
   27    26     1     1     1
SMALL
USER_CHARGES


@<TRIPOS>ATOM
      1 C4         -4.2447    0.0629   -0.5940 C.2        1 <1>        0.000
      2 C6         -2.8394   -0.1065   -0.2258 C.2        1 <1>        0.000
      3 O3         -5.1334   -0.7649   -0.4619 O.2        1 <1>        0.000
      4 C8         -1.8948    0.8400   -0.3252 C.2        1 <1>        0.000
      5 C11        -0.5286    0.6952    0.0498 C.2        1 <1>        0.000
      6 C12         0.5383    1.5059    0.0465 C.2        1 <1>        0.000
      7 O6          6.5651   -1.1041   -0.5571 O.3        1 <1>        0.000
      8 C13         1.8727    1.1659    0.4373 C.2        1 <1>        0.000
      9 C14         2.5297    0.0610    0.0471 C.2        1 <1>        0.000
     10 C15         2.2057   -1.0680   -0.8045 C.2        1 <1>        0.000
     11 C16         3.0372   -2.0620   -1.1683 C.2        1 <1>        0.000
     12 C18         4.4243   -2.1824   -0.8021 C.2        1 <1>        0.000
     13 C19         5.4015   -1.1522   -1.1963 C.2        1 <1>        0.000
     14 C20         4.9611   -3.1259   -0.0270 C.2        1 <1>        0.000
     15 O7          5.1287   -0.3381   -2.0683 O.2        1 <1>        0.000
     16 H          -4.5268    1.0217   -1.0289 H.spc      1 <1>        0.000
     17 H          -2.5358   -1.0796    0.1601 H.spc      1 <1>        0.000
     18 H          -2.1996    1.8056   -0.7287 H.spc      1 <1>        0.000
     19 H          -0.2984   -0.3020    0.4249 H.spc      1 <1>        0.000
     20 H           0.3730    2.5299   -0.2883 H.spc      1 <1>        0.000
     21 H           6.6045   -1.8145    0.0874 H.spc      1 <1>        0.000
     22 H           2.3948    1.8550    1.1011 H.spc      1 <1>        0.000
     23 H           3.5344   -0.0014    0.4653 H.spc      1 <1>        0.000
     24 H           1.1866   -1.1161   -1.1882 H.spc      1 <1>        0.000
     25 H           2.6219   -2.8485   -1.7984 H.spc      1 <1>        0.000
     26 H           4.3302   -3.9072    0.3968 H.spc      1 <1>        0.000
     27 H           6.0307   -3.1156    0.1826 H.spc      1 <1>        0.000
@<TRIPOS>BOND
     1    1    2 1  
     2   13   15 2  
     3    9   10 1  
     4    2    4 2  
     5   10   11 2  
     6    6    8 1  
     7    1    3 2  
     8    8    9 2  
     9   12   14 2  
    10    4    5 1  
    11    5    6 2  
    12   11   12 1  
    13   12   13 1  
    14   13    7 1  
    15    1   16 1  
    16    2   17 1  
    17    4   18 1  
    18    5   19 1  
    19    6   20 1  
    20    7   21 1  
    21    8   22 1  
    22    9   23 1  
    23   10   24 1  
    24   11   25 1  
    25   14   26 1  
    26   14   27 1  
# Name:          frag3-281-3/96164
# Creation time: Sat Jun  5 12:53:25 2010


@<TRIPOS>MOLECULE
frag3-281-3/96164
   27    26     1     1     1
SMALL
USER_CHARGES


@<TRIPOS>ATOM
      1 C4         -4.2679   -0.0023   -0.1901 C.2        1 <1>        0.000
      2 C6         -2.8368    0.2840   -0.3496 C.2        1 <1>        0.000
      3 O3         -5.1905    0.5312   -0.7906 O.2        1 <1>        0.000
      4 C8         -1.8763   -0.3130    0.3761 C.2        1 <1>        0.000
      5 C11        -0.4661   -0.1647    0.3099 C.2        1 <1>        0.000
      6 C12         0.2526    0.9145   -0.0076 C.2        1 <1>        0.000
      7 O6          5.7242   -0.4278   -1.8943 O.3        1 <1>        0.000
      8 C13         1.6466    1.1546   -0.1453 C.2        1 <1>        0.000
      9 C14         2.5080    0.3445   -0.7704 C.2        1 <1>        0.000
     10 C15         2.3509   -0.9021   -1.4510 C.2        1 <1>        0.000
     11 C16         3.2049   -1.9279   -1.4580 C.2        1 <1>        0.000
     12 C18         4.4585   -2.0678   -0.7837 C.2        1 <1>        0.000
     13 C19         5.5336   -1.0595   -0.7277 C.2        1 <1>        0.000
     14 C20         4.7966   -3.1431   -0.0401 C.2        1 <1>        0.000
     15 O7          6.1850   -0.7939    0.2728 O.2        1 <1>        0.000
     16 H          -4.5356   -0.7684    0.5376 H.spc      1 <1>        0.000
     17 H          -2.5376    1.0197   -1.0961 H.spc      1 <1>        0.000
     18 H          -2.2335   -1.0165    1.1282 H.spc      1 <1>        0.000
     19 H           0.1108   -1.0572    0.5523 H.spc      1 <1>        0.000
     20 H          -0.3576    1.7965   -0.2020 H.spc      1 <1>        0.000
     21 H           5.1179   -0.7796   -2.5502 H.spc      1 <1>        0.000
     22 H           2.0447    2.0700    0.2925 H.spc      1 <1>        0.000
     23 H           3.5355    0.7080   -0.7582 H.spc      1 <1>        0.000
     24 H           1.4342   -1.0291   -2.0269 H.spc      1 <1>        0.000
     25 H           2.9036   -2.7818   -2.0648 H.spc      1 <1>        0.000
     26 H           4.0954   -3.9700    0.0728 H.spc      1 <1>        0.000
     27 H           5.7707   -3.1842    0.4473 H.spc      1 <1>        0.000
@<TRIPOS>BOND
     1    1    2 1  
     2   13   15 2  
     3    9   10 1  
     4    2    4 2  
     5   10   11 2  
     6    6    8 1  
     7    1    3 2  
     8    8    9 2  
     9   12   14 2  
    10    4    5 1  
    11    5    6 2  
    12   11   12 1  
    13   12   13 1  
    14   13    7 1  
    15    1   16 1  
    16    2   17 1  
    17    4   18 1  
    18    5   19 1  
    19    6   20 1  
    20    7   21 1  
    21    8   22 1  
    22    9   23 1  
    23   10   24 1  
    24   11   25 1  
    25   14   26 1  
    26   14   27 1  
# Name:          frag3-281-3/96164
# Creation time: Sat Jun  5 12:53:25 2010


@<TRIPOS>MOLECULE
frag3-281-3/96164
   27    26     1     1     1
SMALL
USER_CHARGES


@<TRIPOS>ATOM
      1 C4         -4.2716   -0.4102    0.2420 C.2        1 <1>        0.000
      2 C6         -2.9646    0.0188   -0.2384 C.2        1 <1>        0.000
      3 O3         -5.2843   -0.4737   -0.4399 O.2        1 <1>        0.000
      4 C8         -1.8505    0.1285    0.4941 C.2        1 <1>        0.000
      5 C11        -0.5811    0.5712    0.0232 C.2        1 <1>        0.000
      6 C12        -0.0378    0.4050   -1.1941 C.2        1 <1>        0.000
      7 O6          6.1019   -2.4407   -1.8999 O.3        1 <1>        0.000
      8 C13         1.2277    0.8690   -1.6564 C.2        1 <1>        0.000
      9 C14         2.3822    0.7028   -1.0012 C.2        1 <1>        0.000
     10 C15         2.7302    0.0666    0.2454 C.2        1 <1>        0.000
     11 C16         3.8662   -0.6123    0.4437 C.2        1 <1>        0.000
     12 C18         4.9440   -0.9068   -0.4474 C.2        1 <1>        0.000
     13 C19         5.2831   -2.2724   -0.8667 C.2        1 <1>        0.000
     14 C20         5.6888    0.0195   -1.0582 C.2        1 <1>        0.000
     15 O7          4.7890   -3.2384   -0.2959 O.2        1 <1>        0.000
     16 H          -4.3527   -0.6967    1.2905 H.spc      1 <1>        0.000
     17 H          -2.8872    0.2747   -1.2951 H.spc      1 <1>        0.000
     18 H          -1.9205   -0.1458    1.5467 H.spc      1 <1>        0.000
     19 H           0.0287    1.1156    0.7443 H.spc      1 <1>        0.000
     20 H          -0.6369   -0.1516   -1.9147 H.spc      1 <1>        0.000
     21 H           6.3916   -1.5833   -2.2202 H.spc      1 <1>        0.000
     22 H           1.2571    1.3959   -2.6101 H.spc      1 <1>        0.000
     23 H           3.2378    1.1390   -1.5168 H.spc      1 <1>        0.000
     24 H           2.0268    0.1432    1.0745 H.spc      1 <1>        0.000
     25 H           3.9901   -1.0061    1.4525 H.spc      1 <1>        0.000
     26 H           5.4894    1.0777   -0.8889 H.spc      1 <1>        0.000
     27 H           6.4957   -0.2831   -1.7257 H.spc      1 <1>        0.000
@<TRIPOS>BOND
     1    1    2 1  
     2   13   15 2  
     3    9   10 1  
     4    2    4 2  
     5   10   11 2  
     6    6    8 1  
     7    1    3 2  
     8    8    9 2  
     9   12   14 2  
    10    4    5 1  
    11    5    6 2  
    12   11   12 1  
    13   12   13 1  
    14   13    7 1  
    15    1   16 1  
    16    2   17 1  
    17    4   18 1  
    18    5   19 1  
    19    6   20 1  
    20    7   21 1  
    21    8   22 1  
    22    9   23 1  
    23   10   24 1  
    24   11   25 1  
    25   14   26 1  
    26   14   27 1  
# Name:          frag3-281-3/96164
# Creation time: Sat Jun  5 12:53:25 2010


@<TRIPOS>MOLECULE
frag3-281-3/96164
   27    26     1     1     1
SMALL
USER_CHARGES


@<TRIPOS>ATOM
      1 C4         -4.2508   -0.0325    0.6283 C.2        1 <1>        0.000
      2 C6         -2.9300   -0.1221    0.0075 C.2        1 <1>        0.000
      3 O3         -4.9167    0.9565    0.8771 O.2        1 <1>        0.000
      4 C8         -2.3044    0.9373   -0.5252 C.2        1 <1>        0.000
      5 C11        -1.0374    1.0092   -1.1759 C.2        1 <1>        0.000
      6 C12         0.0177    0.2120   -0.9751 C.2        1 <1>        0.000
      7 O6          4.9358   -0.1775    0.8006 O.3        1 <1>        0.000
      8 C13         1.2996    0.1836   -1.5911 C.2        1 <1>        0.000
      9 C14         2.2703   -0.7064   -1.4161 C.2        1 <1>        0.000
     10 C15         2.4520   -1.8942   -0.6412 C.2        1 <1>        0.000
     11 C16         3.6409   -2.4466   -0.3645 C.2        1 <1>        0.000
     12 C18         4.9452   -1.9820   -0.7214 C.2        1 <1>        0.000
     13 C19         5.5837   -0.7463   -0.2188 C.2        1 <1>        0.000
     14 C20         5.7133   -2.5201   -1.6779 C.2        1 <1>        0.000
     15 O7          6.6041   -0.2441   -0.6561 O.2        1 <1>        0.000
     16 H          -4.7028   -0.9842    0.9076 H.spc      1 <1>        0.000
     17 H          -2.4328   -1.0916   -0.0235 H.spc      1 <1>        0.000
     18 H          -2.8430    1.8819   -0.4499 H.spc      1 <1>        0.000
     19 H          -0.9157    1.7992   -1.9170 H.spc      1 <1>        0.000
     20 H          -0.1303   -0.5469   -0.2068 H.spc      1 <1>        0.000
     21 H           4.1596   -0.6996    1.0162 H.spc      1 <1>        0.000
     22 H           1.5113    0.9907   -2.2924 H.spc      1 <1>        0.000
     23 H           3.1507   -0.4718   -2.0145 H.spc      1 <1>        0.000
     24 H           1.5613   -2.3844   -0.2482 H.spc      1 <1>        0.000
     25 H           3.6097   -3.3731    0.2088 H.spc      1 <1>        0.000
     26 H           5.3534   -3.3761   -2.2486 H.spc      1 <1>        0.000
     27 H           6.6982   -2.1019   -1.8855 H.spc      1 <1>        0.000
@<TRIPOS>BOND
     1    1    2 1  
     2   13   15 2  
     3    9   10 1  
     4    2    4 2  
     5   10   11 2  
     6    6    8 1  
     7    1    3 2  
     8    8    9 2  
     9   12   14 2  
    10    4    5 1  
    11    5    6 2  
    12   11   12 1  
    13   12   13 1  
    14   13    7 1  
    15    1   16 1  
    16    2   17 1  
    17    4   18 1  
    18    5   19 1  
    19    6   20 1  
    20    7   21 1  
    21    8   22 1  
    22    9   23 1  
    23   10   24 1  
    24   11   25 1  
    25   14   26 1  
    26   14   27 1  
# Name:          frag3-281-3/96164
# Creation time: Sat Jun  5 12:53:25 2010


@<TRIPOS>MOLECULE
frag3-281-3/96164
   27    26     1     1     1
SMALL
USER_CHARGES


@<TRIPOS>ATOM
      1 C4         -3.7786   -0.8842   -0.1296 C.2        1 <1>        0.000
      2 C6         -2.4441   -0.3792   -0.4543 C.2        1 <1>        0.000
      3 O3         -4.0641   -2.0554    0.0696 O.2        1 <1>        0.000
      4 C8         -2.1230    0.9040   -0.6727 C.2        1 <1>        0.000
      5 C11        -0.8229    1.4178   -0.9990 C.2        1 <1>        0.000
      6 C12         0.3452    1.1391   -0.4010 C.2        1 <1>        0.000
      7 O6          4.7716   -2.7559   -2.3473 O.3        1 <1>        0.000
      8 C13         1.6600    1.6043   -0.7272 C.2        1 <1>        0.000
      9 C14         2.8260    1.2598   -0.1722 C.2        1 <1>        0.000
     10 C15         3.2228    0.3549    0.8784 C.2        1 <1>        0.000
     11 C16         4.0508   -0.6857    0.6635 C.2        1 <1>        0.000
     12 C18         4.6852   -1.1754   -0.5341 C.2        1 <1>        0.000
     13 C19         4.3868   -2.4998   -1.0959 C.2        1 <1>        0.000
     14 C20         5.5457   -0.4811   -1.2744 C.2        1 <1>        0.000
     15 O7          3.7619   -3.3366   -0.4536 O.2        1 <1>        0.000
     16 H          -4.5854   -0.1546   -0.0596 H.spc      1 <1>        0.000
     17 H          -1.6397   -1.1113   -0.5249 H.spc      1 <1>        0.000
     18 H          -2.9313    1.6311   -0.5946 H.spc      1 <1>        0.000
     19 H          -0.7796    2.1185   -1.8328 H.spc      1 <1>        0.000
     20 H           0.2853    0.4641    0.4527 H.spc      1 <1>        0.000
     21 H           5.2454   -1.9976   -2.6967 H.spc      1 <1>        0.000
     22 H           1.7171    2.3351   -1.5339 H.spc      1 <1>        0.000
     23 H           3.6725    1.7837   -0.6161 H.spc      1 <1>        0.000
     24 H           2.8380    0.5193    1.8849 H.spc      1 <1>        0.000
     25 H           4.2833   -1.2625    1.5587 H.spc      1 <1>        0.000
     26 H           5.8157    0.5351   -0.9871 H.spc      1 <1>        0.000
     27 H           5.9806   -0.9286   -2.1681 H.spc      1 <1>        0.000
@<TRIPOS>BOND
     1    1    2 1  
     2   13   15 2  
     3    9   10 1  
     4    2    4 2  
     5   10   11 2  
     6    6    8 1  
     7    1    3 2  
     8    8    9 2  
     9   12   14 2  
    10    4    5 1  
    11    5    6 2  
    12   11   12 1  
    13   12   13 1  
    14   13    7 1  
    15    1   16 1  
    16    2   17 1  
    17    4   18 1  
    18    5   19 1  
    19    6   20 1  
    20    7   21 1  
    21    8   22 1  
    22    9   23 1  
    23   10   24 1  
    24   11   25 1  
    25   14   26 1  
    26   14   27 1  
# Name:          frag3-281-3/96164
# Creation time: Sat Jun  5 12:53:25 2010


@<TRIPOS>MOLECULE
frag3-281-3/96164
   27    26     1     1     1
SMALL
USER_CHARGES


@<TRIPOS>ATOM
      1 C4         -3.0437   -0.9411   -0.6705 C.2        1 <1>        0.000
      2 C6         -1.6635   -0.4579   -0.6151 C.2        1 <1>        0.000
      3 O3         -3.5072   -1.7046   -1.5063 O.2        1 <1>        0.000
      4 C8         -1.1938    0.4771    0.2180 C.2        1 <1>        0.000
      5 C11         0.1387    0.9695    0.3249 C.2        1 <1>        0.000
      6 C12         1.0581    1.1738   -0.6307 C.2        1 <1>        0.000
      7 O6          5.2429   -1.1339   -0.8992 O.3        1 <1>        0.000
      8 C13         2.4086    1.6260   -0.5087 C.2        1 <1>        0.000
      9 C14         3.2996    1.0912    0.3337 C.2        1 <1>        0.000
     10 C15         3.1378   -0.0112    1.2440 C.2        1 <1>        0.000
     11 C16         2.9840   -1.2878    0.8460 C.2        1 <1>        0.000
     12 C18         3.0093   -1.7920   -0.5011 C.2        1 <1>        0.000
     13 C19         4.0961   -1.5136   -1.4709 C.2        1 <1>        0.000
     14 C20         2.0434   -2.4838   -1.1261 C.2        1 <1>        0.000
     15 O7          4.0131   -1.5851   -2.6878 O.2        1 <1>        0.000
     16 H          -3.7223   -0.5875    0.1057 H.spc      1 <1>        0.000
     17 H          -0.9547   -0.8996   -1.3156 H.spc      1 <1>        0.000
     18 H          -1.9212    0.9172    0.9001 H.spc      1 <1>        0.000
     19 H           0.4601    1.2180    1.3364 H.spc      1 <1>        0.000
     20 H           0.7271    0.9645   -1.6479 H.spc      1 <1>        0.000
     21 H           5.1378   -1.1310    0.0550 H.spc      1 <1>        0.000
     22 H           2.7312    2.4549   -1.1388 H.spc      1 <1>        0.000
     23 H           4.2858    1.5554    0.3299 H.spc      1 <1>        0.000
     24 H           3.1399    0.1987    2.3136 H.spc      1 <1>        0.000
     25 H           2.8218   -2.0232    1.6340 H.spc      1 <1>        0.000
     26 H           1.1158   -2.7181   -0.6038 H.spc      1 <1>        0.000
     27 H           2.1867   -2.8112   -2.1559 H.spc      1 <1>        0.000
@<TRIPOS>BOND
     1    1    2 1  
     2   13   15 2  
     3    9   10 1  
     4    2    4 2  
     5   10   11 2  
     6    6    8 1  
     7    1    3 2  
     8    8    9 2  
     9   12   14 2  
    10    4    5 1  
    11    5    6 2  
    12   11   12 1  
    13   12   13 1  
    14   13    7 1  
    15    1   16 1  
    16    2   17 1  
    17    4   18 1  
    18    5   19 1  
    19    6   20 1  
    20    7   21 1  
    21    8   22 1  
    22    9   23 1  
    23   10   24 1  
    24   11   25 1  
    25   14   26 1  
    26   14   27 1  
# Name:          frag3-281-3/96164
# Creation time: Sat Jun  5 12:53:25 2010


@<TRIPOS>MOLECULE
frag3-281-3/96164
   27    26     1     1     1
SMALL
USER_CHARGES


@<TRIPOS>ATOM
      1 C4         -2.9370   -1.2987   -0.4156 C.2        1 <1>        0.000
      2 C6         -1.7690   -0.4310   -0.4953 C.2        1 <1>        0.000
      3 O3         -3.9195   -1.2429   -1.1371 O.2        1 <1>        0.000
      4 C8         -0.7267   -0.3832    0.3402 C.2        1 <1>        0.000
      5 C11         0.3861    0.4992    0.2478 C.2        1 <1>        0.000
      6 C12         1.0748    0.9218   -0.8168 C.2        1 <1>        0.000
      7 O6          3.0670   -2.8428   -2.1730 O.3        1 <1>        0.000
      8 C13         2.1658    1.8316   -0.8763 C.2        1 <1>        0.000
      9 C14         3.2653    1.7704   -0.1165 C.2        1 <1>        0.000
     10 C15         3.6782    0.8299    0.8862 C.2        1 <1>        0.000
     11 C16         3.9707   -0.4437    0.5771 C.2        1 <1>        0.000
     12 C18         3.9509   -1.1372   -0.6986 C.2        1 <1>        0.000
     13 C19         3.0080   -2.2382   -0.9871 C.2        1 <1>        0.000
     14 C20         4.6451   -0.8221   -1.8036 C.2        1 <1>        0.000
     15 O7          2.1636   -2.5863   -0.1809 O.2        1 <1>        0.000
     16 H          -2.9326   -2.0666    0.3580 H.spc      1 <1>        0.000
     17 H          -1.7421    0.2616   -1.3365 H.spc      1 <1>        0.000
     18 H          -0.7293   -1.0876    1.1720 H.spc      1 <1>        0.000
     19 H           0.7338    0.8954    1.2019 H.spc      1 <1>        0.000
     20 H           0.7550    0.5111   -1.7745 H.spc      1 <1>        0.000
     21 H           3.7786   -2.4597   -2.6912 H.spc      1 <1>        0.000
     22 H           2.1012    2.6447   -1.5994 H.spc      1 <1>        0.000
     23 H           3.9746    2.5797   -0.2900 H.spc      1 <1>        0.000
     24 H           3.7561    1.1573    1.9230 H.spc      1 <1>        0.000
     25 H           4.2732   -1.0591    1.4244 H.spc      1 <1>        0.000
     26 H           5.3130    0.0393   -1.8005 H.spc      1 <1>        0.000
     27 H           4.5409   -1.4277   -2.7039 H.spc      1 <1>        0.000
@<TRIPOS>BOND
     1    1    2 1  
     2   13   15 2  
     3    9   10 1  
     4    2    4 2  
     5   10   11 2  
     6    6    8 1  
     7    1    3 2  
     8    8    9 2  
     9   12   14 2  
    10    4    5 1  
    11    5    6 2  
    12   11   12 1  
    13   12   13 1  
    14   13    7 1  
    15    1   16 1  
    16    2   17 1  
    17    4   18 1  
    18    5   19 1  
    19    6   20 1  
    20    7   21 1  
    21    8   22 1  
    22    9   23 1  
    23   10   24 1  
    24   11   25 1  
    25   14   26 1  
    26   14   27 1  
# Name:          frag3-281-3/96164
# Creation time: Sat Jun  5 12:53:25 2010


@<TRIPOS>MOLECULE
frag3-281-3/96164
   27    26     1     1     1
SMALL
USER_CHARGES


@<TRIPOS>ATOM
      1 C4         -3.5365   -1.2097    0.4340 C.2        1 <1>        0.000
      2 C6         -2.1112   -0.9398    0.2822 C.2        1 <1>        0.000
      3 O3         -4.4882   -0.4674    0.2688 O.2        1 <1>        0.000
      4 C8         -1.6496    0.2490   -0.1207 C.2        1 <1>        0.000
      5 C11        -0.2959    0.6413   -0.3139 C.2        1 <1>        0.000
      6 C12         0.2841    1.7217   -0.8441 C.2        1 <1>        0.000
      7 O6          3.7608   -3.1386    0.3021 O.3        1 <1>        0.000
      8 C13         1.6891    1.9480   -1.0007 C.2        1 <1>        0.000
      9 C14         2.5531    1.0764   -1.5327 C.2        1 <1>        0.000
     10 C15         2.4256   -0.2432   -2.0945 C.2        1 <1>        0.000
     11 C16         3.2751   -1.2536   -1.8756 C.2        1 <1>        0.000
     12 C18         4.4565   -1.3273   -1.0665 C.2        1 <1>        0.000
     13 C19         4.6283   -2.1381    0.1467 C.2        1 <1>        0.000
     14 C20         5.5489   -0.5622   -1.2304 C.2        1 <1>        0.000
     15 O7          5.4833   -1.9298    0.9955 O.2        1 <1>        0.000
     16 H          -3.7870   -2.2253    0.7404 H.spc      1 <1>        0.000
     17 H          -1.3982   -1.7337    0.5046 H.spc      1 <1>        0.000
     18 H          -2.4024    1.0101   -0.3261 H.spc      1 <1>        0.000
     19 H           0.4204   -0.0965    0.0475 H.spc      1 <1>        0.000
     20 H          -0.3805    2.5119   -1.1933 H.spc      1 <1>        0.000
     21 H           3.1631   -3.1619   -0.4488 H.spc      1 <1>        0.000
     22 H           2.0854    2.9046   -0.6600 H.spc      1 <1>        0.000
     23 H           3.5784    1.4461   -1.5432 H.spc      1 <1>        0.000
     24 H           1.5733   -0.4333   -2.7469 H.spc      1 <1>        0.000
     25 H           3.0272   -2.1760   -2.4008 H.spc      1 <1>        0.000
     26 H           5.5787    0.1818   -2.0264 H.spc      1 <1>        0.000
     27 H           6.4052   -0.6856   -0.5674 H.spc      1 <1>        0.000
@<TRIPOS>BOND
     1    1    2 1  
     2   13   15 2  
     3    9   10 1  
     4    2    4 2  
     5   10   11 2  
     6    6    8 1  
     7    1    3 2  
     8    8    9 2  
     9   12   14 2  
    10    4    5 1  
    11    5    6 2  
    12   11   12 1  
    13   12   13 1  
    14   13    7 1  
    15    1   16 1  
    16    2   17 1  
    17    4   18 1  
    18    5   19 1  
    19    6   20 1  
    20    7   21 1  
    21    8   22 1  
    22    9   23 1  
    23   10   24 1  
    24   11   25 1  
    25   14   26 1  
    26   14   27 1  
# Name:          frag3-281-3/96164
# Creation time: Sat Jun  5 12:53:25 2010


@<TRIPOS>MOLECULE
frag3-281-3/96164
   27    26     1     1     1
SMALL
USER_CHARGES


@<TRIPOS>ATOM
      1 C4         -3.8308   -0.0855    0.7704 C.2        1 <1>        0.000
      2 C6         -2.4883    0.1129    0.2385 C.2        1 <1>        0.000
      3 O3         -4.1676    0.0876    1.9357 O.2        1 <1>        0.000
      4 C8         -2.0944   -0.1061   -1.0230 C.2        1 <1>        0.000
      5 C11        -0.7825    0.0837   -1.5346 C.2        1 <1>        0.000
      6 C12         0.1029    1.0512   -1.2777 C.2        1 <1>        0.000
      7 O6          4.4057   -1.5459    1.4378 O.3        1 <1>        0.000
      8 C13         1.4340    1.1987   -1.7655 C.2        1 <1>        0.000
      9 C14         2.2974    0.1835   -1.8474 C.2        1 <1>        0.000
     10 C15         2.2289   -1.2221   -1.5480 C.2        1 <1>        0.000
     11 C16         3.2455   -1.9892   -1.1592 C.2        1 <1>        0.000
     12 C18         4.6075   -1.6315   -0.9368 C.2        1 <1>        0.000
     13 C19         5.2110   -1.3769    0.3906 C.2        1 <1>        0.000
     14 C20         5.4860   -1.3135   -1.8940 C.2        1 <1>        0.000
     15 O7          6.3681   -1.0203    0.5635 O.2        1 <1>        0.000
     16 H          -4.6002   -0.4158    0.0725 H.spc      1 <1>        0.000
     17 H          -1.7315    0.4745    0.9347 H.spc      1 <1>        0.000
     18 H          -2.8507   -0.4631   -1.7220 H.spc      1 <1>        0.000
     19 H          -0.4479   -0.6738   -2.2433 H.spc      1 <1>        0.000
     20 H          -0.2400    1.8351   -0.6024 H.spc      1 <1>        0.000
     21 H           3.5394   -1.8248    1.1322 H.spc      1 <1>        0.000
     22 H           1.7627    2.1870   -2.0869 H.spc      1 <1>        0.000
     23 H           3.2731    0.4879   -2.2261 H.spc      1 <1>        0.000
     24 H           1.2559   -1.7030   -1.6486 H.spc      1 <1>        0.000
     25 H           3.0022   -3.0376   -0.9868 H.spc      1 <1>        0.000
     26 H           5.1775   -1.3156   -2.9394 H.spc      1 <1>        0.000
     27 H           6.5104   -1.0522   -1.6286 H.spc      1 <1>        0.000
@<TRIPOS>BOND
     1    1    2 1  
     2   13   15 2  
     3    9   10 1  
     4    2    4 2  
     5   10   11 2  
     6    6    8 1  
     7    1    3 2  
     8    8    9 2  
     9   12   14 2  
    10    4    5 1  
    11    5    6 2  
    12   11   12 1  
    13   12   13 1  
    14   13    7 1  
    15    1   16 1  
    16    2   17 1  
    17    4   18 1  
    18    5   19 1  
    19    6   20 1  
    20    7   21 1  
    21    8   22 1  
    22    9   23 1  
    23   10   24 1  
    24   11   25 1  
    25   14   26 1  
    26   14   27 1  
# Name:          frag3-281-3/96164
# Creation time: Sat Jun  5 12:53:25 2010


@<TRIPOS>MOLECULE
frag3-281-3/96164
   27    26     1     1     1
SMALL
USER_CHARGES


@<TRIPOS>ATOM
      1 C4         -3.5542   -0.5312    0.4502 C.2        1 <1>        0.000
      2 C6         -2.1140   -0.3842    0.2265 C.2        1 <1>        0.000
      3 O3         -4.1132   -1.4956    0.9506 O.2        1 <1>        0.000
      4 C8         -1.5161    0.6717   -0.3424 C.2        1 <1>        0.000
      5 C11        -0.1163    0.8340   -0.5597 C.2        1 <1>        0.000
      6 C12         0.6523    1.7930   -1.0927 C.2        1 <1>        0.000
      7 O6          3.0901   -1.3052    0.9278 O.3        1 <1>        0.000
      8 C13         2.0734    1.7731   -1.2734 C.2        1 <1>        0.000
      9 C14         2.7925    0.7396   -1.7417 C.2        1 <1>        0.000
     10 C15         2.4427   -0.5748   -2.2196 C.2        1 <1>        0.000
     11 C16         3.1116   -1.6968   -1.9282 C.2        1 <1>        0.000
     12 C18         4.2549   -1.8506   -1.0682 C.2        1 <1>        0.000
     13 C19         4.2650   -1.6574    0.3959 C.2        1 <1>        0.000
     14 C20         5.5162   -2.0698   -1.4847 C.2        1 <1>        0.000
     15 O7          5.2385   -1.8189    1.1100 O.2        1 <1>        0.000
     16 H          -4.1881    0.2996    0.1405 H.spc      1 <1>        0.000
     17 H          -1.4734   -1.2043    0.5507 H.spc      1 <1>        0.000
     18 H          -2.1627    1.4854   -0.6709 H.spc      1 <1>        0.000
     19 H           0.4631   -0.0209   -0.2111 H.spc      1 <1>        0.000
     20 H           0.1366    2.6929   -1.4278 H.spc      1 <1>        0.000
     21 H           2.4364   -1.2214    0.2298 H.spc      1 <1>        0.000
     22 H           2.6201    2.6777   -1.0070 H.spc      1 <1>        0.000
     23 H           3.8644    0.9358   -1.7653 H.spc      1 <1>        0.000
     24 H           1.5692   -0.6611   -2.8658 H.spc      1 <1>        0.000
     25 H           2.7445   -2.6076   -2.4013 H.spc      1 <1>        0.000
     26 H           5.7332   -2.1436   -2.5503 H.spc      1 <1>        0.000
     27 H           6.3204   -2.1735   -0.7563 H.spc      1 <1>        0.000
@<TRIPOS>BOND
     1    1    2 1  
     2   13   15 2  
     3    9   10 1  
     4    2    4 2  
     5   10   11 2  
     6    6    8 1  
     7    1    3 2  
     8    8    9 2  
     9   12   14 2  
    10    4    5 1  
    11    5    6 2  
    12   11   12 1  
    13   12   13 1  
    14   13    7 1  
    15    1   16 1  
    16    2   17 1  
    17    4   18 1  
    18    5   19 1  
    19    6   20 1  
    20    7   21 1  
    21    8   22 1  
    22    9   23 1  
    23   10   24 1  
    24   11   25 1  
    25   14   26 1  
    26   14   27 1  
# Name:          frag3-281-3/96164
# Creation time: Sat Jun  5 12:53:25 2010


@<TRIPOS>MOLECULE
frag3-281-3/96164
   27    26     1     1     1
SMALL
USER_CHARGES


@<TRIPOS>ATOM
      1 C4         -3.2954   -1.0711   -0.3904 C.2        1 <1>        0.000
      2 C6         -1.8865   -0.7031   -0.5684 C.2        1 <1>        0.000
      3 O3         -3.7866   -2.1663   -0.6047 O.2        1 <1>        0.000
      4 C8         -1.3663    0.5032   -0.3184 C.2        1 <1>        0.000
      5 C11         0.0199    0.8591   -0.4754 C.2        1 <1>        0.000
      6 C12         0.6971    2.0061   -0.2929 C.2        1 <1>        0.000
      7 O6          4.2482   -2.8006   -2.4204 O.3        1 <1>        0.000
      8 C13         2.1154    2.2163   -0.4561 C.2        1 <1>        0.000
      9 C14         3.0828    1.4798    0.1157 C.2        1 <1>        0.000
     10 C15         3.0705    0.3458    1.0204 C.2        1 <1>        0.000
     11 C16         3.5717   -0.8570    0.7002 C.2        1 <1>        0.000
     12 C18         4.2009   -1.3493   -0.4944 C.2        1 <1>        0.000
     13 C19         3.5712   -2.3672   -1.3543 C.2        1 <1>        0.000
     14 C20         5.3240   -0.8676   -1.0123 C.2        1 <1>        0.000
     15 O7          2.4567   -2.8012   -1.0982 O.2        1 <1>        0.000
     16 H          -3.9672   -0.2910   -0.0324 H.spc      1 <1>        0.000
     17 H          -1.2092   -1.4750   -0.9338 H.spc      1 <1>        0.000
     18 H          -2.0464    1.2794    0.0324 H.spc      1 <1>        0.000
     19 H           0.6465    0.0321   -0.8095 H.spc      1 <1>        0.000
     20 H           0.1103    2.8726    0.0119 H.spc      1 <1>        0.000
     21 H           5.0966   -2.3534   -2.4628 H.spc      1 <1>        0.000
     22 H           2.4279    3.0411   -1.0965 H.spc      1 <1>        0.000
     23 H           4.0876    1.8019   -0.1575 H.spc      1 <1>        0.000
     24 H           2.6322    0.4774    2.0097 H.spc      1 <1>        0.000
     25 H           3.4856   -1.5989    1.4941 H.spc      1 <1>        0.000
     26 H           5.8368   -0.0381   -0.5254 H.spc      1 <1>        0.000
     27 H           5.7335   -1.3015   -1.9245 H.spc      1 <1>        0.000
@<TRIPOS>BOND
     1    1    2 1  
     2   13   15 2  
     3    9   10 1  
     4    2    4 2  
     5   10   11 2  
     6    6    8 1  
     7    1    3 2  
     8    8    9 2  
     9   12   14 2  
    10    4    5 1  
    11    5    6 2  
    12   11   12 1  
    13   12   13 1  
    14   13    7 1  
    15    1   16 1  
    16    2   17 1  
    17    4   18 1  
    18    5   19 1  
    19    6   20 1  
    20    7   21 1  
    21    8   22 1  
    22    9   23 1  
    23   10   24 1  
    24   11   25 1  
    25   14   26 1  
    26   14   27 1  
# Name:          frag3-281-3/96164
# Creation time: Sat Jun  5 12:53:25 2010


@<TRIPOS>MOLECULE
frag3-281-3/96164
   27    26     1     1     1
SMALL
USER_CHARGES


@<TRIPOS>ATOM
      1 C4         -3.8282   -0.3985   -0.9656 C.2        1 <1>        0.000
      2 C6         -2.5940   -0.3967   -0.1821 C.2        1 <1>        0.000
      3 O3         -4.9154   -0.8184   -0.5954 O.2        1 <1>        0.000
      4 C8         -1.3980    0.0484   -0.5940 C.2        1 <1>        0.000
      5 C11        -0.2050    0.0718    0.1956 C.2        1 <1>        0.000
      6 C12         1.0193    0.5697    0.0027 C.2        1 <1>        0.000
      7 O6          3.6759   -3.1414   -0.3197 O.3        1 <1>        0.000
      8 C13         2.1557    0.5601    0.8828 C.2        1 <1>        0.000
      9 C14         3.4320    0.8498    0.5908 C.2        1 <1>        0.000
     10 C15         4.0377    1.2134   -0.6738 C.2        1 <1>        0.000
     11 C16         4.2121    0.3120   -1.6708 C.2        1 <1>        0.000
     12 C18         3.8804   -1.1042   -1.6294 C.2        1 <1>        0.000
     13 C19         4.2558   -1.9577   -0.4810 C.2        1 <1>        0.000
     14 C20         3.2127   -1.8161   -2.5475 C.2        1 <1>        0.000
     15 O7          5.0823   -1.5655    0.3377 O.2        1 <1>        0.000
     16 H          -3.7743    0.0127   -1.9736 H.spc      1 <1>        0.000
     17 H          -2.6513   -0.7942    0.8312 H.spc      1 <1>        0.000
     18 H          -1.3289    0.4235   -1.6151 H.spc      1 <1>        0.000
     19 H          -0.3198   -0.4221    1.1605 H.spc      1 <1>        0.000
     20 H           1.1798    1.0530   -0.9610 H.spc      1 <1>        0.000
     21 H           3.0607   -3.2960   -1.0403 H.spc      1 <1>        0.000
     22 H           1.9548    0.2825    1.9175 H.spc      1 <1>        0.000
     23 H           4.1197    0.8047    1.4352 H.spc      1 <1>        0.000
     24 H           4.3628    2.2423   -0.8281 H.spc      1 <1>        0.000
     25 H           4.6451    0.6862   -2.5985 H.spc      1 <1>        0.000
     26 H           2.8498   -1.3322   -3.4543 H.spc      1 <1>        0.000
     27 H           3.0325   -2.8791   -2.3876 H.spc      1 <1>        0.000
@<TRIPOS>BOND
     1    1    2 1  
     2   13   15 2  
     3    9   10 1  
     4    2    4 2  
     5   10   11 2  
     6    6    8 1  
     7    1    3 2  
     8    8    9 2  
     9   12   14 2  
    10    4    5 1  
    11    5    6 2  
    12   11   12 1  
    13   12   13 1  
    14   13    7 1  
    15    1   16 1  
    16    2   17 1  
    17    4   18 1  
    18    5   19 1  
    19    6   20 1  
    20    7   21 1  
    21    8   22 1  
    22    9   23 1  
    23   10   24 1  
    24   11   25 1  
    25   14   26 1  
    26   14   27 1  
# Name:          frag3-281-3/96164
# Creation time: Sat Jun  5 12:53:25 2010


@<TRIPOS>MOLECULE
frag3-281-3/96164
   27    26     1     1     1
SMALL
USER_CHARGES


@<TRIPOS>ATOM
      1 C4         -4.1548    0.0354    0.6276 C.2        1 <1>        0.000
      2 C6         -2.7829    0.1763    0.1456 C.2        1 <1>        0.000
      3 O3         -4.5584    0.2977    1.7523 O.2        1 <1>        0.000
      4 C8         -2.3187   -0.1186   -1.0759 C.2        1 <1>        0.000
      5 C11        -0.9751    0.0090   -1.5338 C.2        1 <1>        0.000
      6 C12        -0.0670    0.9331   -1.1889 C.2        1 <1>        0.000
      7 O6          6.9776   -1.3561   -0.6056 O.3        1 <1>        0.000
      8 C13         1.2858    1.0665   -1.5853 C.2        1 <1>        0.000
      9 C14         2.2282    0.1822   -1.2566 C.2        1 <1>        0.000
     10 C15         2.2368   -1.0258   -0.4781 C.2        1 <1>        0.000
     11 C16         3.2804   -1.8528   -0.3534 C.2        1 <1>        0.000
     12 C18         4.5988   -1.7498   -0.8961 C.2        1 <1>        0.000
     13 C19         5.7513   -1.3195   -0.0881 C.2        1 <1>        0.000
     14 C20         4.9338   -1.8931   -2.1849 C.2        1 <1>        0.000
     15 O7          5.5875   -0.9577    1.0716 O.2        1 <1>        0.000
     16 H          -4.8902   -0.3399   -0.0840 H.spc      1 <1>        0.000
     17 H          -2.0562    0.5646    0.8592 H.spc      1 <1>        0.000
     18 H          -3.0452   -0.4960   -1.7955 H.spc      1 <1>        0.000
     19 H          -0.6443   -0.7385   -2.2549 H.spc      1 <1>        0.000
     20 H          -0.4242    1.6975   -0.4988 H.spc      1 <1>        0.000
     21 H           6.9309   -1.6589   -1.5154 H.spc      1 <1>        0.000
     22 H           1.5695    1.9307   -2.1860 H.spc      1 <1>        0.000
     23 H           3.2064    0.4298   -1.6687 H.spc      1 <1>        0.000
     24 H           1.3214   -1.2885    0.0521 H.spc      1 <1>        0.000
     25 H           3.0981   -2.7394    0.2539 H.spc      1 <1>        0.000
     26 H           4.1652   -2.1090   -2.9270 H.spc      1 <1>        0.000
     27 H           5.9750   -1.7938   -2.4917 H.spc      1 <1>        0.000
@<TRIPOS>BOND
     1    1    2 1  
     2   13   15 2  
     3    9   10 1  
     4    2    4 2  
     5   10   11 2  
     6    6    8 1  
     7    1    3 2  
     8    8    9 2  
     9   12   14 2  
    10    4    5 1  
    11    5    6 2  
    12   11   12 1  
    13   12   13 1  
    14   13    7 1  
    15    1   16 1  
    16    2   17 1  
    17    4   18 1  
    18    5   19 1  
    19    6   20 1  
    20    7   21 1  
    21    8   22 1  
    22    9   23 1  
    23   10   24 1  
    24   11   25 1  
    25   14   26 1  
    26   14   27 1  
# Name:          frag3-281-3/96164
# Creation time: Sat Jun  5 12:53:25 2010


@<TRIPOS>MOLECULE
frag3-281-3/96164
   27    26     1     1     1
SMALL
USER_CHARGES


@<TRIPOS>ATOM
      1 C4         -4.2992    0.1767   -0.5442 C.2        1 <1>        0.000
      2 C6         -2.8644    0.4481   -0.5161 C.2        1 <1>        0.000
      3 O3         -5.1885    0.9884   -0.3213 O.2        1 <1>        0.000
      4 C8         -1.8864   -0.4383   -0.7304 C.2        1 <1>        0.000
      5 C11        -0.4878   -0.1904   -0.7115 C.2        1 <1>        0.000
      6 C12         0.2065    0.6134    0.1057 C.2        1 <1>        0.000
      7 O6          4.3323   -0.9168   -2.4787 O.3        1 <1>        0.000
      8 C13         1.5996    0.8731    0.1384 C.2        1 <1>        0.000
      9 C14         2.5399   -0.0674    0.1809 C.2        1 <1>        0.000
     10 C15         2.5101   -1.5006    0.2358 C.2        1 <1>        0.000
     11 C16         3.5349   -2.3268   -0.0045 C.2        1 <1>        0.000
     12 C18         4.8510   -1.9407   -0.4034 C.2        1 <1>        0.000
     13 C19         5.1406   -0.9014   -1.4170 C.2        1 <1>        0.000
     14 C20         6.0210   -2.3359    0.1210 C.2        1 <1>        0.000
     15 O7          6.0137   -0.0545   -1.3045 O.2        1 <1>        0.000
     16 H          -4.6063   -0.8409   -0.7855 H.spc      1 <1>        0.000
     17 H          -2.5614    1.4725   -0.2994 H.spc      1 <1>        0.000
     18 H          -2.1958   -1.4617   -0.9425 H.spc      1 <1>        0.000
     19 H           0.0977   -0.7242   -1.4601 H.spc      1 <1>        0.000
     20 H          -0.3849    1.1435    0.8523 H.spc      1 <1>        0.000
     21 H           3.7134   -1.6462   -2.3977 H.spc      1 <1>        0.000
     22 H           1.9226    1.9141    0.1280 H.spc      1 <1>        0.000
     23 H           3.5513    0.3389    0.1721 H.spc      1 <1>        0.000
     24 H           1.5585   -1.9623    0.4993 H.spc      1 <1>        0.000
     25 H           3.3479   -3.3939    0.1153 H.spc      1 <1>        0.000
     26 H           6.0351   -3.0366    0.9558 H.spc      1 <1>        0.000
     27 H           6.9574   -1.9562   -0.2878 H.spc      1 <1>        0.000
@<TRIPOS>BOND
     1    1    2 1  
     2   13   15 2  
     3    9   10 1  
     4    2    4 2  
     5   10   11 2  
     6    6    8 1  
     7    1    3 2  
     8    8    9 2  
     9   12   14 2  
    10    4    5 1  
    11    5    6 2  
    12   11   12 1  
    13   12   13 1  
    14   13    7 1  
    15    1   16 1  
    16    2   17 1  
    17    4   18 1  
    18    5   19 1  
    19    6   20 1  
    20    7   21 1  
    21    8   22 1  
    22    9   23 1  
    23   10   24 1  
    24   11   25 1  
    25   14   26 1  
    26   14   27 1  
# Name:          frag3-281-3/96164
# Creation time: Sat Jun  5 12:53:25 2010


@<TRIPOS>MOLECULE
frag3-281-3/96164
   27    26     1     1     1
SMALL
USER_CHARGES


@<TRIPOS>ATOM
      1 C4         -4.4107    0.4948   -0.4010 C.2        1 <1>        0.000
      2 C6         -3.0089    0.7254   -0.0741 C.2        1 <1>        0.000
      3 O3         -4.9738   -0.5133   -0.7929 O.2        1 <1>        0.000
      4 C8         -2.0606   -0.1873   -0.3017 C.2        1 <1>        0.000
      5 C11        -0.6737   -0.0991   -0.0245 C.2        1 <1>        0.000
      6 C12         0.1106    0.9864   -0.0268 C.2        1 <1>        0.000
      7 O6          5.7062   -0.7328   -2.2438 O.3        1 <1>        0.000
      8 C13         1.4936    1.1057    0.2551 C.2        1 <1>        0.000
      9 C14         2.4223    0.2898   -0.2396 C.2        1 <1>        0.000
     10 C15         2.3374   -0.8312   -1.1253 C.2        1 <1>        0.000
     11 C16         3.2576   -1.7887   -1.2531 C.2        1 <1>        0.000
     12 C18         4.5103   -1.9185   -0.5812 C.2        1 <1>        0.000
     13 C19         5.7758   -1.3279   -1.0535 C.2        1 <1>        0.000
     14 C20         4.7013   -2.4291    0.6520 C.2        1 <1>        0.000
     15 O7          6.8359   -1.3476   -0.4394 O.2        1 <1>        0.000
     16 H          -5.0590    1.3619   -0.2750 H.spc      1 <1>        0.000
     17 H          -2.7240    1.6780    0.3726 H.spc      1 <1>        0.000
     18 H          -2.3962   -1.1182   -0.7587 H.spc      1 <1>        0.000
     19 H          -0.1801   -1.0388    0.2233 H.spc      1 <1>        0.000
     20 H          -0.3911    1.9191   -0.2846 H.spc      1 <1>        0.000
     21 H           4.8122   -0.8071   -2.5857 H.spc      1 <1>        0.000
     22 H           1.8160    1.9114    0.9146 H.spc      1 <1>        0.000
     23 H           3.4354    0.5180    0.0915 H.spc      1 <1>        0.000
     24 H           1.4460   -0.9092   -1.7477 H.spc      1 <1>        0.000
     25 H           3.0210   -2.5781   -1.9666 H.spc      1 <1>        0.000
     26 H           3.8507   -2.7900    1.2302 H.spc      1 <1>        0.000
     27 H           5.7063   -2.4810    1.0707 H.spc      1 <1>        0.000
@<TRIPOS>BOND
     1    1    2 1  
     2   13   15 2  
     3    9   10 1  
     4    2    4 2  
     5   10   11 2  
     6    6    8 1  
     7    1    3 2  
     8    8    9 2  
     9   12   14 2  
    10    4    5 1  
    11    5    6 2  
    12   11   12 1  
    13   12   13 1  
    14   13    7 1  
    15    1   16 1  
    16    2   17 1  
    17    4   18 1  
    18    5   19 1  
    19    6   20 1  
    20    7   21 1  
    21    8   22 1  
    22    9   23 1  
    23   10   24 1  
    24   11   25 1  
    25   14   26 1  
    26   14   27 1  
# Name:          frag3-281-3/96164
# Creation time: Sat Jun  5 12:53:25 2010


@<TRIPOS>MOLECULE
frag3-281-3/96164
   27    26     1     1     1
SMALL
USER_CHARGES


@<TRIPOS>ATOM
      1 C4         -2.9114   -1.2719   -0.4526 C.2        1 <1>        0.000
      2 C6         -1.7217   -0.4222   -0.4117 C.2        1 <1>        0.000
      3 O3         -3.3487   -1.9407    0.4691 O.2        1 <1>        0.000
      4 C8         -1.1325    0.2155   -1.4263 C.2        1 <1>        0.000
      5 C11         0.0141    1.0674   -1.3597 C.2        1 <1>        0.000
      6 C12         1.0865    0.9706   -0.5642 C.2        1 <1>        0.000
      7 O6          2.9702   -2.7345   -2.2255 O.3        1 <1>        0.000
      8 C13         2.2427    1.7991   -0.4260 C.2        1 <1>        0.000
      9 C14         3.3382    1.6354    0.3146 C.2        1 <1>        0.000
     10 C15         3.7813    0.5861    1.1817 C.2        1 <1>        0.000
     11 C16         4.0334   -0.6497    0.7252 C.2        1 <1>        0.000
     12 C18         3.9400   -1.1844   -0.6093 C.2        1 <1>        0.000
     13 C19         2.9677   -2.2293   -0.9922 C.2        1 <1>        0.000
     14 C20         4.6077   -0.7688   -1.6926 C.2        1 <1>        0.000
     15 O7          2.1558   -2.6460   -0.1802 O.2        1 <1>        0.000
     16 H          -3.4584   -1.3112   -1.3946 H.spc      1 <1>        0.000
     17 H          -1.2593   -0.2937    0.5670 H.spc      1 <1>        0.000
     18 H          -1.5735    0.0709   -2.4125 H.spc      1 <1>        0.000
     19 H           0.0151    1.9104   -2.0507 H.spc      1 <1>        0.000
     20 H           1.0759    0.1041    0.0970 H.spc      1 <1>        0.000
     21 H           3.6590   -2.3103   -2.7425 H.spc      1 <1>        0.000
     22 H           2.2257    2.7114   -1.0222 H.spc      1 <1>        0.000
     23 H           4.0380    2.4683    0.2465 H.spc      1 <1>        0.000
     24 H           3.9176    0.7972    2.2423 H.spc      1 <1>        0.000
     25 H           4.3604   -1.3614    1.4832 H.spc      1 <1>        0.000
     26 H           5.3112    0.0601   -1.6145 H.spc      1 <1>        0.000
     27 H           4.4479   -1.2593   -2.6528 H.spc      1 <1>        0.000
@<TRIPOS>BOND
     1    1    2 1  
     2   13   15 2  
     3    9   10 1  
     4    2    4 2  
     5   10   11 2  
     6    6    8 1  
     7    1    3 2  
     8    8    9 2  
     9   12   14 2  
    10    4    5 1  
    11    5    6 2  
    12   11   12 1  
    13   12   13 1  
    14   13    7 1  
    15    1   16 1  
    16    2   17 1  
    17    4   18 1  
    18    5   19 1  
    19    6   20 1  
    20    7   21 1  
    21    8   22 1  
    22    9   23 1  
    23   10   24 1  
    24   11   25 1  
    25   14   26 1  
    26   14   27 1  
# Name:          frag3-281-3/96164
# Creation time: Sat Jun  5 12:53:25 2010


@<TRIPOS>MOLECULE
frag3-281-3/96164
   27    26     1     1     1
SMALL
USER_CHARGES


@<TRIPOS>ATOM
      1 C4         -4.6816    0.2085    0.3578 C.2        1 <1>        0.000
      2 C6         -3.4155    0.1093   -0.3665 C.2        1 <1>        0.000
      3 O3         -5.7740   -0.1462   -0.0610 O.2        1 <1>        0.000
      4 C8         -2.2385    0.6105    0.0294 C.2        1 <1>        0.000
      5 C11        -1.0065    0.5229   -0.6834 C.2        1 <1>        0.000
      6 C12         0.2181    1.0034   -0.4595 C.2        1 <1>        0.000
      7 O6          6.3375   -0.6511    0.4528 O.3        1 <1>        0.000
      8 C13         1.3908    0.8133   -1.2518 C.2        1 <1>        0.000
      9 C14         2.3862   -0.0328   -0.9813 C.2        1 <1>        0.000
     10 C15         2.6487   -0.9435    0.0924 C.2        1 <1>        0.000
     11 C16         3.6873   -1.7828    0.1596 C.2        1 <1>        0.000
     12 C18         4.7702   -1.9661   -0.7681 C.2        1 <1>        0.000
     13 C19         6.0796   -1.3094   -0.6755 C.2        1 <1>        0.000
     14 C20         4.7050   -2.6513   -1.9295 C.2        1 <1>        0.000
     15 O7          6.9162   -1.3579   -1.5650 O.2        1 <1>        0.000
     16 H          -4.6486    0.6365    1.3597 H.spc      1 <1>        0.000
     17 H          -3.4310   -0.4224   -1.3179 H.spc      1 <1>        0.000
     18 H          -2.2205    1.1340    0.9853 H.spc      1 <1>        0.000
     19 H          -1.0806   -0.0577   -1.6029 H.spc      1 <1>        0.000
     20 H           0.3376    1.6142    0.4354 H.spc      1 <1>        0.000
     21 H           5.5794   -0.7129    1.0385 H.spc      1 <1>        0.000
     22 H           1.4806    1.4126   -2.1578 H.spc      1 <1>        0.000
     23 H           3.1679   -0.0305   -1.7409 H.spc      1 <1>        0.000
     24 H           1.9435   -0.9532    0.9235 H.spc      1 <1>        0.000
     25 H           3.7173   -2.4190    1.0442 H.spc      1 <1>        0.000
     26 H           3.7704   -3.1239   -2.2317 H.spc      1 <1>        0.000
     27 H           5.5869   -2.7319   -2.5650 H.spc      1 <1>        0.000
@<TRIPOS>BOND
     1    1    2 1  
     2   13   15 2  
     3    9   10 1  
     4    2    4 2  
     5   10   11 2  
     6    6    8 1  
     7    1    3 2  
     8    8    9 2  
     9   12   14 2  
    10    4    5 1  
    11    5    6 2  
    12   11   12 1  
    13   12   13 1  
    14   13    7 1  
    15    1   16 1  
    16    2   17 1  
    17    4   18 1  
    18    5   19 1  
    19    6   20 1  
    20    7   21 1  
    21    8   22 1  
    22    9   23 1  
    23   10   24 1  
    24   11   25 1  
    25   14   26 1  
    26   14   27 1  
# Name:          frag3-281-3/96164
# Creation time: Sat Jun  5 12:53:25 2010


@<TRIPOS>MOLECULE
frag3-281-3/96164
   27    26     1     1     1
SMALL
USER_CHARGES


@<TRIPOS>ATOM
      1 C4         -4.3287   -0.3846   -0.8428 C.2        1 <1>        0.000
      2 C6         -3.0913    0.3436   -1.1005 C.2        1 <1>        0.000
      3 O3         -4.5669   -1.2793   -0.0503 O.2        1 <1>        0.000
      4 C8         -1.9743    0.1172   -0.4012 C.2        1 <1>        0.000
      5 C11        -0.7166    0.7651   -0.5587 C.2        1 <1>        0.000
      6 C12         0.4797    0.5979    0.0055 C.2        1 <1>        0.000
      7 O6          5.5651   -2.0899   -2.4990 O.3        1 <1>        0.000
      8 C13         1.6801    1.3431   -0.2420 C.2        1 <1>        0.000
      9 C14         2.9058    1.1197    0.2519 C.2        1 <1>        0.000
     10 C15         3.3516    0.0692    1.1127 C.2        1 <1>        0.000
     11 C16         3.8307   -1.0952    0.6500 C.2        1 <1>        0.000
     12 C18         4.0356   -1.5889   -0.6853 C.2        1 <1>        0.000
     13 C19         5.3831   -1.8967   -1.1932 C.2        1 <1>        0.000
     14 C20         3.1274   -1.6798   -1.6676 C.2        1 <1>        0.000
     15 O7          6.3418   -1.9145   -0.4292 O.2        1 <1>        0.000
     16 H          -5.1758   -0.0798   -1.4573 H.spc      1 <1>        0.000
     17 H          -3.0767    1.0966   -1.8885 H.spc      1 <1>        0.000
     18 H          -2.0332   -0.6468    0.3740 H.spc      1 <1>        0.000
     19 H          -0.7357    1.5673   -1.2964 H.spc      1 <1>        0.000
     20 H           0.5546   -0.2009    0.7434 H.spc      1 <1>        0.000
     21 H           4.7184   -2.0448   -2.9491 H.spc      1 <1>        0.000
     22 H           1.5836    2.1957   -0.9142 H.spc      1 <1>        0.000
     23 H           3.6691    1.8394   -0.0441 H.spc      1 <1>        0.000
     24 H           3.3001    0.2207    2.1909 H.spc      1 <1>        0.000
     25 H           4.1183   -1.7983    1.4317 H.spc      1 <1>        0.000
     26 H           2.1009   -1.3579   -1.4923 H.spc      1 <1>        0.000
     27 H           3.4157   -2.0756   -2.6414 H.spc      1 <1>        0.000
@<TRIPOS>BOND
     1    1    2 1  
     2   13   15 2  
     3    9   10 1  
     4    2    4 2  
     5   10   11 2  
     6    6    8 1  
     7    1    3 2  
     8    8    9 2  
     9   12   14 2  
    10    4    5 1  
    11    5    6 2  
    12   11   12 1  
    13   12   13 1  
    14   13    7 1  
    15    1   16 1  
    16    2   17 1  
    17    4   18 1  
    18    5   19 1  
    19    6   20 1  
    20    7   21 1  
    21    8   22 1  
    22    9   23 1  
    23   10   24 1  
    24   11   25 1  
    25   14   26 1  
    26   14   27 1  
# Name:          frag3-281-3/96164
# Creation time: Sat Jun  5 12:53:25 2010


@<TRIPOS>MOLECULE
frag3-281-3/96164
   27    26     1     1     1
SMALL
USER_CHARGES


@<TRIPOS>ATOM
      1 C4         -2.7338   -1.6877   -0.2093 C.2        1 <1>        0.000
      2 C6         -1.4864   -0.9752   -0.4613 C.2        1 <1>        0.000
      3 O3         -3.8832   -1.2802   -0.2169 O.2        1 <1>        0.000
      4 C8         -1.4358    0.3437   -0.6789 C.2        1 <1>        0.000
      5 C11        -0.3016    1.1661   -0.9395 C.2        1 <1>        0.000
      6 C12         0.9431    1.0276   -0.4680 C.2        1 <1>        0.000
      7 O6          2.4308   -2.4632   -1.9081 O.3        1 <1>        0.000
      8 C13         2.1147    1.8103   -0.7207 C.2        1 <1>        0.000
      9 C14         3.3253    1.7199   -0.1619 C.2        1 <1>        0.000
     10 C15         3.8877    0.8342    0.8173 C.2        1 <1>        0.000
     11 C16         4.1919   -0.4388    0.5404 C.2        1 <1>        0.000
     12 C18         4.0521   -1.1848   -0.6731 C.2        1 <1>        0.000
     13 C19         3.1906   -2.3600   -0.8067 C.2        1 <1>        0.000
     14 C20         4.6258   -0.9047   -1.8546 C.2        1 <1>        0.000
     15 O7          3.1021   -3.1803    0.0916 O.2        1 <1>        0.000
     16 H          -2.6215   -2.7471    0.0212 H.spc      1 <1>        0.000
     17 H          -0.5553   -1.5418   -0.4728 H.spc      1 <1>        0.000
     18 H          -2.3949    0.8609   -0.6533 H.spc      1 <1>        0.000
     19 H          -0.4686    2.0128   -1.6053 H.spc      1 <1>        0.000
     20 H           1.0871    0.1894    0.2137 H.spc      1 <1>        0.000
     21 H           2.6320   -1.7375   -2.5034 H.spc      1 <1>        0.000
     22 H           2.0039    2.5895   -1.4748 H.spc      1 <1>        0.000
     23 H           4.0278    2.4710   -0.5230 H.spc      1 <1>        0.000
     24 H           4.0737    1.2122    1.8226 H.spc      1 <1>        0.000
     25 H           4.6149   -0.9988    1.3744 H.spc      1 <1>        0.000
     26 H           5.2723   -0.0327   -1.9534 H.spc      1 <1>        0.000
     27 H           4.4450   -1.5494   -2.7147 H.spc      1 <1>        0.000
@<TRIPOS>BOND
     1    1    2 1  
     2   13   15 2  
     3    9   10 1  
     4    2    4 2  
     5   10   11 2  
     6    6    8 1  
     7    1    3 2  
     8    8    9 2  
     9   12   14 2  
    10    4    5 1  
    11    5    6 2  
    12   11   12 1  
    13   12   13 1  
    14   13    7 1  
    15    1   16 1  
    16    2   17 1  
    17    4   18 1  
    18    5   19 1  
    19    6   20 1  
    20    7   21 1  
    21    8   22 1  
    22    9   23 1  
    23   10   24 1  
    24   11   25 1  
    25   14   26 1  
    26   14   27 1  
# Name:          frag3-281-3/96164
# Creation time: Sat Jun  5 12:53:25 2010


@<TRIPOS>MOLECULE
frag3-281-3/96164
   27    26     1     1     1
SMALL
USER_CHARGES


@<TRIPOS>ATOM
      1 C4         -3.4785   -1.0577   -0.2788 C.2        1 <1>        0.000
      2 C6         -2.2344   -0.2891   -0.3314 C.2        1 <1>        0.000
      3 O3         -4.0471   -1.4315    0.7373 O.2        1 <1>        0.000
      4 C8         -1.6045    0.1438   -1.4299 C.2        1 <1>        0.000
      5 C11        -0.4068    0.9298   -1.4773 C.2        1 <1>        0.000
      6 C12         0.6683    0.8543   -0.6737 C.2        1 <1>        0.000
      7 O6          4.1057   -2.6547   -2.3269 O.3        1 <1>        0.000
      8 C13         1.8655    1.6372   -0.6507 C.2        1 <1>        0.000
      9 C14         2.9548    1.4962    0.1096 C.2        1 <1>        0.000
     10 C15         3.3540    0.5441    1.1062 C.2        1 <1>        0.000
     11 C16         4.0036   -0.5831    0.7842 C.2        1 <1>        0.000
     12 C18         4.4206   -1.1158   -0.4848 C.2        1 <1>        0.000
     13 C19         3.9183   -2.3844   -1.0351 C.2        1 <1>        0.000
     14 C20         5.2203   -0.5012   -1.3689 C.2        1 <1>        0.000
     15 O7          3.2835   -3.1610   -0.3298 O.2        1 <1>        0.000
     16 H          -3.9398   -1.3206   -1.2307 H.spc      1 <1>        0.000
     17 H          -1.7722   -0.0433    0.6247 H.spc      1 <1>        0.000
     18 H          -2.0480   -0.1295   -2.3874 H.spc      1 <1>        0.000
     19 H          -0.3621    1.6833   -2.2636 H.spc      1 <1>        0.000
     20 H           0.6201    0.0703    0.0821 H.spc      1 <1>        0.000
     21 H           4.6186   -1.9499   -2.7290 H.spc      1 <1>        0.000
     22 H           1.8927    2.4686   -1.3551 H.spc      1 <1>        0.000
     23 H           3.7011    2.2713   -0.0646 H.spc      1 <1>        0.000
     24 H           3.1228    0.7429    2.1527 H.spc      1 <1>        0.000
     25 H           4.2625   -1.2090    1.6382 H.spc      1 <1>        0.000
     26 H           5.6136    0.4915   -1.1499 H.spc      1 <1>        0.000
     27 H           5.4769   -0.9944   -2.3064 H.spc      1 <1>        0.000
@<TRIPOS>BOND
     1    1    2 1  
     2   13   15 2  
     3    9   10 1  
     4    2    4 2  
     5   10   11 2  
     6    6    8 1  
     7    1    3 2  
     8    8    9 2  
     9   12   14 2  
    10    4    5 1  
    11    5    6 2  
    12   11   12 1  
    13   12   13 1  
    14   13    7 1  
    15    1   16 1  
    16    2   17 1  
    17    4   18 1  
    18    5   19 1  
    19    6   20 1  
    20    7   21 1  
    21    8   22 1  
    22    9   23 1  
    23   10   24 1  
    24   11   25 1  
    25   14   26 1  
    26   14   27 1  
# Name:          frag3-281-3/96164
# Creation time: Sat Jun  5 12:53:25 2010


@<TRIPOS>MOLECULE
frag3-281-3/96164
   27    26     1     1     1
SMALL
USER_CHARGES


@<TRIPOS>ATOM
      1 C4         -4.0577   -0.5555   -0.0130 C.2        1 <1>        0.000
      2 C6         -2.7222   -0.0979   -0.3955 C.2        1 <1>        0.000
      3 O3         -5.1056    0.0383   -0.2172 O.2        1 <1>        0.000
      4 C8         -1.5635   -0.7151   -0.1411 C.2        1 <1>        0.000
      5 C11        -0.2483   -0.2872   -0.5114 C.2        1 <1>        0.000
      6 C12         0.1791    0.9597   -0.7613 C.2        1 <1>        0.000
      7 O6          5.4234   -2.3378   -2.2673 O.3        1 <1>        0.000
      8 C13         1.4752    1.4379   -1.1134 C.2        1 <1>        0.000
      9 C14         2.6034    1.0909   -0.4852 C.2        1 <1>        0.000
     10 C15         2.8862    0.2467    0.6385 C.2        1 <1>        0.000
     11 C16         3.8720   -0.6583    0.6781 C.2        1 <1>        0.000
     12 C18         4.8242   -1.0309   -0.3279 C.2        1 <1>        0.000
     13 C19         4.6738   -2.2297   -1.1700 C.2        1 <1>        0.000
     14 C20         5.9102   -0.3280   -0.6974 C.2        1 <1>        0.000
     15 O7          3.8730   -3.1062   -0.8655 O.2        1 <1>        0.000
     16 H          -4.1241   -1.5142    0.5014 H.spc      1 <1>        0.000
     17 H          -2.6656    0.8423   -0.9440 H.spc      1 <1>        0.000
     18 H          -1.6277   -1.6521    0.4120 H.spc      1 <1>        0.000
     19 H           0.5005   -1.0741   -0.6017 H.spc      1 <1>        0.000
     20 H          -0.5874    1.7307   -0.6825 H.spc      1 <1>        0.000
     21 H           5.9874   -1.5649   -2.3456 H.spc      1 <1>        0.000
     22 H           1.5515    2.1323   -1.9501 H.spc      1 <1>        0.000
     23 H           3.4948    1.5450   -0.9181 H.spc      1 <1>        0.000
     24 H           2.2552    0.3487    1.5214 H.spc      1 <1>        0.000
     25 H           3.9656   -1.1957    1.6218 H.spc      1 <1>        0.000
     26 H           6.1329    0.6242   -0.2159 H.spc      1 <1>        0.000
     27 H           6.5674   -0.7107   -1.4783 H.spc      1 <1>        0.000
@<TRIPOS>BOND
     1    1    2 1  
     2   13   15 2  
     3    9   10 1  
     4    2    4 2  
     5   10   11 2  
     6    6    8 1  
     7    1    3 2  
     8    8    9 2  
     9   12   14 2  
    10    4    5 1  
    11    5    6 2  
    12   11   12 1  
    13   12   13 1  
    14   13    7 1  
    15    1   16 1  
    16    2   17 1  
    17    4   18 1  
    18    5   19 1  
    19    6   20 1  
    20    7   21 1  
    21    8   22 1  
    22    9   23 1  
    23   10   24 1  
    24   11   25 1  
    25   14   26 1  
    26   14   27 1  
# Name:          frag3-281-3/96164
# Creation time: Sat Jun  5 12:53:25 2010


@<TRIPOS>MOLECULE
frag3-281-3/96164
   27    26     1     1     1
SMALL
USER_CHARGES


@<TRIPOS>ATOM
      1 C4         -3.2520    0.9960    1.0220 C.2        1 <1>        0.000
      2 C6         -2.2214    0.4199    0.1521 C.2        1 <1>        0.000
      3 O3         -4.4535    0.8153    0.8985 O.2        1 <1>        0.000
      4 C8         -0.9127    0.7180    0.1931 C.2        1 <1>        0.000
      5 C11         0.1222    0.1439   -0.6322 C.2        1 <1>        0.000
      6 C12        -0.0211   -0.3867   -1.8666 C.2        1 <1>        0.000
      7 O6          5.7013    0.6098   -0.3277 O.3        1 <1>        0.000
      8 C13         0.9777   -1.0030   -2.6977 C.2        1 <1>        0.000
      9 C14         1.8867   -1.8956   -2.2753 C.2        1 <1>        0.000
     10 C15         2.1507   -2.4795   -0.9748 C.2        1 <1>        0.000
     11 C16         3.2948   -2.2377   -0.3109 C.2        1 <1>        0.000
     12 C18         4.4326   -1.4112   -0.6187 C.2        1 <1>        0.000
     13 C19         4.8043   -0.2454    0.1863 C.2        1 <1>        0.000
     14 C20         5.2179   -1.5749   -1.6790 C.2        1 <1>        0.000
     15 O7          4.2959   -0.0422    1.2813 O.2        1 <1>        0.000
     16 H          -2.9204    1.6341    1.8412 H.spc      1 <1>        0.000
     17 H          -2.5445   -0.3109   -0.5893 H.spc      1 <1>        0.000
     18 H          -0.6018    1.4671    0.9213 H.spc      1 <1>        0.000
     19 H           1.1290    0.1375   -0.2146 H.spc      1 <1>        0.000
     20 H          -1.0255   -0.3417   -2.2877 H.spc      1 <1>        0.000
     21 H           5.9898    0.2915   -1.1862 H.spc      1 <1>        0.000
     22 H           0.9981   -0.7239   -3.7512 H.spc      1 <1>        0.000
     23 H           2.5546   -2.2494   -3.0607 H.spc      1 <1>        0.000
     24 H           1.4025   -3.1313   -0.5236 H.spc      1 <1>        0.000
     25 H           3.3759   -2.7668    0.6386 H.spc      1 <1>        0.000
     26 H           5.0178   -2.3797   -2.3864 H.spc      1 <1>        0.000
     27 H           6.0618   -0.9043   -1.8409 H.spc      1 <1>        0.000
@<TRIPOS>BOND
     1    1    2 1  
     2   13   15 2  
     3    9   10 1  
     4    2    4 2  
     5   10   11 2  
     6    6    8 1  
     7    1    3 2  
     8    8    9 2  
     9   12   14 2  
    10    4    5 1  
    11    5    6 2  
    12   11   12 1  
    13   12   13 1  
    14   13    7 1  
    15    1   16 1  
    16    2   17 1  
    17    4   18 1  
    18    5   19 1  
    19    6   20 1  
    20    7   21 1  
    21    8   22 1  
    22    9   23 1  
    23   10   24 1  
    24   11   25 1  
    25   14   26 1  
    26   14   27 1  
# Name:          frag3-281-3/96164
# Creation time: Sat Jun  5 12:53:25 2010


@<TRIPOS>MOLECULE
frag3-281-3/96164
   27    26     1     1     1
SMALL
USER_CHARGES


@<TRIPOS>ATOM
      1 C4         -4.4238   -0.2420    0.0011 C.2        1 <1>        0.000
      2 C6         -3.1039   -0.3646   -0.6209 C.2        1 <1>        0.000
      3 O3         -4.7836    0.5450    0.8600 O.2        1 <1>        0.000
      4 C8         -2.0837    0.4507   -0.3193 C.2        1 <1>        0.000
      5 C11        -0.7629    0.4305   -0.8442 C.2        1 <1>        0.000
      6 C12         0.3043    1.2121   -0.6531 C.2        1 <1>        0.000
      7 O6          5.3418   -0.0746    0.2263 O.3        1 <1>        0.000
      8 C13         1.5911    1.0286   -1.2374 C.2        1 <1>        0.000
      9 C14         2.4141    0.0092   -0.9866 C.2        1 <1>        0.000
     10 C15         2.3608   -1.1341   -0.1262 C.2        1 <1>        0.000
     11 C16         3.3120   -2.0650    0.0079 C.2        1 <1>        0.000
     12 C18         4.5845   -2.1181   -0.6481 C.2        1 <1>        0.000
     13 C19         5.6456   -1.0960   -0.5681 C.2        1 <1>        0.000
     14 C20         4.9266   -3.0469   -1.5617 C.2        1 <1>        0.000
     15 O7          6.7004   -1.1081   -1.1794 O.2        1 <1>        0.000
     16 H          -5.1812   -0.9437   -0.3483 H.spc      1 <1>        0.000
     17 H          -2.9446   -1.1507   -1.3590 H.spc      1 <1>        0.000
     18 H          -2.2926    1.2245    0.4194 H.spc      1 <1>        0.000
     19 H          -0.5845   -0.3867   -1.5431 H.spc      1 <1>        0.000
     20 H           0.1790    2.0680    0.0102 H.spc      1 <1>        0.000
     21 H           4.4824   -0.2263    0.6262 H.spc      1 <1>        0.000
     22 H           1.9306    1.7829   -1.9473 H.spc      1 <1>        0.000
     23 H           3.3350    0.0574   -1.5678 H.spc      1 <1>        0.000
     24 H           1.4607   -1.2575    0.4760 H.spc      1 <1>        0.000
     25 H           3.0930   -2.8797    0.6981 H.spc      1 <1>        0.000
     26 H           4.2143   -3.8223   -1.8436 H.spc      1 <1>        0.000
     27 H           5.9157   -3.0231   -2.0191 H.spc      1 <1>        0.000
@<TRIPOS>BOND
     1    1    2 1  
     2   13   15 2  
     3    9   10 1  
     4    2    4 2  
     5   10   11 2  
     6    6    8 1  
     7    1    3 2  
     8    8    9 2  
     9   12   14 2  
    10    4    5 1  
    11    5    6 2  
    12   11   12 1  
    13   12   13 1  
    14   13    7 1  
    15    1   16 1  
    16    2   17 1  
    17    4   18 1  
    18    5   19 1  
    19    6   20 1  
    20    7   21 1  
    21    8   22 1  
    22    9   23 1  
    23   10   24 1  
    24   11   25 1  
    25   14   26 1  
    26   14   27 1  
# Name:          frag3-281-3/96164
# Creation time: Sat Jun  5 12:53:25 2010


@<TRIPOS>MOLECULE
frag3-281-3/96164
   27    26     1     1     1
SMALL
USER_CHARGES


@<TRIPOS>ATOM
      1 C4         -4.3813    0.4364    0.6173 C.2        1 <1>        0.000
      2 C6         -3.1231    0.1330   -0.0700 C.2        1 <1>        0.000
      3 O3         -4.9387   -0.2493    1.4609 O.2        1 <1>        0.000
      4 C8         -2.5329    0.8809   -1.0062 C.2        1 <1>        0.000
      5 C11        -1.3275    0.5715   -1.7025 C.2        1 <1>        0.000
      6 C12        -0.1796    0.1078   -1.1913 C.2        1 <1>        0.000
      7 O6          7.0832   -1.4313   -1.2146 O.3        1 <1>        0.000
      8 C13         1.0258   -0.2638   -1.8482 C.2        1 <1>        0.000
      9 C14         2.1378   -0.7450   -1.3008 C.2        1 <1>        0.000
     10 C15         2.5161   -1.0535    0.0442 C.2        1 <1>        0.000
     11 C16         3.7774   -1.0130    0.4880 C.2        1 <1>        0.000
     12 C18         4.9901   -0.7221   -0.2202 C.2        1 <1>        0.000
     13 C19         5.9464   -1.7637   -0.6074 C.2        1 <1>        0.000
     14 C20         5.3369    0.4761   -0.7278 C.2        1 <1>        0.000
     15 O7          5.6928   -2.9373   -0.3711 O.2        1 <1>        0.000
     16 H          -4.8712    1.3720    0.3476 H.spc      1 <1>        0.000
     17 H          -2.6202   -0.7926    0.2099 H.spc      1 <1>        0.000
     18 H          -3.0210    1.8209   -1.2635 H.spc      1 <1>        0.000
     19 H          -1.3420    0.7316   -2.7806 H.spc      1 <1>        0.000
     20 H          -0.1675   -0.0014   -0.1068 H.spc      1 <1>        0.000
     21 H           7.1209   -0.4780   -1.3212 H.spc      1 <1>        0.000
     22 H           1.0397   -0.1391   -2.9310 H.spc      1 <1>        0.000
     23 H           2.9247   -0.9463   -2.0276 H.spc      1 <1>        0.000
     24 H           1.7325   -1.3375    0.7467 H.spc      1 <1>        0.000
     25 H           3.9023   -1.2345    1.5479 H.spc      1 <1>        0.000
     26 H           4.6687    1.3298   -0.6150 H.spc      1 <1>        0.000
     27 H           6.2858    0.5922   -1.2514 H.spc      1 <1>        0.000
@<TRIPOS>BOND
     1    1    2 1  
     2   13   15 2  
     3    9   10 1  
     4    2    4 2  
     5   10   11 2  
     6    6    8 1  
     7    1    3 2  
     8    8    9 2  
     9   12   14 2  
    10    4    5 1  
    11    5    6 2  
    12   11   12 1  
    13   12   13 1  
    14   13    7 1  
    15    1   16 1  
    16    2   17 1  
    17    4   18 1  
    18    5   19 1  
    19    6   20 1  
    20    7   21 1  
    21    8   22 1  
    22    9   23 1  
    23   10   24 1  
    24   11   25 1  
    25   14   26 1  
    26   14   27 1  
# Name:          frag3-281-3/96164
# Creation time: Sat Jun  5 12:53:25 2010


@<TRIPOS>MOLECULE
frag3-281-3/96164
   27    26     1     1     1
SMALL
USER_CHARGES


@<TRIPOS>ATOM
      1 C4         -4.1728   -0.3833   -0.0886 C.2        1 <1>        0.000
      2 C6         -2.7553   -0.1093   -0.3065 C.2        1 <1>        0.000
      3 O3         -4.9306   -0.8951   -0.8935 O.2        1 <1>        0.000
      4 C8         -1.9354    0.5805    0.4873 C.2        1 <1>        0.000
      5 C11        -0.5521    0.8414    0.2597 C.2        1 <1>        0.000
      6 C12         0.0788    1.1021   -0.8845 C.2        1 <1>        0.000
      7 O6          6.4598   -1.7925   -1.8064 O.3        1 <1>        0.000
      8 C13         1.4664    1.3083   -1.1217 C.2        1 <1>        0.000
      9 C14         2.4106    0.4938   -0.6551 C.2        1 <1>        0.000
     10 C15         2.3913   -0.7197    0.1267 C.2        1 <1>        0.000
     11 C16         3.4344   -1.5159    0.3789 C.2        1 <1>        0.000
     12 C18         4.7812   -1.3936   -0.0875 C.2        1 <1>        0.000
     13 C19         5.2002   -1.9461   -1.3903 C.2        1 <1>        0.000
     14 C20         5.7446   -0.6229    0.4424 C.2        1 <1>        0.000
     15 O7          4.4023   -2.5206   -2.1106 O.2        1 <1>        0.000
     16 H          -4.5897   -0.1055    0.8795 H.spc      1 <1>        0.000
     17 H          -2.3187   -0.5136   -1.2197 H.spc      1 <1>        0.000
     18 H          -2.3662    0.9860    1.4028 H.spc      1 <1>        0.000
     19 H           0.0790    0.8253    1.1483 H.spc      1 <1>        0.000
     20 H          -0.5599    1.1667   -1.7654 H.spc      1 <1>        0.000
     21 H           6.9626   -1.3251   -1.1353 H.spc      1 <1>        0.000
     22 H           1.7703    2.1725   -1.7124 H.spc      1 <1>        0.000
     23 H           3.4182    0.8129   -0.9216 H.spc      1 <1>        0.000
     24 H           1.4325   -1.0152    0.5527 H.spc      1 <1>        0.000
     25 H           3.2326   -2.3705    1.0246 H.spc      1 <1>        0.000
     26 H           5.5315   -0.0085    1.3172 H.spc      1 <1>        0.000
     27 H           6.7397   -0.6116   -0.0022 H.spc      1 <1>        0.000
@<TRIPOS>BOND
     1    1    2 1  
     2   13   15 2  
     3    9   10 1  
     4    2    4 2  
     5   10   11 2  
     6    6    8 1  
     7    1    3 2  
     8    8    9 2  
     9   12   14 2  
    10    4    5 1  
    11    5    6 2  
    12   11   12 1  
    13   12   13 1  
    14   13    7 1  
    15    1   16 1  
    16    2   17 1  
    17    4   18 1  
    18    5   19 1  
    19    6   20 1  
    20    7   21 1  
    21    8   22 1  
    22    9   23 1  
    23   10   24 1  
    24   11   25 1  
    25   14   26 1  
    26   14   27 1  
# Name:          frag3-281-3/96164
# Creation time: Sat Jun  5 12:53:25 2010


@<TRIPOS>MOLECULE
frag3-281-3/96164
   27    26     1     1     1
SMALL
USER_CHARGES


@<TRIPOS>ATOM
      1 C4         -4.7719    0.4182   -0.4296 C.2        1 <1>        0.000
      2 C6         -3.4421    0.7339   -0.9293 C.2        1 <1>        0.000
      3 O3         -5.1081   -0.3533    0.4509 O.2        1 <1>        0.000
      4 C8         -2.3297    0.2211   -0.3931 C.2        1 <1>        0.000
      5 C11        -0.9926    0.4757   -0.8189 C.2        1 <1>        0.000
      6 C12         0.1793    0.0391   -0.3518 C.2        1 <1>        0.000
      7 O6          5.6038   -0.8488   -2.4086 O.3        1 <1>        0.000
      8 C13         1.4809    0.3690   -0.8472 C.2        1 <1>        0.000
      9 C14         2.6651    0.0295   -0.3371 C.2        1 <1>        0.000
     10 C15         3.1176   -0.7287    0.8085 C.2        1 <1>        0.000
     11 C16         4.3201   -1.3234    0.9222 C.2        1 <1>        0.000
     12 C18         5.3424   -1.3481   -0.0863 C.2        1 <1>        0.000
     13 C19         5.0554   -1.6490   -1.4949 C.2        1 <1>        0.000
     14 C20         6.6434   -1.0783    0.0614 C.2        1 <1>        0.000
     15 O7          4.2596   -2.5302   -1.7960 O.2        1 <1>        0.000
     16 H          -5.5888    0.9516   -0.9157 H.spc      1 <1>        0.000
     17 H          -3.3491    1.4158   -1.7746 H.spc      1 <1>        0.000
     18 H          -2.4571   -0.4569    0.4508 H.spc      1 <1>        0.000
     19 H          -0.9137    1.1441   -1.6763 H.spc      1 <1>        0.000
     20 H           0.1407   -0.6419    0.4984 H.spc      1 <1>        0.000
     21 H           6.1958   -0.2292   -1.9758 H.spc      1 <1>        0.000
     22 H           1.5074    0.9729   -1.7543 H.spc      1 <1>        0.000
     23 H           3.4947    0.4183   -0.9276 H.spc      1 <1>        0.000
     24 H           2.4292   -0.8265    1.6479 H.spc      1 <1>        0.000
     25 H           4.5369   -1.8307    1.8623 H.spc      1 <1>        0.000
     26 H           7.0347   -0.8005    1.0401 H.spc      1 <1>        0.000
     27 H           7.3128   -1.1361   -0.7969 H.spc      1 <1>        0.000
@<TRIPOS>BOND
     1    1    2 1  
     2   13   15 2  
     3    9   10 1  
     4    2    4 2  
     5   10   11 2  
     6    6    8 1  
     7    1    3 2  
     8    8    9 2  
     9   12   14 2  
    10    4    5 1  
    11    5    6 2  
    12   11   12 1  
    13   12   13 1  
    14   13    7 1  
    15    1   16 1  
    16    2   17 1  
    17    4   18 1  
    18    5   19 1  
    19    6   20 1  
    20    7   21 1  
    21    8   22 1  
    22    9   23 1  
    23   10   24 1  
    24   11   25 1  
    25   14   26 1  
    26   14   27 1  
# Name:          frag3-281-3/96164
# Creation time: Sat Jun  5 12:53:25 2010


@<TRIPOS>MOLECULE
frag3-281-3/96164
   27    26     1     1     1
SMALL
USER_CHARGES


@<TRIPOS>ATOM
      1 C4         -3.8383   -0.6245    0.3928 C.2        1 <1>        0.000
      2 C6         -2.3997   -0.3897    0.2939 C.2        1 <1>        0.000
      3 O3         -4.3730   -1.5519    0.9790 O.2        1 <1>        0.000
      4 C8         -1.8070    0.5981   -0.3880 C.2        1 <1>        0.000
      5 C11        -0.4024    0.8368   -0.4686 C.2        1 <1>        0.000
      6 C12         0.3484    1.8087   -1.0004 C.2        1 <1>        0.000
      7 O6          5.4482   -3.1702    0.2396 O.3        1 <1>        0.000
      8 C13         1.7763    1.8905   -1.0177 C.2        1 <1>        0.000
      9 C14         2.5955    0.9076   -1.4096 C.2        1 <1>        0.000
     10 C15         2.3793   -0.4199   -1.9301 C.2        1 <1>        0.000
     11 C16         3.2398   -1.4423   -1.8279 C.2        1 <1>        0.000
     12 C18         4.5100   -1.4909   -1.1865 C.2        1 <1>        0.000
     13 C19         4.7166   -2.0616    0.1448 C.2        1 <1>        0.000
     14 C20         5.6411   -0.9116   -1.5943 C.2        1 <1>        0.000
     15 O7          4.1886   -1.5522    1.1234 O.2        1 <1>        0.000
     16 H          -4.4930    0.0932   -0.1015 H.spc      1 <1>        0.000
     17 H          -1.7481   -1.0836    0.8249 H.spc      1 <1>        0.000
     18 H          -2.4573    1.2833   -0.9318 H.spc      1 <1>        0.000
     19 H           0.1894    0.0553    0.0080 H.spc      1 <1>        0.000
     20 H          -0.1888    2.6306   -1.4737 H.spc      1 <1>        0.000
     21 H           5.7749   -3.4120   -0.6301 H.spc      1 <1>        0.000
     22 H           2.2315    2.8239   -0.6867 H.spc      1 <1>        0.000
     23 H           3.6505    1.1651   -1.3154 H.spc      1 <1>        0.000
     24 H           1.4392   -0.6070   -2.4490 H.spc      1 <1>        0.000
     25 H           2.9216   -2.3697   -2.3041 H.spc      1 <1>        0.000
     26 H           5.6524   -0.3244   -2.5126 H.spc      1 <1>        0.000
     27 H           6.5536   -1.0257   -1.0091 H.spc      1 <1>        0.000
@<TRIPOS>BOND
     1    1    2 1  
     2   13   15 2  
     3    9   10 1  
     4    2    4 2  
     5   10   11 2  
     6    6    8 1  
     7    1    3 2  
     8    8    9 2  
     9   12   14 2  
    10    4    5 1  
    11    5    6 2  
    12   11   12 1  
    13   12   13 1  
    14   13    7 1  
    15    1   16 1  
    16    2   17 1  
    17    4   18 1  
    18    5   19 1  
    19    6   20 1  
    20    7   21 1  
    21    8   22 1  
    22    9   23 1  
    23   10   24 1  
    24   11   25 1  
    25   14   26 1  
    26   14   27 1  
# Name:          frag3-281-3/96164
# Creation time: Sat Jun  5 12:53:25 2010


@<TRIPOS>MOLECULE
frag3-281-3/96164
   27    26     1     1     1
SMALL
USER_CHARGES


@<TRIPOS>ATOM
      1 C4         -3.9868   -0.7532   -0.0003 C.2        1 <1>        0.000
      2 C6         -2.7590   -0.1556    0.5116 C.2        1 <1>        0.000
      3 O3         -4.2004   -1.2939   -1.0710 O.2        1 <1>        0.000
      4 C8         -1.6425   -0.0568   -0.2151 C.2        1 <1>        0.000
      5 C11        -0.4071    0.5281    0.1843 C.2        1 <1>        0.000
      6 C12         0.7231    0.8182   -0.4701 C.2        1 <1>        0.000
      7 O6          6.0378   -1.7113   -0.8309 O.3        1 <1>        0.000
      8 C13         1.9195    1.4277    0.0376 C.2        1 <1>        0.000
      9 C14         3.1246    1.4994   -0.5433 C.2        1 <1>        0.000
     10 C15         3.5598    0.9573   -1.7936 C.2        1 <1>        0.000
     11 C16         3.7913   -0.3556   -1.9835 C.2        1 <1>        0.000
     12 C18         3.6977   -1.4602   -1.0544 C.2        1 <1>        0.000
     13 C19         4.8389   -2.1052   -0.3910 C.2        1 <1>        0.000
     14 C20         2.5724   -1.9848   -0.5367 C.2        1 <1>        0.000
     15 O7          4.7537   -2.9275    0.5068 O.2        1 <1>        0.000
     16 H          -4.8407   -0.7096    0.6758 H.spc      1 <1>        0.000
     17 H          -2.7520    0.2273    1.5321 H.spc      1 <1>        0.000
     18 H          -1.6813   -0.4687   -1.2235 H.spc      1 <1>        0.000
     19 H          -0.3759    0.7943    1.2408 H.spc      1 <1>        0.000
     20 H           0.7374    0.5574   -1.5283 H.spc      1 <1>        0.000
     21 H           5.9238   -1.0667   -1.5331 H.spc      1 <1>        0.000
     22 H           1.8370    1.8911    1.0207 H.spc      1 <1>        0.000
     23 H           3.8813    2.0491    0.0165 H.spc      1 <1>        0.000
     24 H           3.7110    1.6383   -2.6311 H.spc      1 <1>        0.000
     25 H           4.0965   -0.6281   -2.9938 H.spc      1 <1>        0.000
     26 H           1.6018   -1.5724   -0.8124 H.spc      1 <1>        0.000
     27 H           2.6312   -2.8222    0.1585 H.spc      1 <1>        0.000
@<TRIPOS>BOND
     1    1    2 1  
     2   13   15 2  
     3    9   10 1  
     4    2    4 2  
     5   10   11 2  
     6    6    8 1  
     7    1    3 2  
     8    8    9 2  
     9   12   14 2  
    10    4    5 1  
    11    5    6 2  
    12   11   12 1  
    13   12   13 1  
    14   13    7 1  
    15    1   16 1  
    16    2   17 1  
    17    4   18 1  
    18    5   19 1  
    19    6   20 1  
    20    7   21 1  
    21    8   22 1  
    22    9   23 1  
    23   10   24 1  
    24   11   25 1  
    25   14   26 1  
    26   14   27 1  
# Name:          frag3-281-3/96164
# Creation time: Sat Jun  5 12:53:25 2010


@<TRIPOS>MOLECULE
frag3-281-3/96164
   27    26     1     1     1
SMALL
USER_CHARGES


@<TRIPOS>ATOM
      1 C4         -3.7043   -0.4007    1.0062 C.2        1 <1>        0.000
      2 C6         -2.2605   -0.2907    0.7888 C.2        1 <1>        0.000
      3 O3         -4.6281    0.0906    0.3809 O.2        1 <1>        0.000
      4 C8         -1.7564    0.3095   -0.2894 C.2        1 <1>        0.000
      5 C11        -0.3851    0.5064   -0.6238 C.2        1 <1>        0.000
      6 C12         0.2548    1.1991   -1.5682 C.2        1 <1>        0.000
      7 O6          3.8260   -1.0228    1.1426 O.3        1 <1>        0.000
      8 C13         1.6693    1.2665   -1.7653 C.2        1 <1>        0.000
      9 C14         2.4826    0.2134   -1.8593 C.2        1 <1>        0.000
     10 C15         2.2889   -1.2075   -1.8086 C.2        1 <1>        0.000
     11 C16         3.1953   -2.1187   -1.4373 C.2        1 <1>        0.000
     12 C18         4.5260   -1.8886   -0.9618 C.2        1 <1>        0.000
     13 C19         4.8641   -1.2415    0.3308 C.2        1 <1>        0.000
     14 C20         5.6618   -2.0707   -1.6604 C.2        1 <1>        0.000
     15 O7          5.9889   -0.9176    0.6752 O.2        1 <1>        0.000
     16 H          -3.9978   -1.0157    1.8569 H.spc      1 <1>        0.000
     17 H          -1.5794   -0.7110    1.5287 H.spc      1 <1>        0.000
     18 H          -2.4827    0.6976   -1.0035 H.spc      1 <1>        0.000
     19 H           0.2932   -0.0287    0.0408 H.spc      1 <1>        0.000
     20 H          -0.3637    1.7716   -2.2594 H.spc      1 <1>        0.000
     21 H           3.0212   -1.3343    0.7221 H.spc      1 <1>        0.000
     22 H           2.1185    2.2564   -1.8450 H.spc      1 <1>        0.000
     23 H           3.5253    0.4945   -2.0074 H.spc      1 <1>        0.000
     24 H           1.3075   -1.5808   -2.1012 H.spc      1 <1>        0.000
     25 H           2.8834   -3.1609   -1.5049 H.spc      1 <1>        0.000
     26 H           5.6174   -2.4258   -2.6900 H.spc      1 <1>        0.000
     27 H           6.6261   -1.8631   -1.1966 H.spc      1 <1>        0.000
@<TRIPOS>BOND
     1    1    2 1  
     2   13   15 2  
     3    9   10 1  
     4    2    4 2  
     5   10   11 2  
     6    6    8 1  
     7    1    3 2  
     8    8    9 2  
     9   12   14 2  
    10    4    5 1  
    11    5    6 2  
    12   11   12 1  
    13   12   13 1  
    14   13    7 1  
    15    1   16 1  
    16    2   17 1  
    17    4   18 1  
    18    5   19 1  
    19    6   20 1  
    20    7   21 1  
    21    8   22 1  
    22    9   23 1  
    23   10   24 1  
    24   11   25 1  
    25   14   26 1  
    26   14   27 1  
# Name:          frag3-281-3/96164
# Creation time: Sat Jun  5 12:53:25 2010


@<TRIPOS>MOLECULE
frag3-281-3/96164
   27    26     1     1     1
SMALL
USER_CHARGES


@<TRIPOS>ATOM
      1 C4         -3.2412    1.4996    0.7015 C.2        1 <1>        0.000
      2 C6         -2.1539    0.8264   -0.0190 C.2        1 <1>        0.000
      3 O3         -3.0991    2.2918    1.6205 O.2        1 <1>        0.000
      4 C8         -2.3205   -0.0612   -1.0134 C.2        1 <1>        0.000
      5 C11        -1.2860   -0.7255   -1.7595 C.2        1 <1>        0.000
      6 C12        -0.1323   -1.2350   -1.2695 C.2        1 <1>        0.000
      7 O6          5.5755    0.9378   -1.0326 O.3        1 <1>        0.000
      8 C13         0.9264   -1.9057   -1.9770 C.2        1 <1>        0.000
      9 C14         2.0353   -2.4571   -1.4827 C.2        1 <1>        0.000
     10 C15         2.5975   -2.6302   -0.1609 C.2        1 <1>        0.000
     11 C16         3.7699   -2.0849    0.2035 C.2        1 <1>        0.000
     12 C18         4.6812   -1.2395   -0.5248 C.2        1 <1>        0.000
     13 C19         4.8862    0.1778   -0.1856 C.2        1 <1>        0.000
     14 C20         5.3813   -1.6130   -1.5891 C.2        1 <1>        0.000
     15 O7          4.4030    0.6455    0.8390 O.2        1 <1>        0.000
     16 H          -4.2611    1.2737    0.3904 H.spc      1 <1>        0.000
     17 H          -1.1320    1.0652    0.2757 H.spc      1 <1>        0.000
     18 H          -3.3484   -0.3035   -1.2833 H.spc      1 <1>        0.000
     19 H          -1.4484   -0.8295   -2.8323 H.spc      1 <1>        0.000
     20 H           0.0150   -1.1224   -0.1954 H.spc      1 <1>        0.000
     21 H           5.8737    0.4022   -1.7714 H.spc      1 <1>        0.000
     22 H           0.8060   -1.9715   -3.0583 H.spc      1 <1>        0.000
     23 H           2.6708   -2.8787   -2.2615 H.spc      1 <1>        0.000
     24 H           2.0483   -3.2264    0.5678 H.spc      1 <1>        0.000
     25 H           4.0842   -2.3216    1.2200 H.spc      1 <1>        0.000
     26 H           5.2884   -2.6287   -1.9736 H.spc      1 <1>        0.000
     27 H           6.0490   -0.9040   -2.0785 H.spc      1 <1>        0.000
@<TRIPOS>BOND
     1    1    2 1  
     2   13   15 2  
     3    9   10 1  
     4    2    4 2  
     5   10   11 2  
     6    6    8 1  
     7    1    3 2  
     8    8    9 2  
     9   12   14 2  
    10    4    5 1  
    11    5    6 2  
    12   11   12 1  
    13   12   13 1  
    14   13    7 1  
    15    1   16 1  
    16    2   17 1  
    17    4   18 1  
    18    5   19 1  
    19    6   20 1  
    20    7   21 1  
    21    8   22 1  
    22    9   23 1  
    23   10   24 1  
    24   11   25 1  
    25   14   26 1  
    26   14   27 1  
# Name:          frag3-281-3/96164
# Creation time: Sat Jun  5 12:53:25 2010


@<TRIPOS>MOLECULE
frag3-281-3/96164
   27    26     1     1     1
SMALL
USER_CHARGES


@<TRIPOS>ATOM
      1 C4         -3.8552   -0.7338    0.3277 C.2        1 <1>        0.000
      2 C6         -2.5604   -0.0662    0.2090 C.2        1 <1>        0.000
      3 O3         -4.6435   -1.0791   -0.5362 O.2        1 <1>        0.000
      4 C8         -1.9815    0.1800   -0.9713 C.2        1 <1>        0.000
      5 C11        -0.7533    0.8439   -1.2361 C.2        1 <1>        0.000
      6 C12         0.4036    0.7617   -0.5767 C.2        1 <1>        0.000
      7 O6          6.2703   -1.6872   -0.1693 O.3        1 <1>        0.000
      8 C13         1.6452    1.4314   -0.7621 C.2        1 <1>        0.000
      9 C14         2.7927    1.2387   -0.1136 C.2        1 <1>        0.000
     10 C15         3.1381    0.3055    0.9040 C.2        1 <1>        0.000
     11 C16         3.6265   -0.9095    0.6329 C.2        1 <1>        0.000
     12 C18         3.9551   -1.5565   -0.6067 C.2        1 <1>        0.000
     13 C19         5.2988   -1.9961   -1.0299 C.2        1 <1>        0.000
     14 C20         3.1179   -1.7420   -1.6438 C.2        1 <1>        0.000
     15 O7          5.5689   -2.5641   -2.0777 O.2        1 <1>        0.000
     16 H          -4.1647   -0.9582    1.3485 H.spc      1 <1>        0.000
     17 H          -2.0460    0.2434    1.1188 H.spc      1 <1>        0.000
     18 H          -2.5242   -0.1761   -1.8469 H.spc      1 <1>        0.000
     19 H          -0.7569    1.5127   -2.0968 H.spc      1 <1>        0.000
     20 H           0.3963    0.0547    0.2529 H.spc      1 <1>        0.000
     21 H           5.8910   -1.2484    0.5957 H.spc      1 <1>        0.000
     22 H           1.6592    2.2010   -1.5339 H.spc      1 <1>        0.000
     23 H           3.6011    1.9063   -0.4117 H.spc      1 <1>        0.000
     24 H           2.9989    0.5927    1.9462 H.spc      1 <1>        0.000
     25 H           3.8090   -1.5221    1.5158 H.spc      1 <1>        0.000
     26 H           2.0892   -1.3867   -1.5840 H.spc      1 <1>        0.000
     27 H           3.4685   -2.2475   -2.5436 H.spc      1 <1>        0.000
@<TRIPOS>BOND
     1    1    2 1  
     2   13   15 2  
     3    9   10 1  
     4    2    4 2  
     5   10   11 2  
     6    6    8 1  
     7    1    3 2  
     8    8    9 2  
     9   12   14 2  
    10    4    5 1  
    11    5    6 2  
    12   11   12 1  
    13   12   13 1  
    14   13    7 1  
    15    1   16 1  
    16    2   17 1  
    17    4   18 1  
    18    5   19 1  
    19    6   20 1  
    20    7   21 1  
    21    8   22 1  
    22    9   23 1  
    23   10   24 1  
    24   11   25 1  
    25   14   26 1  
    26   14   27 1  
# Name:          frag3-281-3/96164
# Creation time: Sat Jun  5 12:53:25 2010


@<TRIPOS>MOLECULE
frag3-281-3/96164
   27    26     1     1     1
SMALL
USER_CHARGES


@<TRIPOS>ATOM
      1 C4         -3.1495   -1.0595   -0.4963 C.2        1 <1>        0.000
      2 C6         -1.9263   -0.4868    0.0699 C.2        1 <1>        0.000
      3 O3         -3.4721   -1.0942   -1.6700 O.2        1 <1>        0.000
      4 C8         -0.9848    0.1186   -0.6764 C.2        1 <1>        0.000
      5 C11         0.2281    0.7071   -0.1929 C.2        1 <1>        0.000
      6 C12         1.3240    1.1721   -0.8218 C.2        1 <1>        0.000
      7 O6          1.9512   -2.2137   -1.4575 O.3        1 <1>        0.000
      8 C13         2.4848    1.7152   -0.1510 C.2        1 <1>        0.000
      9 C14         3.1929    1.1465    0.8400 C.2        1 <1>        0.000
     10 C15         3.0538   -0.1369    1.4861 C.2        1 <1>        0.000
     11 C16         3.4036   -1.3062    0.9143 C.2        1 <1>        0.000
     12 C18         3.9328   -1.5261   -0.3989 C.2        1 <1>        0.000
     13 C19         3.1694   -1.7263   -1.6369 C.2        1 <1>        0.000
     14 C20         5.2385   -1.4363   -0.7049 C.2        1 <1>        0.000
     15 O7          3.5768   -1.4467   -2.7535 O.2        1 <1>        0.000
     16 H          -3.8489   -1.5041    0.2116 H.spc      1 <1>        0.000
     17 H          -1.7714   -0.5542    1.1467 H.spc      1 <1>        0.000
     18 H          -1.1619    0.1657   -1.7509 H.spc      1 <1>        0.000
     19 H           0.2725    0.7955    0.8926 H.spc      1 <1>        0.000
     20 H           1.3374    1.1369   -1.9111 H.spc      1 <1>        0.000
     21 H           1.8059   -2.3727   -0.5220 H.spc      1 <1>        0.000
     22 H           2.8232    2.6954   -0.4867 H.spc      1 <1>        0.000
     23 H           4.0110    1.7582    1.2203 H.spc      1 <1>        0.000
     24 H           2.6420   -0.1618    2.4950 H.spc      1 <1>        0.000
     25 H           3.2667   -2.1965    1.5281 H.spc      1 <1>        0.000
     26 H           5.9634   -1.1831    0.0687 H.spc      1 <1>        0.000
     27 H           5.5725   -1.6167   -1.7267 H.spc      1 <1>        0.000
@<TRIPOS>BOND
     1    1    2 1  
     2   13   15 2  
     3    9   10 1  
     4    2    4 2  
     5   10   11 2  
     6    6    8 1  
     7    1    3 2  
     8    8    9 2  
     9   12   14 2  
    10    4    5 1  
    11    5    6 2  
    12   11   12 1  
    13   12   13 1  
    14   13    7 1  
    15    1   16 1  
    16    2   17 1  
    17    4   18 1  
    18    5   19 1  
    19    6   20 1  
    20    7   21 1  
    21    8   22 1  
    22    9   23 1  
    23   10   24 1  
    24   11   25 1  
    25   14   26 1  
    26   14   27 1  
# Name:          frag3-281-3/96164
# Creation time: Sat Jun  5 12:53:25 2010


@<TRIPOS>MOLECULE
frag3-281-3/96164
   27    26     1     1     1
SMALL
USER_CHARGES


@<TRIPOS>ATOM
      1 C4         -4.0571    0.9327    0.7587 C.2        1 <1>        0.000
      2 C6         -2.8151    0.9268    0.0017 C.2        1 <1>        0.000
      3 O3         -4.6555    0.0112    1.2846 O.2        1 <1>        0.000
      4 C8         -2.1404   -0.1913   -0.2784 C.2        1 <1>        0.000
      5 C11        -0.9380   -0.3337   -1.0160 C.2        1 <1>        0.000
      6 C12        -0.0272    0.6083   -1.2957 C.2        1 <1>        0.000
      7 O6          6.7024   -0.4105   -0.5876 O.3        1 <1>        0.000
      8 C13         1.1896    0.4755   -2.0120 C.2        1 <1>        0.000
      9 C14         2.1197   -0.4443   -1.7454 C.2        1 <1>        0.000
     10 C15         2.2330   -1.4863   -0.7579 C.2        1 <1>        0.000
     11 C16         3.3838   -2.0529   -0.3819 C.2        1 <1>        0.000
     12 C18         4.7163   -1.7667   -0.8076 C.2        1 <1>        0.000
     13 C19         5.6453   -0.9699    0.0001 C.2        1 <1>        0.000
     14 C20         5.2346   -2.0775   -2.0065 C.2        1 <1>        0.000
     15 O7          5.4320   -0.7944    1.1940 O.2        1 <1>        0.000
     16 H          -4.5236    1.9112    0.8728 H.spc      1 <1>        0.000
     17 H          -2.4171    1.8776   -0.3529 H.spc      1 <1>        0.000
     18 H          -2.5701   -1.1144    0.1107 H.spc      1 <1>        0.000
     19 H          -0.7291   -1.3312   -1.4027 H.spc      1 <1>        0.000
     20 H          -0.2508    1.6082   -0.9238 H.spc      1 <1>        0.000
     21 H           6.7151   -0.6511   -1.5169 H.spc      1 <1>        0.000
     22 H           1.3773    1.1684   -2.8322 H.spc      1 <1>        0.000
     23 H           2.9757   -0.3964   -2.4186 H.spc      1 <1>        0.000
     24 H           1.3164   -1.8375   -0.2840 H.spc      1 <1>        0.000
     25 H           3.2916   -2.8490    0.3569 H.spc      1 <1>        0.000
     26 H           4.6230   -2.5916   -2.7480 H.spc      1 <1>        0.000
     27 H           6.2670   -1.8157   -2.2384 H.spc      1 <1>        0.000
@<TRIPOS>BOND
     1    1    2 1  
     2   13   15 2  
     3    9   10 1  
     4    2    4 2  
     5   10   11 2  
     6    6    8 1  
     7    1    3 2  
     8    8    9 2  
     9   12   14 2  
    10    4    5 1  
    11    5    6 2  
    12   11   12 1  
    13   12   13 1  
    14   13    7 1  
    15    1   16 1  
    16    2   17 1  
    17    4   18 1  
    18    5   19 1  
    19    6   20 1  
    20    7   21 1  
    21    8   22 1  
    22    9   23 1  
    23   10   24 1  
    24   11   25 1  
    25   14   26 1  
    26   14   27 1  
# Name:          frag3-281-3/96164
# Creation time: Sat Jun  5 12:53:25 2010


@<TRIPOS>MOLECULE
frag3-281-3/96164
   27    26     1     1     1
SMALL
USER_CHARGES


@<TRIPOS>ATOM
      1 C4         -3.5684    0.9800    1.0287 C.2        1 <1>        0.000
      2 C6         -2.5241    0.4520    0.1432 C.2        1 <1>        0.000
      3 O3         -4.1872    0.3335    1.8615 O.2        1 <1>        0.000
      4 C8         -1.8953    1.1458   -0.8200 C.2        1 <1>        0.000
      5 C11        -0.9009    0.6292   -1.7195 C.2        1 <1>        0.000
      6 C12         0.0825   -0.2514   -1.4263 C.2        1 <1>        0.000
      7 O6          6.0510    0.4301   -0.3507 O.3        1 <1>        0.000
      8 C13         1.0695   -0.8278   -2.2958 C.2        1 <1>        0.000
      9 C14         1.9855   -1.7553   -2.0097 C.2        1 <1>        0.000
     10 C15         2.3678   -2.4947   -0.8267 C.2        1 <1>        0.000
     11 C16         3.5876   -2.3703   -0.2746 C.2        1 <1>        0.000
     12 C18         4.7070   -1.5467   -0.6456 C.2        1 <1>        0.000
     13 C19         5.1541   -0.4041    0.1671 C.2        1 <1>        0.000
     14 C20         5.4130   -1.6777   -1.7636 C.2        1 <1>        0.000
     15 O7          4.6810   -0.2158    1.2823 O.2        1 <1>        0.000
     16 H          -3.8130    2.0381    0.9360 H.spc      1 <1>        0.000
     17 H          -2.2345   -0.5901    0.2783 H.spc      1 <1>        0.000
     18 H          -2.1639    2.1965   -0.9292 H.spc      1 <1>        0.000
     19 H          -0.9439    0.9854   -2.7487 H.spc      1 <1>        0.000
     20 H           0.1332   -0.5680   -0.3845 H.spc      1 <1>        0.000
     21 H           6.3047    0.1234   -1.2243 H.spc      1 <1>        0.000
     22 H           1.0707   -0.4603   -3.3220 H.spc      1 <1>        0.000
     23 H           2.5916   -2.0193   -2.8763 H.spc      1 <1>        0.000
     24 H           1.6464   -3.1721   -0.3697 H.spc      1 <1>        0.000
     25 H           3.7563   -2.9984    0.6001 H.spc      1 <1>        0.000
     26 H           5.1570   -2.4568   -2.4817 H.spc      1 <1>        0.000
     27 H           6.2481   -1.0061   -1.9627 H.spc      1 <1>        0.000
@<TRIPOS>BOND
     1    1    2 1  
     2   13   15 2  
     3    9   10 1  
     4    2    4 2  
     5   10   11 2  
     6    6    8 1  
     7    1    3 2  
     8    8    9 2  
     9   12   14 2  
    10    4    5 1  
    11    5    6 2  
    12   11   12 1  
    13   12   13 1  
    14   13    7 1  
    15    1   16 1  
    16    2   17 1  
    17    4   18 1  
    18    5   19 1  
    19    6   20 1  
    20    7   21 1  
    21    8   22 1  
    22    9   23 1  
    23   10   24 1  
    24   11   25 1  
    25   14   26 1  
    26   14   27 1  
# Name:          frag3-281-3/96164
# Creation time: Sat Jun  5 12:53:25 2010


@<TRIPOS>MOLECULE
frag3-281-3/96164
   27    26     1     1     1
SMALL
USER_CHARGES


@<TRIPOS>ATOM
      1 C4         -4.3189   -0.1420    0.2913 C.2        1 <1>        0.000
      2 C6         -2.9874    0.1030   -0.2632 C.2        1 <1>        0.000
      3 O3         -5.3470    0.4574   -0.0040 O.2        1 <1>        0.000
      4 C8         -1.8547   -0.5414    0.0405 C.2        1 <1>        0.000
      5 C11        -0.5585   -0.3070   -0.5061 C.2        1 <1>        0.000
      6 C12        -0.0321    0.8445   -0.9489 C.2        1 <1>        0.000
      7 O6          6.3648   -0.9984    0.4577 O.3        1 <1>        0.000
      8 C13         1.2581    1.1195   -1.4880 C.2        1 <1>        0.000
      9 C14         2.3923    0.6606   -0.9622 C.2        1 <1>        0.000
     10 C15         2.6224   -0.1460    0.2007 C.2        1 <1>        0.000
     11 C16         3.4988   -1.1450    0.2579 C.2        1 <1>        0.000
     12 C18         4.4103   -1.6493   -0.7193 C.2        1 <1>        0.000
     13 C19         5.8784   -1.6164   -0.6220 C.2        1 <1>        0.000
     14 C20         4.0646   -2.1178   -1.9357 C.2        1 <1>        0.000
     15 O7          6.6323   -2.0949   -1.4484 O.2        1 <1>        0.000
     16 H          -4.4051   -0.9320    1.0374 H.spc      1 <1>        0.000
     17 H          -2.9095    0.8977   -1.0052 H.spc      1 <1>        0.000
     18 H          -1.9310   -1.3318    0.7872 H.spc      1 <1>        0.000
     19 H           0.0909   -1.1799   -0.5729 H.spc      1 <1>        0.000
     20 H          -0.6964    1.7064   -0.8865 H.spc      1 <1>        0.000
     21 H           5.6376   -0.6835    0.9996 H.spc      1 <1>        0.000
     22 H           1.3201    1.7407   -2.3815 H.spc      1 <1>        0.000
     23 H           3.2938    0.9449   -1.5050 H.spc      1 <1>        0.000
     24 H           2.0413    0.0738    1.0963 H.spc      1 <1>        0.000
     25 H           3.5260   -1.6681    1.2138 H.spc      1 <1>        0.000
     26 H           3.0172   -2.1305   -2.2374 H.spc      1 <1>        0.000
     27 H           4.8325   -2.4837   -2.6172 H.spc      1 <1>        0.000
@<TRIPOS>BOND
     1    1    2 1  
     2   13   15 2  
     3    9   10 1  
     4    2    4 2  
     5   10   11 2  
     6    6    8 1  
     7    1    3 2  
     8    8    9 2  
     9   12   14 2  
    10    4    5 1  
    11    5    6 2  
    12   11   12 1  
    13   12   13 1  
    14   13    7 1  
    15    1   16 1  
    16    2   17 1  
    17    4   18 1  
    18    5   19 1  
    19    6   20 1  
    20    7   21 1  
    21    8   22 1  
    22    9   23 1  
    23   10   24 1  
    24   11   25 1  
    25   14   26 1  
    26   14   27 1  
# Name:          frag3-281-3/96164
# Creation time: Sat Jun  5 12:53:25 2010


@<TRIPOS>MOLECULE
frag3-281-3/96164
   27    26     1     1     1
SMALL
USER_CHARGES


@<TRIPOS>ATOM
      1 C4         -4.7900    0.9202   -0.1049 C.2        1 <1>        0.000
      2 C6         -3.6204    0.0565   -0.3109 C.2        1 <1>        0.000
      3 O3         -5.9578    0.5813   -0.2146 O.2        1 <1>        0.000
      4 C8         -2.3520    0.4511   -0.1582 C.2        1 <1>        0.000
      5 C11        -1.2203   -0.4252   -0.3456 C.2        1 <1>        0.000
      6 C12         0.0903   -0.2371   -0.1239 C.2        1 <1>        0.000
      7 O6          6.1504   -2.7109   -1.5702 O.3        1 <1>        0.000
      8 C13         1.1404   -1.2038   -0.3222 C.2        1 <1>        0.000
      9 C14         2.4600   -0.9869   -0.2408 C.2        1 <1>        0.000
     10 C15         3.2569    0.1970    0.0621 C.2        1 <1>        0.000
     11 C16         4.5141    0.4004   -0.3954 C.2        1 <1>        0.000
     12 C18         5.2749   -0.5032   -1.2316 C.2        1 <1>        0.000
     13 C19         5.7414   -1.7854   -0.6982 C.2        1 <1>        0.000
     14 C20         5.6131   -0.3220   -2.5035 C.2        1 <1>        0.000
     15 O7          5.7224   -2.0052    0.5084 O.2        1 <1>        0.000
     16 H          -4.5983    1.9572    0.1708 H.spc      1 <1>        0.000
     17 H          -3.7984   -0.9768   -0.6086 H.spc      1 <1>        0.000
     18 H          -2.1629    1.4873    0.1221 H.spc      1 <1>        0.000
     19 H          -1.4740   -1.4112   -0.7348 H.spc      1 <1>        0.000
     20 H           0.3900    0.7447    0.2426 H.spc      1 <1>        0.000
     21 H           6.0945   -2.3568   -2.4607 H.spc      1 <1>        0.000
     22 H           0.8279   -2.2196   -0.5642 H.spc      1 <1>        0.000
     23 H           3.0596   -1.8748   -0.4415 H.spc      1 <1>        0.000
     24 H           2.8125    0.9646    0.6956 H.spc      1 <1>        0.000
     25 H           4.9995    1.3327   -0.1069 H.spc      1 <1>        0.000
     26 H           5.3116    0.5873   -3.0234 H.spc      1 <1>        0.000
     27 H           6.1921   -1.0827   -3.0272 H.spc      1 <1>        0.000
@<TRIPOS>BOND
     1    1    2 1  
     2   13   15 2  
     3    9   10 1  
     4    2    4 2  
     5   10   11 2  
     6    6    8 1  
     7    1    3 2  
     8    8    9 2  
     9   12   14 2  
    10    4    5 1  
    11    5    6 2  
    12   11   12 1  
    13   12   13 1  
    14   13    7 1  
    15    1   16 1  
    16    2   17 1  
    17    4   18 1  
    18    5   19 1  
    19    6   20 1  
    20    7   21 1  
    21    8   22 1  
    22    9   23 1  
    23   10   24 1  
    24   11   25 1  
    25   14   26 1  
    26   14   27 1  
# Name:          frag3-281-3/96164
# Creation time: Sat Jun  5 12:53:25 2010


@<TRIPOS>MOLECULE
frag3-281-3/96164
   27    26     1     1     1
SMALL
USER_CHARGES


@<TRIPOS>ATOM
      1 C4         -3.9474   -0.6021    0.0172 C.2        1 <1>        0.000
      2 C6         -2.5651   -0.2274   -0.2597 C.2        1 <1>        0.000
      3 O3         -4.6296   -1.3425   -0.6768 O.2        1 <1>        0.000
      4 C8         -1.8315    0.6475    0.4380 C.2        1 <1>        0.000
      5 C11        -0.4818    1.0259    0.1808 C.2        1 <1>        0.000
      6 C12         0.1447    1.2031   -0.9931 C.2        1 <1>        0.000
      7 O6          6.2851   -2.0239   -1.7620 O.3        1 <1>        0.000
      8 C13         1.5143    1.5460   -1.2138 C.2        1 <1>        0.000
      9 C14         2.5391    0.9418   -0.5969 C.2        1 <1>        0.000
     10 C15         2.5443   -0.1394    0.3619 C.2        1 <1>        0.000
     11 C16         3.2159   -1.2818    0.1823 C.2        1 <1>        0.000
     12 C18         4.0649   -1.6999   -0.8943 C.2        1 <1>        0.000
     13 C19         5.5046   -1.8785   -0.6980 C.2        1 <1>        0.000
     14 C20         3.6889   -1.8801   -2.1698 C.2        1 <1>        0.000
     15 O7          5.9769   -1.8617    0.4347 O.2        1 <1>        0.000
     16 H          -4.4090   -0.1892    0.9142 H.spc      1 <1>        0.000
     17 H          -2.0853   -0.7044   -1.1143 H.spc      1 <1>        0.000
     18 H          -2.3167    1.1200    1.2920 H.spc      1 <1>        0.000
     19 H           0.1309    1.1962    1.0661 H.spc      1 <1>        0.000
     20 H          -0.4653    1.0692   -1.8864 H.spc      1 <1>        0.000
     21 H           5.7463   -2.0137   -2.5565 H.spc      1 <1>        0.000
     22 H           1.7378    2.3430   -1.9230 H.spc      1 <1>        0.000
     23 H           3.5244    1.3267   -0.8599 H.spc      1 <1>        0.000
     24 H           1.9702   -0.0173    1.2804 H.spc      1 <1>        0.000
     25 H           3.0990   -2.0121    0.9830 H.spc      1 <1>        0.000
     26 H           2.6537   -1.7051   -2.4627 H.spc      1 <1>        0.000
     27 H           4.4187   -2.2015   -2.9129 H.spc      1 <1>        0.000
@<TRIPOS>BOND
     1    1    2 1  
     2   13   15 2  
     3    9   10 1  
     4    2    4 2  
     5   10   11 2  
     6    6    8 1  
     7    1    3 2  
     8    8    9 2  
     9   12   14 2  
    10    4    5 1  
    11    5    6 2  
    12   11   12 1  
    13   12   13 1  
    14   13    7 1  
    15    1   16 1  
    16    2   17 1  
    17    4   18 1  
    18    5   19 1  
    19    6   20 1  
    20    7   21 1  
    21    8   22 1  
    22    9   23 1  
    23   10   24 1  
    24   11   25 1  
    25   14   26 1  
    26   14   27 1  
# Name:          frag3-281-3/96164
# Creation time: Sat Jun  5 12:53:25 2010


@<TRIPOS>MOLECULE
frag3-281-3/96164
   27    26     1     1     1
SMALL
USER_CHARGES


@<TRIPOS>ATOM
      1 C4         -4.4319    0.2391    0.4708 C.2        1 <1>        0.000
      2 C6         -3.1161    0.3623   -0.1494 C.2        1 <1>        0.000
      3 O3         -5.2976    1.1028    0.4804 O.2        1 <1>        0.000
      4 C8         -2.1550   -0.5700   -0.1427 C.2        1 <1>        0.000
      5 C11        -0.8695   -0.4678   -0.7539 C.2        1 <1>        0.000
      6 C12        -0.1011    0.6282   -0.8729 C.2        1 <1>        0.000
      7 O6          6.9705   -1.0307   -1.2767 O.3        1 <1>        0.000
      8 C13         1.1788    0.7549   -1.4834 C.2        1 <1>        0.000
      9 C14         2.2508    0.0374   -1.1334 C.2        1 <1>        0.000
     10 C15         2.4626   -0.9723   -0.1273 C.2        1 <1>        0.000
     11 C16         3.5480   -1.7493   -0.0468 C.2        1 <1>        0.000
     12 C18         4.7255   -1.7690   -0.8516 C.2        1 <1>        0.000
     13 C19         5.9797   -1.1601   -0.4034 C.2        1 <1>        0.000
     14 C20         4.7859   -2.2132   -2.1121 C.2        1 <1>        0.000
     15 O7          6.0927   -0.7655    0.7524 O.2        1 <1>        0.000
     16 H          -4.6624   -0.7032    0.9678 H.spc      1 <1>        0.000
     17 H          -2.8962    1.2975   -0.6643 H.spc      1 <1>        0.000
     18 H          -2.3765   -1.4995    0.3818 H.spc      1 <1>        0.000
     19 H          -0.4627   -1.3877   -1.1740 H.spc      1 <1>        0.000
     20 H          -0.5127    1.5422   -0.4449 H.spc      1 <1>        0.000
     21 H           6.6994   -1.3944   -2.1228 H.spc      1 <1>        0.000
     22 H           1.2916    1.4829   -2.2868 H.spc      1 <1>        0.000
     23 H           3.1389    0.2596   -1.7250 H.spc      1 <1>        0.000
     24 H           1.6828   -1.1127    0.6212 H.spc      1 <1>        0.000
     25 H           3.5301   -2.4821    0.7599 H.spc      1 <1>        0.000
     26 H           3.8891   -2.5976   -2.5980 H.spc      1 <1>        0.000
     27 H           5.7319   -2.1907   -2.6531 H.spc      1 <1>        0.000
@<TRIPOS>BOND
     1    1    2 1  
     2   13   15 2  
     3    9   10 1  
     4    2    4 2  
     5   10   11 2  
     6    6    8 1  
     7    1    3 2  
     8    8    9 2  
     9   12   14 2  
    10    4    5 1  
    11    5    6 2  
    12   11   12 1  
    13   12   13 1  
    14   13    7 1  
    15    1   16 1  
    16    2   17 1  
    17    4   18 1  
    18    5   19 1  
    19    6   20 1  
    20    7   21 1  
    21    8   22 1  
    22    9   23 1  
    23   10   24 1  
    24   11   25 1  
    25   14   26 1  
    26   14   27 1  
# Name:          frag3-281-3/96164
# Creation time: Sat Jun  5 12:53:25 2010


@<TRIPOS>MOLECULE
frag3-281-3/96164
   27    26     1     1     1
SMALL
USER_CHARGES


@<TRIPOS>ATOM
      1 C4         -4.0641   -0.1566   -1.0925 C.2        1 <1>        0.000
      2 C6         -2.7935    0.5599   -1.1188 C.2        1 <1>        0.000
      3 O3         -4.3766   -1.1790   -0.5078 O.2        1 <1>        0.000
      4 C8         -1.7014    0.1116   -0.4906 C.2        1 <1>        0.000
      5 C11        -0.4192    0.7280   -0.4430 C.2        1 <1>        0.000
      6 C12         0.7295    0.4134    0.1570 C.2        1 <1>        0.000
      7 O6          4.8299   -1.3988   -2.7819 O.3        1 <1>        0.000
      8 C13         1.9697    1.1353    0.1499 C.2        1 <1>        0.000
      9 C14         3.1353    0.7701    0.6963 C.2        1 <1>        0.000
     10 C15         3.4665   -0.4371    1.4059 C.2        1 <1>        0.000
     11 C16         3.7375   -1.5995    0.7840 C.2        1 <1>        0.000
     12 C18         3.8070   -1.8564   -0.6398 C.2        1 <1>        0.000
     13 C19         4.9103   -1.3319   -1.4578 C.2        1 <1>        0.000
     14 C20         2.9039   -2.5022   -1.3976 C.2        1 <1>        0.000
     15 O7          5.8887   -0.8300   -0.9130 O.2        1 <1>        0.000
     16 H          -4.8579    0.2929   -1.6891 H.spc      1 <1>        0.000
     17 H          -2.7320    1.4971   -1.6720 H.spc      1 <1>        0.000
     18 H          -1.8047   -0.8319    0.0453 H.spc      1 <1>        0.000
     19 H          -0.3648    1.6522   -1.0184 H.spc      1 <1>        0.000
     20 H           0.7259   -0.5148    0.7284 H.spc      1 <1>        0.000
     21 H           4.0031   -1.8187   -3.0304 H.spc      1 <1>        0.000
     22 H           1.9612    2.0973   -0.3625 H.spc      1 <1>        0.000
     23 H           3.9483    1.4881    0.5887 H.spc      1 <1>        0.000
     24 H           3.4994   -0.4089    2.4950 H.spc      1 <1>        0.000
     25 H           3.9285   -2.4543    1.4328 H.spc      1 <1>        0.000
     26 H           1.9962   -2.8998   -0.9437 H.spc      1 <1>        0.000
     27 H           3.0793   -2.6282   -2.4660 H.spc      1 <1>        0.000
@<TRIPOS>BOND
     1    1    2 1  
     2   13   15 2  
     3    9   10 1  
     4    2    4 2  
     5   10   11 2  
     6    6    8 1  
     7    1    3 2  
     8    8    9 2  
     9   12   14 2  
    10    4    5 1  
    11    5    6 2  
    12   11   12 1  
    13   12   13 1  
    14   13    7 1  
    15    1   16 1  
    16    2   17 1  
    17    4   18 1  
    18    5   19 1  
    19    6   20 1  
    20    7   21 1  
    21    8   22 1  
    22    9   23 1  
    23   10   24 1  
    24   11   25 1  
    25   14   26 1  
    26   14   27 1  
# Name:          frag3-281-3/96164
# Creation time: Sat Jun  5 12:53:25 2010


@<TRIPOS>MOLECULE
frag3-281-3/96164
   27    26     1     1     1
SMALL
USER_CHARGES


@<TRIPOS>ATOM
      1 C4         -3.8909   -0.4838   -1.0141 C.2        1 <1>        0.000
      2 C6         -2.5760    0.1487   -1.0689 C.2        1 <1>        0.000
      3 O3         -4.3938   -1.0963   -0.0879 O.2        1 <1>        0.000
      4 C8         -1.6915    0.0705   -0.0625 C.2        1 <1>        0.000
      5 C11        -0.3892    0.6550   -0.0025 C.2        1 <1>        0.000
      6 C12         0.6317    0.5737    0.8665 C.2        1 <1>        0.000
      7 O6          5.8077   -1.3194   -1.9902 O.3        1 <1>        0.000
      8 C13         1.9033    1.2288    0.7260 C.2        1 <1>        0.000
      9 C14         2.6982    1.1372   -0.3498 C.2        1 <1>        0.000
     10 C15         2.5221    0.3688   -1.5443 C.2        1 <1>        0.000
     11 C16         3.0097   -0.8651   -1.7104 C.2        1 <1>        0.000
     12 C18         3.8129   -1.6494   -0.8185 C.2        1 <1>        0.000
     13 C19         5.2732   -1.7869   -0.8616 C.2        1 <1>        0.000
     14 C20         3.3298   -2.2987    0.2486 C.2        1 <1>        0.000
     15 O7          5.9759   -2.2564    0.0198 O.2        1 <1>        0.000
     16 H          -4.4992   -0.3974   -1.9145 H.spc      1 <1>        0.000
     17 H          -2.3015    0.7072   -1.9638 H.spc      1 <1>        0.000
     18 H          -2.0025   -0.5051    0.8093 H.spc      1 <1>        0.000
     19 H          -0.1778    1.3107   -0.8472 H.spc      1 <1>        0.000
     20 H           0.4832   -0.0415    1.7539 H.spc      1 <1>        0.000
     21 H           5.1095   -0.9922   -2.5621 H.spc      1 <1>        0.000
     22 H           2.2470    1.8461    1.5560 H.spc      1 <1>        0.000
     23 H           3.6096    1.7337   -0.3088 H.spc      1 <1>        0.000
     24 H           1.9591    0.8143   -2.3644 H.spc      1 <1>        0.000
     25 H           2.7613   -1.3424   -2.6583 H.spc      1 <1>        0.000
     26 H           2.2662   -2.2486    0.4815 H.spc      1 <1>        0.000
     27 H           4.0003   -2.8772    0.8841 H.spc      1 <1>        0.000
@<TRIPOS>BOND
     1    1    2 1  
     2   13   15 2  
     3    9   10 1  
     4    2    4 2  
     5   10   11 2  
     6    6    8 1  
     7    1    3 2  
     8    8    9 2  
     9   12   14 2  
    10    4    5 1  
    11    5    6 2  
    12   11   12 1  
    13   12   13 1  
    14   13    7 1  
    15    1   16 1  
    16    2   17 1  
    17    4   18 1  
    18    5   19 1  
    19    6   20 1  
    20    7   21 1  
    21    8   22 1  
    22    9   23 1  
    23   10   24 1  
    24   11   25 1  
    25   14   26 1  
    26   14   27 1  
# Name:          frag3-281-3/96164
# Creation time: Sat Jun  5 12:53:25 2010


@<TRIPOS>MOLECULE
frag3-281-3/96164
   27    26     1     1     1
SMALL
USER_CHARGES


@<TRIPOS>ATOM
      1 C4         -4.2755   -0.5346    0.2351 C.2        1 <1>        0.000
      2 C6         -2.8444   -0.3387    0.4499 C.2        1 <1>        0.000
      3 O3         -4.9984   -0.1965   -0.6887 O.2        1 <1>        0.000
      4 C8         -2.0992    0.3703   -0.4029 C.2        1 <1>        0.000
      5 C11        -0.7025    0.6485   -0.3038 C.2        1 <1>        0.000
      6 C12         0.1606    1.3168   -1.0744 C.2        1 <1>        0.000
      7 O6          6.8072   -1.3531   -1.1447 O.3        1 <1>        0.000
      8 C13         1.5621    1.4709   -0.8371 C.2        1 <1>        0.000
      9 C14         2.4021    0.4667   -0.5561 C.2        1 <1>        0.000
     10 C15         2.2399   -0.9621   -0.4178 C.2        1 <1>        0.000
     11 C16         3.2224   -1.8436   -0.2044 C.2        1 <1>        0.000
     12 C18         4.6320   -1.5979   -0.1015 C.2        1 <1>        0.000
     13 C19         5.5249   -1.7280   -1.2555 C.2        1 <1>        0.000
     14 C20         5.2840   -1.1266    0.9720 C.2        1 <1>        0.000
     15 O7          5.1083   -2.1653   -2.3197 O.2        1 <1>        0.000
     16 H          -4.7840   -1.0736    1.0345 H.spc      1 <1>        0.000
     17 H          -2.3727   -0.7816    1.3271 H.spc      1 <1>        0.000
     18 H          -2.6149    0.7819   -1.2705 H.spc      1 <1>        0.000
     19 H          -0.2428    0.2263    0.5898 H.spc      1 <1>        0.000
     20 H          -0.2424    1.7899   -1.9699 H.spc      1 <1>        0.000
     21 H           6.9709   -1.0361   -0.2534 H.spc      1 <1>        0.000
     22 H           1.9764    2.4778   -0.8886 H.spc      1 <1>        0.000
     23 H           3.4282    0.7984   -0.3978 H.spc      1 <1>        0.000
     24 H           1.2267   -1.3566   -0.4942 H.spc      1 <1>        0.000
     25 H           2.9123   -2.8828   -0.0945 H.spc      1 <1>        0.000
     26 H           4.7344   -0.8907    1.8833 H.spc      1 <1>        0.000
     27 H           6.3633   -0.9795    0.9330 H.spc      1 <1>        0.000
@<TRIPOS>BOND
     1    1    2 1  
     2   13   15 2  
     3    9   10 1  
     4    2    4 2  
     5   10   11 2  
     6    6    8 1  
     7    1    3 2  
     8    8    9 2  
     9   12   14 2  
    10    4    5 1  
    11    5    6 2  
    12   11   12 1  
    13   12   13 1  
    14   13    7 1  
    15    1   16 1  
    16    2   17 1  
    17    4   18 1  
    18    5   19 1  
    19    6   20 1  
    20    7   21 1  
    21    8   22 1  
    22    9   23 1  
    23   10   24 1  
    24   11   25 1  
    25   14   26 1  
    26   14   27 1  
# Name:          frag3-281-3/96164
# Creation time: Sat Jun  5 12:53:25 2010


@<TRIPOS>MOLECULE
frag3-281-3/96164
   27    26     1     1     1
SMALL
USER_CHARGES


@<TRIPOS>ATOM
      1 C4         -4.0836    0.3358    0.6777 C.2        1 <1>        0.000
      2 C6         -2.7009    0.4110    0.2046 C.2        1 <1>        0.000
      3 O3         -4.4784   -0.3238    1.6288 O.2        1 <1>        0.000
      4 C8         -2.2656    1.1012   -0.8589 C.2        1 <1>        0.000
      5 C11        -0.9297    1.2096   -1.3506 C.2        1 <1>        0.000
      6 C12         0.0603    0.3181   -1.2161 C.2        1 <1>        0.000
      7 O6          6.1845   -0.0363   -0.5646 O.3        1 <1>        0.000
      8 C13         1.4146    0.3553   -1.6502 C.2        1 <1>        0.000
      9 C14         2.3386   -0.5995   -1.5505 C.2        1 <1>        0.000
     10 C15         2.4037   -1.9461   -1.0401 C.2        1 <1>        0.000
     11 C16         3.5308   -2.5912   -0.6929 C.2        1 <1>        0.000
     12 C18         4.8595   -2.0560   -0.7247 C.2        1 <1>        0.000
     13 C19         5.2080   -0.7861   -0.0588 C.2        1 <1>        0.000
     14 C20         5.9151   -2.5624   -1.3663 C.2        1 <1>        0.000
     15 O7          4.5664   -0.4029    0.9129 O.2        1 <1>        0.000
     16 H          -4.8271    0.9191    0.1345 H.spc      1 <1>        0.000
     17 H          -1.9546   -0.1468    0.7703 H.spc      1 <1>        0.000
     18 H          -3.0258    1.6473   -1.4175 H.spc      1 <1>        0.000
     19 H          -0.6883    2.1212   -1.8973 H.spc      1 <1>        0.000
     20 H          -0.2190   -0.5909   -0.6833 H.spc      1 <1>        0.000
     21 H           6.5761   -0.4873   -1.3162 H.spc      1 <1>        0.000
     22 H           1.7372    1.2822   -2.1244 H.spc      1 <1>        0.000
     23 H           3.2953   -0.2785   -1.9626 H.spc      1 <1>        0.000
     24 H           1.4629   -2.4848   -0.9265 H.spc      1 <1>        0.000
     25 H           3.4235   -3.6217   -0.3542 H.spc      1 <1>        0.000
     26 H           5.8125   -3.4809   -1.9442 H.spc      1 <1>        0.000
     27 H           6.8795   -2.0574   -1.3123 H.spc      1 <1>        0.000
@<TRIPOS>BOND
     1    1    2 1  
     2   13   15 2  
     3    9   10 1  
     4    2    4 2  
     5   10   11 2  
     6    6    8 1  
     7    1    3 2  
     8    8    9 2  
     9   12   14 2  
    10    4    5 1  
    11    5    6 2  
    12   11   12 1  
    13   12   13 1  
    14   13    7 1  
    15    1   16 1  
    16    2   17 1  
    17    4   18 1  
    18    5   19 1  
    19    6   20 1  
    20    7   21 1  
    21    8   22 1  
    22    9   23 1  
    23   10   24 1  
    24   11   25 1  
    25   14   26 1  
    26   14   27 1  
# Name:          frag3-281-3/96164
# Creation time: Sat Jun  5 12:53:25 2010


@<TRIPOS>MOLECULE
frag3-281-3/96164
   27    26     1     1     1
SMALL
USER_CHARGES


@<TRIPOS>ATOM
      1 C4         -4.2815   -0.1105   -0.0139 C.2        1 <1>        0.000
      2 C6         -2.8787    0.0604   -0.3892 C.2        1 <1>        0.000
      3 O3         -4.8258   -1.1725    0.2613 O.2        1 <1>        0.000
      4 C8         -2.2623    1.2205   -0.6565 C.2        1 <1>        0.000
      5 C11        -0.8993    1.4083   -1.0253 C.2        1 <1>        0.000
      6 C12         0.1904    0.8633   -0.4787 C.2        1 <1>        0.000
      7 O6          5.8428   -0.3270   -0.0635 O.3        1 <1>        0.000
      8 C13         1.5642    0.9825   -0.8296 C.2        1 <1>        0.000
      9 C14         2.5873    0.2614   -0.3820 C.2        1 <1>        0.000
     10 C15         2.6958   -0.8200    0.5527 C.2        1 <1>        0.000
     11 C16         3.5026   -1.8805    0.4105 C.2        1 <1>        0.000
     12 C18         4.4313   -2.1467   -0.6446 C.2        1 <1>        0.000
     13 C19         5.6387   -1.3288   -0.9270 C.2        1 <1>        0.000
     14 C20         4.3068   -3.0745   -1.6148 C.2        1 <1>        0.000
     15 O7          6.4109   -1.5091   -1.8491 O.2        1 <1>        0.000
     16 H          -4.8979    0.7876    0.0244 H.spc      1 <1>        0.000
     17 H          -2.2748   -0.8443   -0.4584 H.spc      1 <1>        0.000
     18 H          -2.8724    2.1208   -0.5834 H.spc      1 <1>        0.000
     19 H          -0.7230    2.0843   -1.8619 H.spc      1 <1>        0.000
     20 H          -0.0051    0.2199    0.3792 H.spc      1 <1>        0.000
     21 H           5.1456   -0.3278    0.5964 H.spc      1 <1>        0.000
     22 H           1.8073    1.7600   -1.5538 H.spc      1 <1>        0.000
     23 H           3.5434    0.5534   -0.8164 H.spc      1 <1>        0.000
     24 H           2.0747   -0.7764    1.4474 H.spc      1 <1>        0.000
     25 H           3.4440   -2.6337    1.1962 H.spc      1 <1>        0.000
     26 H           3.4261   -3.7160   -1.6456 H.spc      1 <1>        0.000
     27 H           5.0868   -3.1831   -2.3684 H.spc      1 <1>        0.000
@<TRIPOS>BOND
     1    1    2 1  
     2   13   15 2  
     3    9   10 1  
     4    2    4 2  
     5   10   11 2  
     6    6    8 1  
     7    1    3 2  
     8    8    9 2  
     9   12   14 2  
    10    4    5 1  
    11    5    6 2  
    12   11   12 1  
    13   12   13 1  
    14   13    7 1  
    15    1   16 1  
    16    2   17 1  
    17    4   18 1  
    18    5   19 1  
    19    6   20 1  
    20    7   21 1  
    21    8   22 1  
    22    9   23 1  
    23   10   24 1  
    24   11   25 1  
    25   14   26 1  
    26   14   27 1  
# Name:          frag3-281-3/96164
# Creation time: Sat Jun  5 12:53:25 2010


@<TRIPOS>MOLECULE
frag3-281-3/96164
   27    26     1     1     1
SMALL
USER_CHARGES


@<TRIPOS>ATOM
      1 C4         -3.3483   -1.1185   -0.4156 C.2        1 <1>        0.000
      2 C6         -2.1166   -0.3522   -0.5801 C.2        1 <1>        0.000
      3 O3         -4.1498   -1.3875   -1.2990 O.2        1 <1>        0.000
      4 C8         -1.2442   -0.0456    0.3841 C.2        1 <1>        0.000
      5 C11        -0.0395    0.7087    0.3067 C.2        1 <1>        0.000
      6 C12         0.7194    1.0121   -0.7519 C.2        1 <1>        0.000
      7 O6          2.6362   -2.8541   -0.6087 O.3        1 <1>        0.000
      8 C13         1.9094    1.7841   -0.8605 C.2        1 <1>        0.000
      9 C14         3.0160    1.6267   -0.1320 C.2        1 <1>        0.000
     10 C15         3.3259    0.6842    0.8934 C.2        1 <1>        0.000
     11 C16         3.8616   -0.5161    0.6547 C.2        1 <1>        0.000
     12 C18         4.2728   -1.1493   -0.5615 C.2        1 <1>        0.000
     13 C19         3.7520   -2.3896   -1.1736 C.2        1 <1>        0.000
     14 C20         5.1833   -0.5972   -1.3810 C.2        1 <1>        0.000
     15 O7          4.2451   -2.9789   -2.1246 O.2        1 <1>        0.000
     16 H          -3.5740   -1.4842    0.5861 H.spc      1 <1>        0.000
     17 H          -1.8871    0.0034   -1.5846 H.spc      1 <1>        0.000
     18 H          -1.4908   -0.4289    1.3743 H.spc      1 <1>        0.000
     19 H           0.3205    1.0999    1.2583 H.spc      1 <1>        0.000
     20 H           0.3647    0.5958   -1.6948 H.spc      1 <1>        0.000
     21 H           2.3840   -2.2801    0.1183 H.spc      1 <1>        0.000
     22 H           1.9179    2.5775   -1.6079 H.spc      1 <1>        0.000
     23 H           3.8142    2.3341   -0.3571 H.spc      1 <1>        0.000
     24 H           3.1142    0.9582    1.9269 H.spc      1 <1>        0.000
     25 H           4.0129   -1.1230    1.5474 H.spc      1 <1>        0.000
     26 H           5.6335    0.3626   -1.1277 H.spc      1 <1>        0.000
     27 H           5.4717   -1.1092   -2.2991 H.spc      1 <1>        0.000
@<TRIPOS>BOND
     1    1    2 1  
     2   13   15 2  
     3    9   10 1  
     4    2    4 2  
     5   10   11 2  
     6    6    8 1  
     7    1    3 2  
     8    8    9 2  
     9   12   14 2  
    10    4    5 1  
    11    5    6 2  
    12   11   12 1  
    13   12   13 1  
    14   13    7 1  
    15    1   16 1  
    16    2   17 1  
    17    4   18 1  
    18    5   19 1  
    19    6   20 1  
    20    7   21 1  
    21    8   22 1  
    22    9   23 1  
    23   10   24 1  
    24   11   25 1  
    25   14   26 1  
    26   14   27 1  
# Name:          frag3-281-3/96164
# Creation time: Sat Jun  5 12:53:25 2010


@<TRIPOS>MOLECULE
frag3-281-3/96164
   27    26     1     1     1
SMALL
USER_CHARGES


@<TRIPOS>ATOM
      1 C4         -4.2749    0.0494   -0.8917 C.2        1 <1>        0.000
      2 C6         -3.0383   -0.2069   -0.1565 C.2        1 <1>        0.000
      3 O3         -5.3988   -0.2792   -0.5418 O.2        1 <1>        0.000
      4 C8         -1.8078    0.1637   -0.5327 C.2        1 <1>        0.000
      5 C11        -0.6057   -0.0688    0.2082 C.2        1 <1>        0.000
      6 C12         0.6743    0.2298    0.0034 C.2        1 <1>        0.000
      7 O6          4.7739   -3.1971   -0.6728 O.3        1 <1>        0.000
      8 C13         1.8031   -0.0367    0.8530 C.2        1 <1>        0.000
      9 C14         3.0724    0.3280    0.6676 C.2        1 <1>        0.000
     10 C15         3.6939    1.0477   -0.4246 C.2        1 <1>        0.000
     11 C16         4.2564    0.4185   -1.4791 C.2        1 <1>        0.000
     12 C18         4.3751   -1.0167   -1.6669 C.2        1 <1>        0.000
     13 C19         4.9502   -1.8818   -0.6149 C.2        1 <1>        0.000
     14 C20         3.9829   -1.7357   -2.7239 C.2        1 <1>        0.000
     15 O7          5.5665   -1.3874    0.3229 O.2        1 <1>        0.000
     16 H          -4.1869    0.5822   -1.8385 H.spc      1 <1>        0.000
     17 H          -3.1256   -0.7497    0.7847 H.spc      1 <1>        0.000
     18 H          -1.7137    0.6870   -1.4842 H.spc      1 <1>        0.000
     19 H          -0.7755   -0.6063    1.1412 H.spc      1 <1>        0.000
     20 H           0.8966    0.7442   -0.9315 H.spc      1 <1>        0.000
     21 H           4.2756   -3.4175   -1.4632 H.spc      1 <1>        0.000
     22 H           1.5962   -0.6062    1.7591 H.spc      1 <1>        0.000
     23 H           3.7525    0.0371    1.4682 H.spc      1 <1>        0.000
     24 H           3.7083    2.1372   -0.3946 H.spc      1 <1>        0.000
     25 H           4.6620    1.0514   -2.2684 H.spc      1 <1>        0.000
     26 H           3.5128   -1.2423   -3.5746 H.spc      1 <1>        0.000
     27 H           4.1333   -2.8152   -2.7349 H.spc      1 <1>        0.000
@<TRIPOS>BOND
     1    1    2 1  
     2   13   15 2  
     3    9   10 1  
     4    2    4 2  
     5   10   11 2  
     6    6    8 1  
     7    1    3 2  
     8    8    9 2  
     9   12   14 2  
    10    4    5 1  
    11    5    6 2  
    12   11   12 1  
    13   12   13 1  
    14   13    7 1  
    15    1   16 1  
    16    2   17 1  
    17    4   18 1  
    18    5   19 1  
    19    6   20 1  
    20    7   21 1  
    21    8   22 1  
    22    9   23 1  
    23   10   24 1  
    24   11   25 1  
    25   14   26 1  
    26   14   27 1  
# Name:          frag3-281-3/96164
# Creation time: Sat Jun  5 12:53:25 2010


@<TRIPOS>MOLECULE
frag3-281-3/96164
   27    26     1     1     1
SMALL
USER_CHARGES


@<TRIPOS>ATOM
      1 C4         -3.8317   -0.8158   -0.4234 C.2        1 <1>        0.000
      2 C6         -2.6139   -0.0698   -0.7340 C.2        1 <1>        0.000
      3 O3         -4.9276   -0.6458   -0.9398 O.2        1 <1>        0.000
      4 C8         -1.4150   -0.2199   -0.1557 C.2        1 <1>        0.000
      5 C11        -0.2362    0.5205   -0.4685 C.2        1 <1>        0.000
      6 C12         1.0084    0.5388    0.0155 C.2        1 <1>        0.000
      7 O6          2.4720   -2.2755   -0.4555 O.3        1 <1>        0.000
      8 C13         2.1263    1.3495   -0.3709 C.2        1 <1>        0.000
      9 C14         3.3918    1.3073    0.0540 C.2        1 <1>        0.000
     10 C15         4.0826    0.4680    0.9910 C.2        1 <1>        0.000
     11 C16         4.6466   -0.7018    0.6585 C.2        1 <1>        0.000
     12 C18         4.6637   -1.3409   -0.6268 C.2        1 <1>        0.000
     13 C19         3.5076   -2.0159   -1.2599 C.2        1 <1>        0.000
     14 C20         5.6881   -1.3340   -1.4981 C.2        1 <1>        0.000
     15 O7          3.4605   -2.3382   -2.4361 O.2        1 <1>        0.000
     16 H          -3.7568   -1.5935    0.3366 H.spc      1 <1>        0.000
     17 H          -2.6889    0.6858   -1.5160 H.spc      1 <1>        0.000
     18 H          -1.3325   -0.9764    0.6247 H.spc      1 <1>        0.000
     19 H          -0.3844    1.2287   -1.2838 H.spc      1 <1>        0.000
     20 H           1.2032   -0.1665    0.8234 H.spc      1 <1>        0.000
     21 H           2.6689   -1.9604    0.4297 H.spc      1 <1>        0.000
     22 H           1.9120    2.1112   -1.1206 H.spc      1 <1>        0.000
     23 H           4.0292    2.0638   -0.4038 H.spc      1 <1>        0.000
     24 H           4.1523    0.7990    2.0272 H.spc      1 <1>        0.000
     25 H           5.1548   -1.2331    1.4632 H.spc      1 <1>        0.000
     26 H           6.6105   -0.8087   -1.2506 H.spc      1 <1>        0.000
     27 H           5.5960   -1.8538   -2.4518 H.spc      1 <1>        0.000
@<TRIPOS>BOND
     1    1    2 1  
     2   13   15 2  
     3    9   10 1  
     4    2    4 2  
     5   10   11 2  
     6    6    8 1  
     7    1    3 2  
     8    8    9 2  
     9   12   14 2  
    10    4    5 1  
    11    5    6 2  
    12   11   12 1  
    13   12   13 1  
    14   13    7 1  
    15    1   16 1  
    16    2   17 1  
    17    4   18 1  
    18    5   19 1  
    19    6   20 1  
    20    7   21 1  
    21    8   22 1  
    22    9   23 1  
    23   10   24 1  
    24   11   25 1  
    25   14   26 1  
    26   14   27 1  
# Name:          frag3-281-3/96164
# Creation time: Sat Jun  5 12:53:25 2010


@<TRIPOS>MOLECULE
frag3-281-3/96164
   27    26     1     1     1
SMALL
USER_CHARGES


@<TRIPOS>ATOM
      1 C4         -3.4772   -0.9096   -0.8363 C.2        1 <1>        0.000
      2 C6         -2.2437   -0.3300   -0.2973 C.2        1 <1>        0.000
      3 O3         -4.3869   -1.3974   -0.1826 O.2        1 <1>        0.000
      4 C8         -1.2455    0.1731   -1.0407 C.2        1 <1>        0.000
      5 C11        -0.0466    0.7607   -0.5199 C.2        1 <1>        0.000
      6 C12         1.0553    1.2935   -1.0688 C.2        1 <1>        0.000
      7 O6          2.7711   -2.5860   -1.6311 O.3        1 <1>        0.000
      8 C13         2.1777    1.8354   -0.3348 C.2        1 <1>        0.000
      9 C14         2.8512    1.2501    0.6692 C.2        1 <1>        0.000
     10 C15         2.7033   -0.0449    1.2755 C.2        1 <1>        0.000
     11 C16         3.3392   -1.1324    0.8141 C.2        1 <1>        0.000
     12 C18         4.2391   -1.3152   -0.2845 C.2        1 <1>        0.000
     13 C19         4.0120   -2.1070   -1.4986 C.2        1 <1>        0.000
     14 C20         5.3948   -0.6652   -0.3981 C.2        1 <1>        0.000
     15 O7          4.8794   -2.3982   -2.3160 O.2        1 <1>        0.000
     16 H          -3.5937   -0.9051   -1.9200 H.spc      1 <1>        0.000
     17 H          -2.1284   -0.3057    0.7863 H.spc      1 <1>        0.000
     18 H          -1.3554    0.1315   -2.1243 H.spc      1 <1>        0.000
     19 H          -0.0253    0.7788    0.5697 H.spc      1 <1>        0.000
     20 H           1.1093    1.3203   -2.1571 H.spc      1 <1>        0.000
     21 H           2.2254   -2.2613   -0.9111 H.spc      1 <1>        0.000
     22 H           2.5145    2.8294   -0.6292 H.spc      1 <1>        0.000
     23 H           3.6456    1.8615    1.0973 H.spc      1 <1>        0.000
     24 H           2.0503   -0.1471    2.1422 H.spc      1 <1>        0.000
     25 H           3.1334   -2.0422    1.3781 H.spc      1 <1>        0.000
     26 H           5.6967    0.0480    0.3690 H.spc      1 <1>        0.000
     27 H           6.0395   -0.8460   -1.2582 H.spc      1 <1>        0.000
@<TRIPOS>BOND
     1    1    2 1  
     2   13   15 2  
     3    9   10 1  
     4    2    4 2  
     5   10   11 2  
     6    6    8 1  
     7    1    3 2  
     8    8    9 2  
     9   12   14 2  
    10    4    5 1  
    11    5    6 2  
    12   11   12 1  
    13   12   13 1  
    14   13    7 1  
    15    1   16 1  
    16    2   17 1  
    17    4   18 1  
    18    5   19 1  
    19    6   20 1  
    20    7   21 1  
    21    8   22 1  
    22    9   23 1  
    23   10   24 1  
    24   11   25 1  
    25   14   26 1  
    26   14   27 1  
# Name:          frag3-281-3/96164
# Creation time: Sat Jun  5 12:53:25 2010


@<TRIPOS>MOLECULE
frag3-281-3/96164
   27    26     1     1     1
SMALL
USER_CHARGES


@<TRIPOS>ATOM
      1 C4         -3.9396    0.5527    1.1736 C.2        1 <1>        0.000
      2 C6         -2.5478    0.6915    0.7727 C.2        1 <1>        0.000
      3 O3         -4.8571   -0.0279    0.6192 O.2        1 <1>        0.000
      4 C8         -2.1000    0.2266   -0.3971 C.2        1 <1>        0.000
      5 C11        -0.7831    0.3236   -0.9097 C.2        1 <1>        0.000
      6 C12        -0.2449    0.1373   -2.1186 C.2        1 <1>        0.000
      7 O6          5.7271    0.2408    0.0085 O.3        1 <1>        0.000
      8 C13         1.1370    0.2746   -2.4496 C.2        1 <1>        0.000
      9 C14         2.1391   -0.3135   -1.7879 C.2        1 <1>        0.000
     10 C15         2.1875   -1.2029   -0.6566 C.2        1 <1>        0.000
     11 C16         3.2907   -1.7935   -0.1916 C.2        1 <1>        0.000
     12 C18         4.6399   -1.7214   -0.6486 C.2        1 <1>        0.000
     13 C19         5.7283   -1.0899    0.0644 C.2        1 <1>        0.000
     14 C20         5.1128   -2.1279   -1.8353 C.2        1 <1>        0.000
     15 O7          6.5333   -1.7431    0.7071 O.2        1 <1>        0.000
     16 H          -4.2016    1.0419    2.1117 H.spc      1 <1>        0.000
     17 H          -1.8502    1.1892    1.4463 H.spc      1 <1>        0.000
     18 H          -2.8288   -0.2839   -1.0267 H.spc      1 <1>        0.000
     19 H          -0.0510    0.6124   -0.1556 H.spc      1 <1>        0.000
     20 H          -0.9221   -0.1450   -2.9247 H.spc      1 <1>        0.000
     21 H           5.0074    0.5357   -0.5542 H.spc      1 <1>        0.000
     22 H           1.3934    0.9034   -3.3022 H.spc      1 <1>        0.000
     23 H           3.1232   -0.0690   -2.1877 H.spc      1 <1>        0.000
     24 H           1.2505   -1.4101   -0.1397 H.spc      1 <1>        0.000
     25 H           3.1355   -2.4337    0.6768 H.spc      1 <1>        0.000
     26 H           4.4378   -2.5687   -2.5689 H.spc      1 <1>        0.000
     27 H           6.1723   -2.0176   -2.0666 H.spc      1 <1>        0.000
@<TRIPOS>BOND
     1    1    2 1  
     2   13   15 2  
     3    9   10 1  
     4    2    4 2  
     5   10   11 2  
     6    6    8 1  
     7    1    3 2  
     8    8    9 2  
     9   12   14 2  
    10    4    5 1  
    11    5    6 2  
    12   11   12 1  
    13   12   13 1  
    14   13    7 1  
    15    1   16 1  
    16    2   17 1  
    17    4   18 1  
    18    5   19 1  
    19    6   20 1  
    20    7   21 1  
    21    8   22 1  
    22    9   23 1  
    23   10   24 1  
    24   11   25 1  
    25   14   26 1  
    26   14   27 1  
# Name:          frag3-281-3/96164
# Creation time: Sat Jun  5 12:53:25 2010


@<TRIPOS>MOLECULE
frag3-281-3/96164
   27    26     1     1     1
SMALL
USER_CHARGES


@<TRIPOS>ATOM
      1 C4         -3.5168   -0.9847   -0.4050 C.2        1 <1>        0.000
      2 C6         -2.2364   -0.3189   -0.6203 C.2        1 <1>        0.000
      3 O3         -4.6202   -0.4929   -0.6216 O.2        1 <1>        0.000
      4 C8         -1.0255   -0.7734   -0.2741 C.2        1 <1>        0.000
      5 C11         0.2284   -0.1249   -0.4799 C.2        1 <1>        0.000
      6 C12         0.5170    1.1848   -0.4307 C.2        1 <1>        0.000
      7 O6          2.9707   -2.9962   -0.5780 O.3        1 <1>        0.000
      8 C13         1.7531    1.8680   -0.6213 C.2        1 <1>        0.000
      9 C14         2.8970    1.5782    0.0017 C.2        1 <1>        0.000
     10 C15         3.2309    0.5910    0.9868 C.2        1 <1>        0.000
     11 C16         3.8779   -0.5458    0.7056 C.2        1 <1>        0.000
     12 C18         4.3739   -1.0752   -0.5262 C.2        1 <1>        0.000
     13 C19         3.9319   -2.3113   -1.2065 C.2        1 <1>        0.000
     14 C20         5.2730   -0.4543   -1.3130 C.2        1 <1>        0.000
     15 O7          4.3683   -2.7177   -2.2671 O.2        1 <1>        0.000
     16 H          -3.4912   -2.0040   -0.0196 H.spc      1 <1>        0.000
     17 H          -2.2692    0.6515   -1.1156 H.spc      1 <1>        0.000
     18 H          -0.9944   -1.7451    0.2188 H.spc      1 <1>        0.000
     19 H           1.0666   -0.7831   -0.7083 H.spc      1 <1>        0.000
     20 H          -0.3322    1.8312   -0.2089 H.spc      1 <1>        0.000
     21 H           2.7396   -2.5459    0.2377 H.spc      1 <1>        0.000
     22 H           1.7651    2.6935   -1.3330 H.spc      1 <1>        0.000
     23 H           3.7345    2.2103   -0.2935 H.spc      1 <1>        0.000
     24 H           2.9418    0.7770    2.0212 H.spc      1 <1>        0.000
     25 H           4.0594   -1.1828    1.5713 H.spc      1 <1>        0.000
     26 H           5.6712    0.5181   -1.0233 H.spc      1 <1>        0.000
     27 H           5.6027   -0.9241   -2.2397 H.spc      1 <1>        0.000
@<TRIPOS>BOND
     1    1    2 1  
     2   13   15 2  
     3    9   10 1  
     4    2    4 2  
     5   10   11 2  
     6    6    8 1  
     7    1    3 2  
     8    8    9 2  
     9   12   14 2  
    10    4    5 1  
    11    5    6 2  
    12   11   12 1  
    13   12   13 1  
    14   13    7 1  
    15    1   16 1  
    16    2   17 1  
    17    4   18 1  
    18    5   19 1  
    19    6   20 1  
    20    7   21 1  
    21    8   22 1  
    22    9   23 1  
    23   10   24 1  
    24   11   25 1  
    25   14   26 1  
    26   14   27 1  
# Name:          frag3-281-3/96164
# Creation time: Sat Jun  5 12:53:25 2010


@<TRIPOS>MOLECULE
frag3-281-3/96164
   27    26     1     1     1
SMALL
USER_CHARGES


@<TRIPOS>ATOM
      1 C4         -4.5928    0.9698    0.4422 C.2        1 <1>        0.000
      2 C6         -3.3724    0.8155   -0.3478 C.2        1 <1>        0.000
      3 O3         -5.5737    1.6242    0.1223 O.2        1 <1>        0.000
      4 C8         -2.2629    0.1965    0.0699 C.2        1 <1>        0.000
      5 C11        -1.0758    0.0439   -0.7208 C.2        1 <1>        0.000
      6 C12         0.1049   -0.5336   -0.4679 C.2        1 <1>        0.000
      7 O6          6.3503    0.1260   -1.5881 O.3        1 <1>        0.000
      8 C13         1.2284   -0.6476   -1.3559 C.2        1 <1>        0.000
      9 C14         2.3548   -1.3397   -1.1626 C.2        1 <1>        0.000
     10 C15         2.8849   -2.1864   -0.1071 C.2        1 <1>        0.000
     11 C16         4.2019   -2.3995    0.1171 C.2        1 <1>        0.000
     12 C18         5.2996   -1.8131   -0.6119 C.2        1 <1>        0.000
     13 C19         5.4592   -0.3537   -0.7242 C.2        1 <1>        0.000
     14 C20         6.2475   -2.4800   -1.2659 C.2        1 <1>        0.000
     15 O7          4.7694    0.4045   -0.0492 O.2        1 <1>        0.000
     16 H          -4.6310    0.4551    1.4023 H.spc      1 <1>        0.000
     17 H          -3.3663    1.2367   -1.3531 H.spc      1 <1>        0.000
     18 H          -2.2605   -0.2194    1.0774 H.spc      1 <1>        0.000
     19 H          -1.1492    0.4812   -1.7165 H.spc      1 <1>        0.000
     20 H           0.2280   -0.9667    0.5248 H.spc      1 <1>        0.000
     21 H           6.7955   -0.6036   -2.0251 H.spc      1 <1>        0.000
     22 H           1.1530   -0.1055   -2.2985 H.spc      1 <1>        0.000
     23 H           3.0446   -1.2465   -2.0014 H.spc      1 <1>        0.000
     24 H           2.1717   -2.6845    0.5497 H.spc      1 <1>        0.000
     25 H           4.4586   -3.0811    0.9281 H.spc      1 <1>        0.000
     26 H           6.2357   -3.5698   -1.2807 H.spc      1 <1>        0.000
     27 H           7.0357   -1.9364   -1.7868 H.spc      1 <1>        0.000
@<TRIPOS>BOND
     1    1    2 1  
     2   13   15 2  
     3    9   10 1  
     4    2    4 2  
     5   10   11 2  
     6    6    8 1  
     7    1    3 2  
     8    8    9 2  
     9   12   14 2  
    10    4    5 1  
    11    5    6 2  
    12   11   12 1  
    13   12   13 1  
    14   13    7 1  
    15    1   16 1  
    16    2   17 1  
    17    4   18 1  
    18    5   19 1  
    19    6   20 1  
    20    7   21 1  
    21    8   22 1  
    22    9   23 1  
    23   10   24 1  
    24   11   25 1  
    25   14   26 1  
    26   14   27 1  
# Name:          frag3-281-3/96164
# Creation time: Sat Jun  5 12:53:25 2010


@<TRIPOS>MOLECULE
frag3-281-3/96164
   27    26     1     1     1
SMALL
USER_CHARGES


@<TRIPOS>ATOM
      1 C4         -4.2309    1.2361   -0.2435 C.2        1 <1>        0.000
      2 C6         -3.0662    0.3692   -0.3551 C.2        1 <1>        0.000
      3 O3         -5.3913    0.8657   -0.3370 O.2        1 <1>        0.000
      4 C8         -1.7938    0.7769   -0.3013 C.2        1 <1>        0.000
      5 C11        -0.6531   -0.0716   -0.4207 C.2        1 <1>        0.000
      6 C12        -0.3733   -1.1977    0.2631 C.2        1 <1>        0.000
      7 O6          6.9773   -1.4439   -1.5970 O.3        1 <1>        0.000
      8 C13         0.7618   -2.0542    0.1300 C.2        1 <1>        0.000
      9 C14         2.0187   -1.6209   -0.0178 C.2        1 <1>        0.000
     10 C15         2.5740   -0.2886   -0.0709 C.2        1 <1>        0.000
     11 C16         3.7359    0.0157   -0.6558 C.2        1 <1>        0.000
     12 C18         4.6934   -0.8199   -1.3052 C.2        1 <1>        0.000
     13 C19         6.0359   -1.0057   -0.7708 C.2        1 <1>        0.000
     14 C20         4.4614   -1.5910   -2.3703 C.2        1 <1>        0.000
     15 O7          6.2734   -0.7434    0.4025 O.2        1 <1>        0.000
     16 H          -4.0539    2.2963   -0.0628 H.spc      1 <1>        0.000
     17 H          -3.2459   -0.6969   -0.4935 H.spc      1 <1>        0.000
     18 H          -1.6139    1.8419   -0.1546 H.spc      1 <1>        0.000
     19 H           0.0877    0.2305   -1.1610 H.spc      1 <1>        0.000
     20 H          -1.1065   -1.4930    1.0136 H.spc      1 <1>        0.000
     21 H           6.5959   -1.5911   -2.4656 H.spc      1 <1>        0.000
     22 H           0.5930   -3.1309    0.1502 H.spc      1 <1>        0.000
     23 H           2.7570   -2.4168   -0.1158 H.spc      1 <1>        0.000
     24 H           2.0098    0.5191    0.3954 H.spc      1 <1>        0.000
     25 H           3.9947    1.0743   -0.6334 H.spc      1 <1>        0.000
     26 H           3.4680   -1.6173   -2.8181 H.spc      1 <1>        0.000
     27 H           5.2654   -2.1942   -2.7920 H.spc      1 <1>        0.000
@<TRIPOS>BOND
     1    1    2 1  
     2   13   15 2  
     3    9   10 1  
     4    2    4 2  
     5   10   11 2  
     6    6    8 1  
     7    1    3 2  
     8    8    9 2  
     9   12   14 2  
    10    4    5 1  
    11    5    6 2  
    12   11   12 1  
    13   12   13 1  
    14   13    7 1  
    15    1   16 1  
    16    2   17 1  
    17    4   18 1  
    18    5   19 1  
    19    6   20 1  
    20    7   21 1  
    21    8   22 1  
    22    9   23 1  
    23   10   24 1  
    24   11   25 1  
    25   14   26 1  
    26   14   27 1  
# Name:          frag3-281-3/96164
# Creation time: Sat Jun  5 12:53:25 2010


@<TRIPOS>MOLECULE
frag3-281-3/96164
   27    26     1     1     1
SMALL
USER_CHARGES


@<TRIPOS>ATOM
      1 C4         -3.6847   -0.8901   -0.1427 C.2        1 <1>        0.000
      2 C6         -2.3339   -0.3709   -0.3715 C.2        1 <1>        0.000
      3 O3         -4.2522   -1.7028   -0.8571 O.2        1 <1>        0.000
      4 C8         -1.7151    0.5397    0.3969 C.2        1 <1>        0.000
      5 C11        -0.3931    1.0703    0.2044 C.2        1 <1>        0.000
      6 C12         0.2936    1.1784   -0.9477 C.2        1 <1>        0.000
      7 O6          5.3128   -2.8142   -2.0654 O.3        1 <1>        0.000
      8 C13         1.6276    1.6829   -1.1066 C.2        1 <1>        0.000
      9 C14         2.6976    1.2844   -0.3927 C.2        1 <1>        0.000
     10 C15         2.8703    0.3190    0.6746 C.2        1 <1>        0.000
     11 C16         3.7080   -0.7250    0.5876 C.2        1 <1>        0.000
     12 C18         4.5682   -1.1643   -0.4762 C.2        1 <1>        0.000
     13 C19         4.3797   -2.4274   -1.1819 C.2        1 <1>        0.000
     14 C20         5.5544   -0.4332   -0.9964 C.2        1 <1>        0.000
     15 O7          3.3902   -3.1200   -0.9749 O.2        1 <1>        0.000
     16 H          -4.2241   -0.5237    0.7307 H.spc      1 <1>        0.000
     17 H          -1.7882   -0.7542   -1.2337 H.spc      1 <1>        0.000
     18 H          -2.2725    0.9153    1.2550 H.spc      1 <1>        0.000
     19 H           0.1145    1.4284    1.1001 H.spc      1 <1>        0.000
     20 H          -0.2157    0.8489   -1.8533 H.spc      1 <1>        0.000
     21 H           6.0113   -2.1566   -2.0999 H.spc      1 <1>        0.000
     22 H           1.7874    2.4492   -1.8651 H.spc      1 <1>        0.000
     23 H           3.6210    1.7904   -0.6746 H.spc      1 <1>        0.000
     24 H           2.2928    0.4473    1.5901 H.spc      1 <1>        0.000
     25 H           3.7422   -1.3495    1.4803 H.spc      1 <1>        0.000
     26 H           5.7501    0.5687   -0.6143 H.spc      1 <1>        0.000
     27 H           6.1650   -0.8374   -1.8038 H.spc      1 <1>        0.000
@<TRIPOS>BOND
     1    1    2 1  
     2   13   15 2  
     3    9   10 1  
     4    2    4 2  
     5   10   11 2  
     6    6    8 1  
     7    1    3 2  
     8    8    9 2  
     9   12   14 2  
    10    4    5 1  
    11    5    6 2  
    12   11   12 1  
    13   12   13 1  
    14   13    7 1  
    15    1   16 1  
    16    2   17 1  
    17    4   18 1  
    18    5   19 1  
    19    6   20 1  
    20    7   21 1  
    21    8   22 1  
    22    9   23 1  
    23   10   24 1  
    24   11   25 1  
    25   14   26 1  
    26   14   27 1  
# Name:          frag3-281-3/96164
# Creation time: Sat Jun  5 12:53:25 2010


@<TRIPOS>MOLECULE
frag3-281-3/96164
   27    26     1     1     1
SMALL
USER_CHARGES


@<TRIPOS>ATOM
      1 C4         -4.6445    0.3389    0.5512 C.2        1 <1>        0.000
      2 C6         -3.5110   -0.0721   -0.2744 C.2        1 <1>        0.000
      3 O3         -4.8028    1.3666    1.1928 O.2        1 <1>        0.000
      4 C8         -2.4882    0.7583   -0.5040 C.2        1 <1>        0.000
      5 C11        -1.3257    0.5209   -1.2928 C.2        1 <1>        0.000
      6 C12        -0.1641   -0.0195   -0.9581 C.2        1 <1>        0.000
      7 O6          5.9273   -0.1534    0.8557 O.3        1 <1>        0.000
      8 C13         0.9755   -0.3104   -1.7439 C.2        1 <1>        0.000
      9 C14         2.0637   -1.0001   -1.4170 C.2        1 <1>        0.000
     10 C15         2.5450   -1.6610   -0.2513 C.2        1 <1>        0.000
     11 C16         3.8216   -1.9551    0.0117 C.2        1 <1>        0.000
     12 C18         5.0205   -1.6921   -0.7169 C.2        1 <1>        0.000
     13 C19         6.1550   -0.8525   -0.2685 C.2        1 <1>        0.000
     14 C20         5.2286   -2.1106   -1.9774 C.2        1 <1>        0.000
     15 O7          7.2225   -0.7313   -0.8565 O.2        1 <1>        0.000
     16 H          -5.4674   -0.3741    0.6020 H.spc      1 <1>        0.000
     17 H          -3.4990   -1.0712   -0.7099 H.spc      1 <1>        0.000
     18 H          -2.5517    1.7374   -0.0292 H.spc      1 <1>        0.000
     19 H          -1.4049    0.8328   -2.3342 H.spc      1 <1>        0.000
     20 H          -0.0708   -0.2834    0.0954 H.spc      1 <1>        0.000
     21 H           5.0513   -0.3614    1.1887 H.spc      1 <1>        0.000
     22 H           0.9590    0.0863   -2.7590 H.spc      1 <1>        0.000
     23 H           2.7625   -1.0797   -2.2497 H.spc      1 <1>        0.000
     24 H           1.8052   -1.9535    0.4939 H.spc      1 <1>        0.000
     25 H           3.9746   -2.4907    0.9486 H.spc      1 <1>        0.000
     26 H           4.4592   -2.6829   -2.4957 H.spc      1 <1>        0.000
     27 H           6.1667   -1.8776   -2.4811 H.spc      1 <1>        0.000
@<TRIPOS>BOND
     1    1    2 1  
     2   13   15 2  
     3    9   10 1  
     4    2    4 2  
     5   10   11 2  
     6    6    8 1  
     7    1    3 2  
     8    8    9 2  
     9   12   14 2  
    10    4    5 1  
    11    5    6 2  
    12   11   12 1  
    13   12   13 1  
    14   13    7 1  
    15    1   16 1  
    16    2   17 1  
    17    4   18 1  
    18    5   19 1  
    19    6   20 1  
    20    7   21 1  
    21    8   22 1  
    22    9   23 1  
    23   10   24 1  
    24   11   25 1  
    25   14   26 1  
    26   14   27 1  
# Name:          frag3-281-3/96164
# Creation time: Sat Jun  5 12:53:25 2010


@<TRIPOS>MOLECULE
frag3-281-3/96164
   27    26     1     1     1
SMALL
USER_CHARGES


@<TRIPOS>ATOM
      1 C4         -4.0299   -0.7098   -0.0678 C.2        1 <1>        0.000
      2 C6         -2.7078   -0.1003   -0.2220 C.2        1 <1>        0.000
      3 O3         -4.5554   -1.0087    0.9908 O.2        1 <1>        0.000
      4 C8         -2.1209    0.2480   -1.3768 C.2        1 <1>        0.000
      5 C11        -0.8424    0.8796   -1.5383 C.2        1 <1>        0.000
      6 C12         0.2568    0.7009   -0.7883 C.2        1 <1>        0.000
      7 O6          5.6636   -2.5829   -2.0534 O.3        1 <1>        0.000
      8 C13         1.5384    1.3265   -0.8712 C.2        1 <1>        0.000
      9 C14         2.6333    1.0827   -0.1534 C.2        1 <1>        0.000
     10 C15         2.9882    0.1639    0.8970 C.2        1 <1>        0.000
     11 C16         3.9593   -0.7515    0.7388 C.2        1 <1>        0.000
     12 C18         4.8184   -1.0510   -0.3866 C.2        1 <1>        0.000
     13 C19         4.7616   -2.3360   -1.0969 C.2        1 <1>        0.000
     14 C20         5.7230   -0.2406   -0.9230 C.2        1 <1>        0.000
     15 O7          3.9374   -3.1940   -0.7984 O.2        1 <1>        0.000
     16 H          -4.5932   -0.9140   -0.9784 H.spc      1 <1>        0.000
     17 H          -2.1447    0.0892    0.6919 H.spc      1 <1>        0.000
     18 H          -2.6740    0.0278   -2.2899 H.spc      1 <1>        0.000
     19 H          -0.7536    1.5851   -2.3644 H.spc      1 <1>        0.000
     20 H           0.1555   -0.0365    0.0080 H.spc      1 <1>        0.000
     21 H           6.2296   -1.8154   -2.1637 H.spc      1 <1>        0.000
     22 H           1.6329    2.1093   -1.6238 H.spc      1 <1>        0.000
     23 H           3.4610    1.7369   -0.4272 H.spc      1 <1>        0.000
     24 H           2.4547    0.2122    1.8463 H.spc      1 <1>        0.000
     25 H           4.1301   -1.3797    1.6130 H.spc      1 <1>        0.000
     26 H           5.8716    0.7581   -0.5124 H.spc      1 <1>        0.000
     27 H           6.3170   -0.5740   -1.7739 H.spc      1 <1>        0.000
@<TRIPOS>BOND
     1    1    2 1  
     2   13   15 2  
     3    9   10 1  
     4    2    4 2  
     5   10   11 2  
     6    6    8 1  
     7    1    3 2  
     8    8    9 2  
     9   12   14 2  
    10    4    5 1  
    11    5    6 2  
    12   11   12 1  
    13   12   13 1  
    14   13    7 1  
    15    1   16 1  
    16    2   17 1  
    17    4   18 1  
    18    5   19 1  
    19    6   20 1  
    20    7   21 1  
    21    8   22 1  
    22    9   23 1  
    23   10   24 1  
    24   11   25 1  
    25   14   26 1  
    26   14   27 1  
# Name:          frag3-281-3/96164
# Creation time: Sat Jun  5 12:53:25 2010


@<TRIPOS>MOLECULE
frag3-281-3/96164
   27    26     1     1     1
SMALL
USER_CHARGES


@<TRIPOS>ATOM
      1 C4         -4.7317    0.0502   -0.1618 C.2        1 <1>        0.000
      2 C6         -3.3990    0.4302   -0.6346 C.2        1 <1>        0.000
      3 O3         -5.8042    0.3723   -0.6547 O.2        1 <1>        0.000
      4 C8         -2.2400    0.0936   -0.0510 C.2        1 <1>        0.000
      5 C11        -0.9406    0.4659   -0.5112 C.2        1 <1>        0.000
      6 C12         0.2997    0.1402   -0.1432 C.2        1 <1>        0.000
      7 O6          6.0673   -0.0531   -0.7274 O.3        1 <1>        0.000
      8 C13         1.5472    0.5980   -0.6819 C.2        1 <1>        0.000
      9 C14         2.7736    0.3112   -0.2460 C.2        1 <1>        0.000
     10 C15         3.2288   -0.5167    0.8313 C.2        1 <1>        0.000
     11 C16         4.0830   -1.5387    0.6829 C.2        1 <1>        0.000
     12 C18         4.7227   -1.9914   -0.5301 C.2        1 <1>        0.000
     13 C19         5.7222   -1.2164   -1.2877 C.2        1 <1>        0.000
     14 C20         4.4609   -3.1312   -1.2009 C.2        1 <1>        0.000
     15 O7          6.2334   -1.5872   -2.3335 O.2        1 <1>        0.000
     16 H          -4.7726   -0.5864    0.7220 H.spc      1 <1>        0.000
     17 H          -3.3447    1.0383   -1.5376 H.spc      1 <1>        0.000
     18 H          -2.2941   -0.5158    0.8511 H.spc      1 <1>        0.000
     19 H          -0.9680    1.1687   -1.3439 H.spc      1 <1>        0.000
     20 H           0.3750   -0.5711    0.6793 H.spc      1 <1>        0.000
     21 H           5.5671    0.0716    0.0825 H.spc      1 <1>        0.000
     22 H           1.4854    1.2568   -1.5481 H.spc      1 <1>        0.000
     23 H           3.5730    0.7923   -0.8096 H.spc      1 <1>        0.000
     24 H           2.8574   -0.3020    1.8333 H.spc      1 <1>        0.000
     25 H           4.3243   -2.0961    1.5880 H.spc      1 <1>        0.000
     26 H           3.6975   -3.8169   -0.8332 H.spc      1 <1>        0.000
     27 H           5.0126   -3.3670   -2.1109 H.spc      1 <1>        0.000
@<TRIPOS>BOND
     1    1    2 1  
     2   13   15 2  
     3    9   10 1  
     4    2    4 2  
     5   10   11 2  
     6    6    8 1  
     7    1    3 2  
     8    8    9 2  
     9   12   14 2  
    10    4    5 1  
    11    5    6 2  
    12   11   12 1  
    13   12   13 1  
    14   13    7 1  
    15    1   16 1  
    16    2   17 1  
    17    4   18 1  
    18    5   19 1  
    19    6   20 1  
    20    7   21 1  
    21    8   22 1  
    22    9   23 1  
    23   10   24 1  
    24   11   25 1  
    25   14   26 1  
    26   14   27 1  
# Name:          frag3-281-3/96164
# Creation time: Sat Jun  5 12:53:25 2010


@<TRIPOS>MOLECULE
frag3-281-3/96164
   27    26     1     1     1
SMALL
USER_CHARGES


@<TRIPOS>ATOM
      1 C4         -4.4499   -0.0011    0.4106 C.2        1 <1>        0.000
      2 C6         -3.0686    0.3002    0.0388 C.2        1 <1>        0.000
      3 O3         -4.8759   -0.3342    1.5071 O.2        1 <1>        0.000
      4 C8         -2.6159    0.5651   -1.1980 C.2        1 <1>        0.000
      5 C11        -1.2800    0.8978   -1.5720 C.2        1 <1>        0.000
      6 C12        -0.1403    0.3977   -1.0999 C.2        1 <1>        0.000
      7 O6          6.9892   -1.1417   -1.2719 O.3        1 <1>        0.000
      8 C13         1.2088    0.7165   -1.4011 C.2        1 <1>        0.000
      9 C14         2.3004    0.1985   -0.8593 C.2        1 <1>        0.000
     10 C15         2.5366   -0.7940    0.1431 C.2        1 <1>        0.000
     11 C16         3.5936   -1.6081    0.1154 C.2        1 <1>        0.000
     12 C18         4.7022   -1.7008   -0.7982 C.2        1 <1>        0.000
     13 C19         6.0845   -1.4918   -0.3618 C.2        1 <1>        0.000
     14 C20         4.6505   -1.9535   -2.1197 C.2        1 <1>        0.000
     15 O7          6.3880   -1.6238    0.8173 O.2        1 <1>        0.000
     16 H          -5.1894    0.0812   -0.3860 H.spc      1 <1>        0.000
     17 H          -2.3340    0.3110    0.8440 H.spc      1 <1>        0.000
     18 H          -3.3491    0.5210   -2.0034 H.spc      1 <1>        0.000
     19 H          -1.1795    1.6603   -2.3444 H.spc      1 <1>        0.000
     20 H          -0.2646   -0.3896   -0.3564 H.spc      1 <1>        0.000
     21 H           6.5701   -1.0882   -2.1339 H.spc      1 <1>        0.000
     22 H           1.3649    1.4759   -2.1673 H.spc      1 <1>        0.000
     23 H           3.2194    0.6206   -1.2660 H.spc      1 <1>        0.000
     24 H           1.8245   -0.8893    0.9628 H.spc      1 <1>        0.000
     25 H           3.6227   -2.3320    0.9298 H.spc      1 <1>        0.000
     26 H           3.6886   -2.1142   -2.6066 H.spc      1 <1>        0.000
     27 H           5.5705   -1.9974   -2.7026 H.spc      1 <1>        0.000
@<TRIPOS>BOND
     1    1    2 1  
     2   13   15 2  
     3    9   10 1  
     4    2    4 2  
     5   10   11 2  
     6    6    8 1  
     7    1    3 2  
     8    8    9 2  
     9   12   14 2  
    10    4    5 1  
    11    5    6 2  
    12   11   12 1  
    13   12   13 1  
    14   13    7 1  
    15    1   16 1  
    16    2   17 1  
    17    4   18 1  
    18    5   19 1  
    19    6   20 1  
    20    7   21 1  
    21    8   22 1  
    22    9   23 1  
    23   10   24 1  
    24   11   25 1  
    25   14   26 1  
    26   14   27 1  
# Name:          frag3-281-3/96164
# Creation time: Sat Jun  5 12:53:25 2010


@<TRIPOS>MOLECULE
frag3-281-3/96164
   27    26     1     1     1
SMALL
USER_CHARGES


@<TRIPOS>ATOM
      1 C4         -3.8795   -0.5132   -0.9401 C.2        1 <1>        0.000
      2 C6         -2.5685   -0.2654   -0.3429 C.2        1 <1>        0.000
      3 O3         -4.6744   -1.3759   -0.5953 O.2        1 <1>        0.000
      4 C8         -1.6647    0.6057   -0.8152 C.2        1 <1>        0.000
      5 C11        -0.3920    0.8742   -0.2325 C.2        1 <1>        0.000
      6 C12         0.6847    1.5876   -0.5880 C.2        1 <1>        0.000
      7 O6          3.8321   -2.5658   -2.3082 O.3        1 <1>        0.000
      8 C13         1.9127    1.7002    0.1527 C.2        1 <1>        0.000
      9 C14         2.5800    0.6975    0.7465 C.2        1 <1>        0.000
     10 C15         2.3580   -0.7213    0.8308 C.2        1 <1>        0.000
     11 C16         3.2093   -1.6451    0.3722 C.2        1 <1>        0.000
     12 C18         4.4646   -1.5068   -0.2888 C.2        1 <1>        0.000
     13 C19         4.7955   -1.8999   -1.6687 C.2        1 <1>        0.000
     14 C20         5.5184   -0.8944    0.2670 C.2        1 <1>        0.000
     15 O7          5.8471   -1.6508   -2.2389 O.2        1 <1>        0.000
     16 H          -4.1756    0.1301   -1.7687 H.spc      1 <1>        0.000
     17 H          -2.3062   -0.8300    0.5519 H.spc      1 <1>        0.000
     18 H          -1.9253    1.1542   -1.7204 H.spc      1 <1>        0.000
     19 H          -0.2644    0.3820    0.7317 H.spc      1 <1>        0.000
     20 H           0.6245    2.1352   -1.5286 H.spc      1 <1>        0.000
     21 H           3.0793   -2.6775   -1.7231 H.spc      1 <1>        0.000
     22 H           2.3439    2.6974    0.2406 H.spc      1 <1>        0.000
     23 H           3.4753    1.0269    1.2738 H.spc      1 <1>        0.000
     24 H           1.4359   -1.0658    1.2989 H.spc      1 <1>        0.000
     25 H           2.8901   -2.6753    0.5302 H.spc      1 <1>        0.000
     26 H           5.4382   -0.4741    1.2695 H.spc      1 <1>        0.000
     27 H           6.4561   -0.8164   -0.2833 H.spc      1 <1>        0.000
@<TRIPOS>BOND
     1    1    2 1  
     2   13   15 2  
     3    9   10 1  
     4    2    4 2  
     5   10   11 2  
     6    6    8 1  
     7    1    3 2  
     8    8    9 2  
     9   12   14 2  
    10    4    5 1  
    11    5    6 2  
    12   11   12 1  
    13   12   13 1  
    14   13    7 1  
    15    1   16 1  
    16    2   17 1  
    17    4   18 1  
    18    5   19 1  
    19    6   20 1  
    20    7   21 1  
    21    8   22 1  
    22    9   23 1  
    23   10   24 1  
    24   11   25 1  
    25   14   26 1  
    26   14   27 1  
# Name:          frag3-281-3/96164
# Creation time: Sat Jun  5 12:53:26 2010


@<TRIPOS>MOLECULE
frag3-281-3/96164
   27    26     1     1     1
SMALL
USER_CHARGES


@<TRIPOS>ATOM
      1 C4         -4.2072   -0.2256   -0.2413 C.2        1 <1>        0.000
      2 C6         -2.7927   -0.0698   -0.5706 C.2        1 <1>        0.000
      3 O3         -5.0266   -0.8778   -0.8716 O.2        1 <1>        0.000
      4 C8         -1.9241    0.6883    0.1133 C.2        1 <1>        0.000
      5 C11        -0.5428    0.8475   -0.1983 C.2        1 <1>        0.000
      6 C12         0.4981    1.4309    0.4090 C.2        1 <1>        0.000
      7 O6          6.5228   -0.9898   -1.1640 O.3        1 <1>        0.000
      8 C13         1.8545    1.4475   -0.0603 C.2        1 <1>        0.000
      9 C14         2.5310    0.3569   -0.4579 C.2        1 <1>        0.000
     10 C15         2.1930   -1.0558   -0.5263 C.2        1 <1>        0.000
     11 C16         3.0641   -2.0765   -0.4603 C.2        1 <1>        0.000
     12 C18         4.4897   -1.9790   -0.3481 C.2        1 <1>        0.000
     13 C19         5.3059   -1.4414   -1.4413 C.2        1 <1>        0.000
     14 C20         5.2149   -2.2566    0.7428 C.2        1 <1>        0.000
     15 O7          4.8428   -1.3721   -2.5750 O.2        1 <1>        0.000
     16 H          -4.5659    0.2882    0.6506 H.spc      1 <1>        0.000
     17 H          -2.4148   -0.6109   -1.4381 H.spc      1 <1>        0.000
     18 H          -2.3062    1.2279    0.9799 H.spc      1 <1>        0.000
     19 H          -0.2713    0.3892   -1.1493 H.spc      1 <1>        0.000
     20 H           0.2961    1.9423    1.3501 H.spc      1 <1>        0.000
     21 H           6.7100   -1.1288   -0.2327 H.spc      1 <1>        0.000
     22 H           2.3693    2.4076   -0.0965 H.spc      1 <1>        0.000
     23 H           3.5424    0.5764   -0.7999 H.spc      1 <1>        0.000
     24 H           1.1391   -1.3091   -0.6414 H.spc      1 <1>        0.000
     25 H           2.6437   -3.0815   -0.4957 H.spc      1 <1>        0.000
     26 H           4.7209   -2.5914    1.6550 H.spc      1 <1>        0.000
     27 H           6.2992   -2.1478    0.7187 H.spc      1 <1>        0.000
@<TRIPOS>BOND
     1    1    2 1  
     2   13   15 2  
     3    9   10 1  
     4    2    4 2  
     5   10   11 2  
     6    6    8 1  
     7    1    3 2  
     8    8    9 2  
     9   12   14 2  
    10    4    5 1  
    11    5    6 2  
    12   11   12 1  
    13   12   13 1  
    14   13    7 1  
    15    1   16 1  
    16    2   17 1  
    17    4   18 1  
    18    5   19 1  
    19    6   20 1  
    20    7   21 1  
    21    8   22 1  
    22    9   23 1  
    23   10   24 1  
    24   11   25 1  
    25   14   26 1  
    26   14   27 1  
# Name:          frag3-281-3/96164
# Creation time: Sat Jun  5 12:53:26 2010


@<TRIPOS>MOLECULE
frag3-281-3/96164
   27    26     1     1     1
SMALL
USER_CHARGES


@<TRIPOS>ATOM
      1 C4         -3.7560   -0.8155   -0.6009 C.2        1 <1>        0.000
      2 C6         -2.4672   -0.1282   -0.6588 C.2        1 <1>        0.000
      3 O3         -4.6240   -0.7933   -1.4630 O.2        1 <1>        0.000
      4 C8         -1.5307   -0.1243    0.3010 C.2        1 <1>        0.000
      5 C11        -0.2800    0.5508    0.2536 C.2        1 <1>        0.000
      6 C12         0.7852    0.6607    1.0575 C.2        1 <1>        0.000
      7 O6          5.4975   -1.8624   -2.3286 O.3        1 <1>        0.000
      8 C13         1.9898    1.3983    0.7966 C.2        1 <1>        0.000
      9 C14         2.7030    1.3408   -0.3386 C.2        1 <1>        0.000
     10 C15         2.4740    0.5437   -1.5104 C.2        1 <1>        0.000
     11 C16         2.9555   -0.6984   -1.6418 C.2        1 <1>        0.000
     12 C18         3.7615   -1.4787   -0.7544 C.2        1 <1>        0.000
     13 C19         5.1281   -1.9629   -1.0491 C.2        1 <1>        0.000
     14 C20         3.4721   -1.8010    0.5092 C.2        1 <1>        0.000
     15 O7          5.9144   -2.4029   -0.2220 O.2        1 <1>        0.000
     16 H          -3.9631   -1.4026    0.2938 H.spc      1 <1>        0.000
     17 H          -2.2469    0.4334   -1.5666 H.spc      1 <1>        0.000
     18 H          -1.7492   -0.6934    1.2046 H.spc      1 <1>        0.000
     19 H          -0.1580    1.1213   -0.6671 H.spc      1 <1>        0.000
     20 H           0.7326    0.1348    2.0108 H.spc      1 <1>        0.000
     21 H           4.7713   -1.5020   -2.8428 H.spc      1 <1>        0.000
     22 H           2.3540    2.0579    1.5842 H.spc      1 <1>        0.000
     23 H           3.5780    1.9896   -0.3762 H.spc      1 <1>        0.000
     24 H           1.8853    0.9662   -2.3246 H.spc      1 <1>        0.000
     25 H           2.6908   -1.1951   -2.5752 H.spc      1 <1>        0.000
     26 H           2.5394   -1.4602    0.9586 H.spc      1 <1>        0.000
     27 H           4.1687   -2.4048    1.0909 H.spc      1 <1>        0.000
@<TRIPOS>BOND
     1    1    2 1  
     2   13   15 2  
     3    9   10 1  
     4    2    4 2  
     5   10   11 2  
     6    6    8 1  
     7    1    3 2  
     8    8    9 2  
     9   12   14 2  
    10    4    5 1  
    11    5    6 2  
    12   11   12 1  
    13   12   13 1  
    14   13    7 1  
    15    1   16 1  
    16    2   17 1  
    17    4   18 1  
    18    5   19 1  
    19    6   20 1  
    20    7   21 1  
    21    8   22 1  
    22    9   23 1  
    23   10   24 1  
    24   11   25 1  
    25   14   26 1  
    26   14   27 1  
# Name:          frag3-281-3/96164
# Creation time: Sat Jun  5 12:53:26 2010


@<TRIPOS>MOLECULE
frag3-281-3/96164
   27    26     1     1     1
SMALL
USER_CHARGES


@<TRIPOS>ATOM
      1 C4         -4.5247   -0.1957   -0.1319 C.2        1 <1>        0.000
      2 C6         -3.1140    0.1762   -0.1254 C.2        1 <1>        0.000
      3 O3         -5.0352   -1.1110    0.5041 O.2        1 <1>        0.000
      4 C8         -2.5072    1.0619   -0.9283 C.2        1 <1>        0.000
      5 C11        -1.1310    1.4297   -0.9047 C.2        1 <1>        0.000
      6 C12        -0.0728    0.6438   -0.7146 C.2        1 <1>        0.000
      7 O6          7.0273   -2.2657   -1.0030 O.3        1 <1>        0.000
      8 C13         1.3020    0.9890   -0.6464 C.2        1 <1>        0.000
      9 C14         2.3282    0.2010   -0.3666 C.2        1 <1>        0.000
     10 C15         2.4626   -1.1711   -0.0064 C.2        1 <1>        0.000
     11 C16         3.6289   -1.8314    0.0797 C.2        1 <1>        0.000
     12 C18         4.9553   -1.3712   -0.1608 C.2        1 <1>        0.000
     13 C19         5.7894   -1.8574   -1.2699 C.2        1 <1>        0.000
     14 C20         5.5721   -0.3402    0.4297 C.2        1 <1>        0.000
     15 O7          5.3423   -1.9311   -2.4050 O.2        1 <1>        0.000
     16 H          -5.1879    0.3967   -0.7623 H.spc      1 <1>        0.000
     17 H          -2.4845   -0.3204    0.6130 H.spc      1 <1>        0.000
     18 H          -3.1311    1.5511   -1.6763 H.spc      1 <1>        0.000
     19 H          -0.9174    2.4869   -1.0620 H.spc      1 <1>        0.000
     20 H          -0.2944   -0.4166   -0.5941 H.spc      1 <1>        0.000
     21 H           7.2115   -2.1362   -0.0698 H.spc      1 <1>        0.000
     22 H           1.5429    2.0325   -0.8496 H.spc      1 <1>        0.000
     23 H           3.2860    0.7181   -0.4249 H.spc      1 <1>        0.000
     24 H           1.5511   -1.7260    0.2158 H.spc      1 <1>        0.000
     25 H           3.5484   -2.8765    0.3785 H.spc      1 <1>        0.000
     26 H           5.0500    0.2472    1.1850 H.spc      1 <1>        0.000
     27 H           6.5964   -0.0881    0.1552 H.spc      1 <1>        0.000
@<TRIPOS>BOND
     1    1    2 1  
     2   13   15 2  
     3    9   10 1  
     4    2    4 2  
     5   10   11 2  
     6    6    8 1  
     7    1    3 2  
     8    8    9 2  
     9   12   14 2  
    10    4    5 1  
    11    5    6 2  
    12   11   12 1  
    13   12   13 1  
    14   13    7 1  
    15    1   16 1  
    16    2   17 1  
    17    4   18 1  
    18    5   19 1  
    19    6   20 1  
    20    7   21 1  
    21    8   22 1  
    22    9   23 1  
    23   10   24 1  
    24   11   25 1  
    25   14   26 1  
    26   14   27 1  
# Name:          frag3-281-3/96164
# Creation time: Sat Jun  5 12:53:26 2010


@<TRIPOS>MOLECULE
frag3-281-3/96164
   27    26     1     1     1
SMALL
USER_CHARGES


@<TRIPOS>ATOM
      1 C4         -3.6848   -0.7785   -0.5872 C.2        1 <1>        0.000
      2 C6         -2.3990   -0.1951   -0.2190 C.2        1 <1>        0.000
      3 O3         -4.5312   -1.1858    0.1957 O.2        1 <1>        0.000
      4 C8         -1.4355    0.2234   -1.0458 C.2        1 <1>        0.000
      5 C11        -0.1914    0.8061   -0.6757 C.2        1 <1>        0.000
      6 C12         0.6282    0.5044    0.3419 C.2        1 <1>        0.000
      7 O6          5.9658   -1.4250   -1.3339 O.3        1 <1>        0.000
      8 C13         1.8596    1.1286    0.7053 C.2        1 <1>        0.000
      9 C14         2.9003    1.2967   -0.1226 C.2        1 <1>        0.000
     10 C15         3.0347    0.8775   -1.4919 C.2        1 <1>        0.000
     11 C16         3.3377   -0.3870   -1.8295 C.2        1 <1>        0.000
     12 C18         3.6144   -1.5097   -0.9824 C.2        1 <1>        0.000
     13 C19         4.9734   -1.9558   -0.6145 C.2        1 <1>        0.000
     14 C20         2.7246   -2.2328   -0.2791 C.2        1 <1>        0.000
     15 O7          5.2264   -2.7403    0.2890 O.2        1 <1>        0.000
     16 H          -3.9100   -0.8580   -1.6507 H.spc      1 <1>        0.000
     17 H          -2.2024   -0.0888    0.8479 H.spc      1 <1>        0.000
     18 H          -1.6222    0.1062   -2.1133 H.spc      1 <1>        0.000
     19 H           0.1466    1.6208   -1.3161 H.spc      1 <1>        0.000
     20 H           0.3131   -0.3258    0.9741 H.spc      1 <1>        0.000
     21 H           5.5991   -0.8353   -1.9967 H.spc      1 <1>        0.000
     22 H           1.9606    1.4940    1.7273 H.spc      1 <1>        0.000
     23 H           3.7587    1.8207    0.2977 H.spc      1 <1>        0.000
     24 H           2.8854    1.6117   -2.2836 H.spc      1 <1>        0.000
     25 H           3.3790   -0.5878   -2.9000 H.spc      1 <1>        0.000
     26 H           1.6645   -1.9825   -0.3206 H.spc      1 <1>        0.000
     27 H           3.0636   -3.0691    0.3323 H.spc      1 <1>        0.000
@<TRIPOS>BOND
     1    1    2 1  
     2   13   15 2  
     3    9   10 1  
     4    2    4 2  
     5   10   11 2  
     6    6    8 1  
     7    1    3 2  
     8    8    9 2  
     9   12   14 2  
    10    4    5 1  
    11    5    6 2  
    12   11   12 1  
    13   12   13 1  
    14   13    7 1  
    15    1   16 1  
    16    2   17 1  
    17    4   18 1  
    18    5   19 1  
    19    6   20 1  
    20    7   21 1  
    21    8   22 1  
    22    9   23 1  
    23   10   24 1  
    24   11   25 1  
    25   14   26 1  
    26   14   27 1  
# Name:          frag3-281-3/96164
# Creation time: Sat Jun  5 12:53:26 2010


@<TRIPOS>MOLECULE
frag3-281-3/96164
   27    26     1     1     1
SMALL
USER_CHARGES


@<TRIPOS>ATOM
      1 C4         -3.9810   -0.4773   -1.0371 C.2        1 <1>        0.000
      2 C6         -2.8649   -0.6264   -0.1122 C.2        1 <1>        0.000
      3 O3         -4.0090    0.0291   -2.1445 O.2        1 <1>        0.000
      4 C8         -1.6521   -0.1158   -0.3537 C.2        1 <1>        0.000
      5 C11        -0.5119   -0.1930    0.4982 C.2        1 <1>        0.000
      6 C12         0.6961    0.3742    0.4491 C.2        1 <1>        0.000
      7 O6          4.7056   -3.0906   -1.8279 O.3        1 <1>        0.000
      8 C13         1.7747    0.2381    1.3903 C.2        1 <1>        0.000
      9 C14         3.0510    0.6042    1.2324 C.2        1 <1>        0.000
     10 C15         3.6943    1.1887    0.0820 C.2        1 <1>        0.000
     11 C16         3.9739    0.4723   -1.0244 C.2        1 <1>        0.000
     12 C18         3.7742   -0.9281   -1.3147 C.2        1 <1>        0.000
     13 C19         4.8630   -1.9019   -1.2529 C.2        1 <1>        0.000
     14 C20         2.6035   -1.5373   -1.5551 C.2        1 <1>        0.000
     15 O7          5.9059   -1.6093   -0.6791 O.2        1 <1>        0.000
     16 H          -4.9317   -0.8784   -0.6859 H.spc      1 <1>        0.000
     17 H          -3.0248   -1.1768    0.8149 H.spc      1 <1>        0.000
     18 H          -1.5228    0.4130   -1.2980 H.spc      1 <1>        0.000
     19 H          -0.6542   -0.8441    1.3607 H.spc      1 <1>        0.000
     20 H           0.8878    1.0187   -0.4088 H.spc      1 <1>        0.000
     21 H           3.8328   -3.1399   -2.2246 H.spc      1 <1>        0.000
     22 H           1.5215   -0.2182    2.3472 H.spc      1 <1>        0.000
     23 H           3.6961    0.4372    2.0950 H.spc      1 <1>        0.000
     24 H           3.9632    2.2447    0.1082 H.spc      1 <1>        0.000
     25 H           4.4257    1.0447   -1.8346 H.spc      1 <1>        0.000
     26 H           1.6773   -0.9627   -1.5421 H.spc      1 <1>        0.000
     27 H           2.5784   -2.6069   -1.7634 H.spc      1 <1>        0.000
@<TRIPOS>BOND
     1    1    2 1  
     2   13   15 2  
     3    9   10 1  
     4    2    4 2  
     5   10   11 2  
     6    6    8 1  
     7    1    3 2  
     8    8    9 2  
     9   12   14 2  
    10    4    5 1  
    11    5    6 2  
    12   11   12 1  
    13   12   13 1  
    14   13    7 1  
    15    1   16 1  
    16    2   17 1  
    17    4   18 1  
    18    5   19 1  
    19    6   20 1  
    20    7   21 1  
    21    8   22 1  
    22    9   23 1  
    23   10   24 1  
    24   11   25 1  
    25   14   26 1  
    26   14   27 1  
# Name:          frag3-281-3/96164
# Creation time: Sat Jun  5 12:53:26 2010


@<TRIPOS>MOLECULE
frag3-281-3/96164
   27    26     1     1     1
SMALL
USER_CHARGES


@<TRIPOS>ATOM
      1 C4         -4.3410    0.3637    0.6098 C.2        1 <1>        0.000
      2 C6         -3.0167    0.4798    0.0158 C.2        1 <1>        0.000
      3 O3         -5.3530    0.9172    0.2018 O.2        1 <1>        0.000
      4 C8         -1.8740   -0.0127    0.5036 C.2        1 <1>        0.000
      5 C11        -0.5870    0.1330   -0.0912 C.2        1 <1>        0.000
      6 C12        -0.2492    0.0877   -1.3802 C.2        1 <1>        0.000
      7 O6          7.0475   -0.8849   -0.7469 O.3        1 <1>        0.000
      8 C13         1.0393    0.2513   -1.9663 C.2        1 <1>        0.000
      9 C14         2.1278   -0.4050   -1.5572 C.2        1 <1>        0.000
     10 C15         2.3494   -1.4059   -0.5436 C.2        1 <1>        0.000
     11 C16         3.5268   -1.9850   -0.2757 C.2        1 <1>        0.000
     12 C18         4.8035   -1.7484   -0.8831 C.2        1 <1>        0.000
     13 C19         5.8299   -0.9351   -0.2202 C.2        1 <1>        0.000
     14 C20         5.1558   -2.1100   -2.1218 C.2        1 <1>        0.000
     15 O7          5.5641   -0.3190    0.8054 O.2        1 <1>        0.000
     16 H          -4.4390   -0.2693    1.4917 H.spc      1 <1>        0.000
     17 H          -2.9503    1.0256   -0.9254 H.spc      1 <1>        0.000
     18 H          -1.9312   -0.5739    1.4363 H.spc      1 <1>        0.000
     19 H           0.2348    0.3053    0.6038 H.spc      1 <1>        0.000
     20 H          -1.0661   -0.0990   -2.0773 H.spc      1 <1>        0.000
     21 H           7.0737   -1.4231   -1.5414 H.spc      1 <1>        0.000
     22 H           1.1421    0.9516   -2.7952 H.spc      1 <1>        0.000
     23 H           3.0319   -0.1279   -2.0994 H.spc      1 <1>        0.000
     24 H           1.4906   -1.7159    0.0519 H.spc      1 <1>        0.000
     25 H           3.5124   -2.7389    0.5114 H.spc      1 <1>        0.000
     26 H           4.4433   -2.6318   -2.7607 H.spc      1 <1>        0.000
     27 H           6.1554   -1.8829   -2.4923 H.spc      1 <1>        0.000
@<TRIPOS>BOND
     1    1    2 1  
     2   13   15 2  
     3    9   10 1  
     4    2    4 2  
     5   10   11 2  
     6    6    8 1  
     7    1    3 2  
     8    8    9 2  
     9   12   14 2  
    10    4    5 1  
    11    5    6 2  
    12   11   12 1  
    13   12   13 1  
    14   13    7 1  
    15    1   16 1  
    16    2   17 1  
    17    4   18 1  
    18    5   19 1  
    19    6   20 1  
    20    7   21 1  
    21    8   22 1  
    22    9   23 1  
    23   10   24 1  
    24   11   25 1  
    25   14   26 1  
    26   14   27 1  
# Name:          frag3-281-3/96164
# Creation time: Sat Jun  5 12:53:26 2010


@<TRIPOS>MOLECULE
frag3-281-3/96164
   27    26     1     1     1
SMALL
USER_CHARGES


@<TRIPOS>ATOM
      1 C4         -3.6787    1.1350    0.8280 C.2        1 <1>        0.000
      2 C6         -2.6306    0.6058   -0.0391 C.2        1 <1>        0.000
      3 O3         -4.3563    2.1248    0.5910 O.2        1 <1>        0.000
      4 C8         -1.7978   -0.3992    0.2595 C.2        1 <1>        0.000
      5 C11        -0.7879   -0.9314   -0.6006 C.2        1 <1>        0.000
      6 C12         0.0397   -0.2737   -1.4286 C.2        1 <1>        0.000
      7 O6          6.1072    0.4832   -0.8114 O.3        1 <1>        0.000
      8 C13         1.0302   -0.8378   -2.2898 C.2        1 <1>        0.000
      9 C14         1.9937   -1.6894   -1.9083 C.2        1 <1>        0.000
     10 C15         2.3558   -2.2698   -0.6358 C.2        1 <1>        0.000
     11 C16         3.5916   -2.1720   -0.1203 C.2        1 <1>        0.000
     12 C18         4.7525   -1.4975   -0.6313 C.2        1 <1>        0.000
     13 C19         5.1969   -0.1950   -0.1174 C.2        1 <1>        0.000
     14 C20         5.4874   -1.9288   -1.6574 C.2        1 <1>        0.000
     15 O7          4.7196    0.2725    0.9118 O.2        1 <1>        0.000
     16 H          -3.8728    0.6058    1.7609 H.spc      1 <1>        0.000
     17 H          -2.5155    1.0708   -1.0182 H.spc      1 <1>        0.000
     18 H          -1.8990   -0.8516    1.2460 H.spc      1 <1>        0.000
     19 H          -0.6745   -2.0153   -0.5819 H.spc      1 <1>        0.000
     20 H          -0.0548    0.8121   -1.4455 H.spc      1 <1>        0.000
     21 H           6.3679   -0.0284   -1.5807 H.spc      1 <1>        0.000
     22 H           1.0006   -0.5532   -3.3416 H.spc      1 <1>        0.000
     23 H           2.6366   -2.0099   -2.7281 H.spc      1 <1>        0.000
     24 H           1.5949   -2.8089   -0.0714 H.spc      1 <1>        0.000
     25 H           3.7362   -2.6826    0.8318 H.spc      1 <1>        0.000
     26 H           5.2196   -2.8533   -2.1690 H.spc      1 <1>        0.000
     27 H           6.3557   -1.3568   -1.9844 H.spc      1 <1>        0.000
@<TRIPOS>BOND
     1    1    2 1  
     2   13   15 2  
     3    9   10 1  
     4    2    4 2  
     5   10   11 2  
     6    6    8 1  
     7    1    3 2  
     8    8    9 2  
     9   12   14 2  
    10    4    5 1  
    11    5    6 2  
    12   11   12 1  
    13   12   13 1  
    14   13    7 1  
    15    1   16 1  
    16    2   17 1  
    17    4   18 1  
    18    5   19 1  
    19    6   20 1  
    20    7   21 1  
    21    8   22 1  
    22    9   23 1  
    23   10   24 1  
    24   11   25 1  
    25   14   26 1  
    26   14   27 1  
# Name:          frag3-281-3/96164
# Creation time: Sat Jun  5 12:53:26 2010


@<TRIPOS>MOLECULE
frag3-281-3/96164
   27    26     1     1     1
SMALL
USER_CHARGES


@<TRIPOS>ATOM
      1 C4         -3.9396   -0.6557   -0.6366 C.2        1 <1>        0.000
      2 C6         -2.7775    0.1538   -0.9906 C.2        1 <1>        0.000
      3 O3         -4.0393   -1.6044    0.1239 O.2        1 <1>        0.000
      4 C8         -1.6004    0.0044   -0.3708 C.2        1 <1>        0.000
      5 C11        -0.3982    0.7382   -0.6395 C.2        1 <1>        0.000
      6 C12         0.8450    0.6421   -0.1607 C.2        1 <1>        0.000
      7 O6          3.6576   -2.6150   -2.3821 O.3        1 <1>        0.000
      8 C13         1.9782    1.4651   -0.5030 C.2        1 <1>        0.000
      9 C14         3.2246    1.4298   -0.0167 C.2        1 <1>        0.000
     10 C15         3.8848    0.6007    0.9514 C.2        1 <1>        0.000
     11 C16         4.4819   -0.5530    0.6301 C.2        1 <1>        0.000
     12 C18         4.5917   -1.1948   -0.6583 C.2        1 <1>        0.000
     13 C19         3.6895   -2.2649   -1.0859 C.2        1 <1>        0.000
     14 C20         5.4695   -0.8885   -1.6263 C.2        1 <1>        0.000
     15 O7          2.9556   -2.8310   -0.2844 O.2        1 <1>        0.000
     16 H          -4.8668   -0.3661   -1.1310 H.spc      1 <1>        0.000
     17 H          -2.8707    0.8994   -1.7802 H.spc      1 <1>        0.000
     18 H          -1.5510   -0.7490    0.4153 H.spc      1 <1>        0.000
     19 H          -0.5233    1.5291   -1.3791 H.spc      1 <1>        0.000
     20 H           1.0226   -0.1466    0.5704 H.spc      1 <1>        0.000
     21 H           4.2872   -2.0811   -2.8722 H.spc      1 <1>        0.000
     22 H           1.7939    2.2225   -1.2649 H.spc      1 <1>        0.000
     23 H           3.8756    2.1911   -0.4464 H.spc      1 <1>        0.000
     24 H           3.9004    0.9245    1.9921 H.spc      1 <1>        0.000
     25 H           4.9519   -1.0832    1.4585 H.spc      1 <1>        0.000
     26 H           6.1903   -0.0852   -1.4741 H.spc      1 <1>        0.000
     27 H           5.4616   -1.4431   -2.5646 H.spc      1 <1>        0.000
@<TRIPOS>BOND
     1    1    2 1  
     2   13   15 2  
     3    9   10 1  
     4    2    4 2  
     5   10   11 2  
     6    6    8 1  
     7    1    3 2  
     8    8    9 2  
     9   12   14 2  
    10    4    5 1  
    11    5    6 2  
    12   11   12 1  
    13   12   13 1  
    14   13    7 1  
    15    1   16 1  
    16    2   17 1  
    17    4   18 1  
    18    5   19 1  
    19    6   20 1  
    20    7   21 1  
    21    8   22 1  
    22    9   23 1  
    23   10   24 1  
    24   11   25 1  
    25   14   26 1  
    26   14   27 1  
# Name:          frag3-281-3/96164
# Creation time: Sat Jun  5 12:53:26 2010


@<TRIPOS>MOLECULE
frag3-281-3/96164
   27    26     1     1     1
SMALL
USER_CHARGES


@<TRIPOS>ATOM
      1 C4         -3.6231   -0.9834   -1.1134 C.2        1 <1>        0.000
      2 C6         -2.1813   -0.7375   -1.1283 C.2        1 <1>        0.000
      3 O3         -4.5175   -0.3613   -0.5679 O.2        1 <1>        0.000
      4 C8         -1.6256    0.2606   -0.4280 C.2        1 <1>        0.000
      5 C11        -0.2521    0.6135   -0.3433 C.2        1 <1>        0.000
      6 C12         0.4312    1.5712    0.2903 C.2        1 <1>        0.000
      7 O6          3.3901   -2.6588   -2.0994 O.3        1 <1>        0.000
      8 C13         1.8452    1.7664    0.2915 C.2        1 <1>        0.000
      9 C14         2.7466    0.8294    0.6065 C.2        1 <1>        0.000
     10 C15         2.6390   -0.5392    1.0220 C.2        1 <1>        0.000
     11 C16         3.4250   -1.5419    0.6171 C.2        1 <1>        0.000
     12 C18         4.4967   -1.5155   -0.3244 C.2        1 <1>        0.000
     13 C19         4.3855   -1.8346   -1.7634 C.2        1 <1>        0.000
     14 C20         5.7392   -1.0529   -0.0831 C.2        1 <1>        0.000
     15 O7          5.1244   -1.3893   -2.6261 O.2        1 <1>        0.000
     16 H          -3.9474   -1.8580   -1.6772 H.spc      1 <1>        0.000
     17 H          -1.5402   -1.3850   -1.7265 H.spc      1 <1>        0.000
     18 H          -2.3133    0.8790    0.1488 H.spc      1 <1>        0.000
     19 H           0.3896   -0.0463   -0.9273 H.spc      1 <1>        0.000
     20 H          -0.1565    2.2824    0.8707 H.spc      1 <1>        0.000
     21 H           2.9081   -2.9153   -1.3098 H.spc      1 <1>        0.000
     22 H           2.2184    2.7525    0.0151 H.spc      1 <1>        0.000
     23 H           3.7765    1.1784    0.5319 H.spc      1 <1>        0.000
     24 H           1.8469   -0.7831    1.7300 H.spc      1 <1>        0.000
     25 H           3.2189   -2.5126    1.0680 H.spc      1 <1>        0.000
     26 H           5.9916   -0.6561    0.9002 H.spc      1 <1>        0.000
     27 H           6.4918   -1.0755   -0.8713 H.spc      1 <1>        0.000
@<TRIPOS>BOND
     1    1    2 1  
     2   13   15 2  
     3    9   10 1  
     4    2    4 2  
     5   10   11 2  
     6    6    8 1  
     7    1    3 2  
     8    8    9 2  
     9   12   14 2  
    10    4    5 1  
    11    5    6 2  
    12   11   12 1  
    13   12   13 1  
    14   13    7 1  
    15    1   16 1  
    16    2   17 1  
    17    4   18 1  
    18    5   19 1  
    19    6   20 1  
    20    7   21 1  
    21    8   22 1  
    22    9   23 1  
    23   10   24 1  
    24   11   25 1  
    25   14   26 1  
    26   14   27 1  
# Name:          frag3-281-3/96164
# Creation time: Sat Jun  5 12:53:26 2010


@<TRIPOS>MOLECULE
frag3-281-3/96164
   27    26     1     1     1
SMALL
USER_CHARGES


@<TRIPOS>ATOM
      1 C4         -4.1986    0.0746   -0.7316 C.2        1 <1>        0.000
      2 C6         -2.7943    0.2993   -0.3804 C.2        1 <1>        0.000
      3 O3         -5.0079   -0.5821   -0.0909 O.2        1 <1>        0.000
      4 C8         -1.9306    1.0616   -1.0661 C.2        1 <1>        0.000
      5 C11        -0.5665    1.3380   -0.7486 C.2        1 <1>        0.000
      6 C12         0.3483    0.4938   -0.2588 C.2        1 <1>        0.000
      7 O6          3.8701   -0.9161   -2.2560 O.3        1 <1>        0.000
      8 C13         1.7027    0.6699    0.1313 C.2        1 <1>        0.000
      9 C14         2.5955   -0.2446    0.5016 C.2        1 <1>        0.000
     10 C15         2.6216   -1.6668    0.6414 C.2        1 <1>        0.000
     11 C16         3.6427   -2.4385    0.2412 C.2        1 <1>        0.000
     12 C18         4.8463   -2.0237   -0.4186 C.2        1 <1>        0.000
     13 C19         4.9397   -0.9795   -1.4622 C.2        1 <1>        0.000
     14 C20         6.0836   -2.4587   -0.1512 C.2        1 <1>        0.000
     15 O7          5.8708   -0.2004   -1.6007 O.2        1 <1>        0.000
     16 H          -4.5567    0.5366   -1.6516 H.spc      1 <1>        0.000
     17 H          -2.4194   -0.1958    0.5154 H.spc      1 <1>        0.000
     18 H          -2.3157    1.5256   -1.9741 H.spc      1 <1>        0.000
     19 H          -0.2300    2.3594   -0.9266 H.spc      1 <1>        0.000
     20 H          -0.0159   -0.5261   -0.1352 H.spc      1 <1>        0.000
     21 H           3.2448   -1.5995   -2.0037 H.spc      1 <1>        0.000
     22 H           2.0612    1.6992    0.1267 H.spc      1 <1>        0.000
     23 H           3.5519    0.2064    0.7661 H.spc      1 <1>        0.000
     24 H           1.7607   -2.1528    1.1004 H.spc      1 <1>        0.000
     25 H           3.5465   -3.5057    0.4408 H.spc      1 <1>        0.000
     26 H           6.2436   -3.1982    0.6334 H.spc      1 <1>        0.000
     27 H           6.9311   -2.0735   -0.7181 H.spc      1 <1>        0.000
@<TRIPOS>BOND
     1    1    2 1  
     2   13   15 2  
     3    9   10 1  
     4    2    4 2  
     5   10   11 2  
     6    6    8 1  
     7    1    3 2  
     8    8    9 2  
     9   12   14 2  
    10    4    5 1  
    11    5    6 2  
    12   11   12 1  
    13   12   13 1  
    14   13    7 1  
    15    1   16 1  
    16    2   17 1  
    17    4   18 1  
    18    5   19 1  
    19    6   20 1  
    20    7   21 1  
    21    8   22 1  
    22    9   23 1  
    23   10   24 1  
    24   11   25 1  
    25   14   26 1  
    26   14   27 1  
# Name:          frag3-281-3/96164
# Creation time: Sat Jun  5 12:53:26 2010


@<TRIPOS>MOLECULE
frag3-281-3/96164
   27    26     1     1     1
SMALL
USER_CHARGES


@<TRIPOS>ATOM
      1 C4         -3.6866   -0.4275   -0.7567 C.2        1 <1>        0.000
      2 C6         -2.2277   -0.3077   -0.8040 C.2        1 <1>        0.000
      3 O3         -4.3560   -1.3334   -1.2329 O.2        1 <1>        0.000
      4 C8         -1.5091    0.7038   -0.2950 C.2        1 <1>        0.000
      5 C11        -0.0867    0.8252   -0.3041 C.2        1 <1>        0.000
      6 C12         0.7815    1.6934    0.2307 C.2        1 <1>        0.000
      7 O6          2.9738   -0.9492   -2.0551 O.3        1 <1>        0.000
      8 C13         2.2115    1.6530    0.1667 C.2        1 <1>        0.000
      9 C14         2.9664    0.6022    0.5189 C.2        1 <1>        0.000
     10 C15         2.6807   -0.7087    1.0556 C.2        1 <1>        0.000
     11 C16         3.2800   -1.8479    0.6701 C.2        1 <1>        0.000
     12 C18         4.2709   -2.0050   -0.3590 C.2        1 <1>        0.000
     13 C19         4.1716   -1.4461   -1.7283 C.2        1 <1>        0.000
     14 C20         5.4602   -2.6130   -0.2273 C.2        1 <1>        0.000
     15 O7          5.0928   -1.4122   -2.5293 O.2        1 <1>        0.000
     16 H          -4.2289    0.3689   -0.2471 H.spc      1 <1>        0.000
     17 H          -1.6782   -1.1105   -1.2957 H.spc      1 <1>        0.000
     18 H          -2.0673    1.5148    0.1727 H.spc      1 <1>        0.000
     19 H           0.4019    0.0346   -0.8736 H.spc      1 <1>        0.000
     20 H           0.3485    2.5296    0.7796 H.spc      1 <1>        0.000
     21 H           2.3714   -1.0567   -1.3154 H.spc      1 <1>        0.000
     22 H           2.7251    2.5435   -0.1956 H.spc      1 <1>        0.000
     23 H           4.0317    0.7752    0.3666 H.spc      1 <1>        0.000
     24 H           1.9202   -0.7788    1.8333 H.spc      1 <1>        0.000
     25 H           2.9812   -2.7542    1.1968 H.spc      1 <1>        0.000
     26 H           5.7484   -3.0447    0.7312 H.spc      1 <1>        0.000
     27 H           6.1378   -2.6751   -1.0788 H.spc      1 <1>        0.000
@<TRIPOS>BOND
     1    1    2 1  
     2   13   15 2  
     3    9   10 1  
     4    2    4 2  
     5   10   11 2  
     6    6    8 1  
     7    1    3 2  
     8    8    9 2  
     9   12   14 2  
    10    4    5 1  
    11    5    6 2  
    12   11   12 1  
    13   12   13 1  
    14   13    7 1  
    15    1   16 1  
    16    2   17 1  
    17    4   18 1  
    18    5   19 1  
    19    6   20 1  
    20    7   21 1  
    21    8   22 1  
    22    9   23 1  
    23   10   24 1  
    24   11   25 1  
    25   14   26 1  
    26   14   27 1  
# Name:          frag3-281-3/96164
# Creation time: Sat Jun  5 12:53:26 2010


@<TRIPOS>MOLECULE
frag3-281-3/96164
   27    26     1     1     1
SMALL
USER_CHARGES


@<TRIPOS>ATOM
      1 C4         -3.0180   -0.8972   -0.8658 C.2        1 <1>        0.000
      2 C6         -1.6489   -0.4102   -0.7087 C.2        1 <1>        0.000
      3 O3         -3.4339   -1.5545   -1.8073 O.2        1 <1>        0.000
      4 C8         -1.1850    0.3480    0.2916 C.2        1 <1>        0.000
      5 C11         0.1503    0.8193    0.4624 C.2        1 <1>        0.000
      6 C12         1.0502    1.2070   -0.4592 C.2        1 <1>        0.000
      7 O6          4.1195   -1.5464   -2.7365 O.3        1 <1>        0.000
      8 C13         2.4009    1.6410   -0.2626 C.2        1 <1>        0.000
      9 C14         3.2773    1.0175    0.5514 C.2        1 <1>        0.000
     10 C15         3.0684   -0.1923    1.3364 C.2        1 <1>        0.000
     11 C16         2.9128   -1.4251    0.7968 C.2        1 <1>        0.000
     12 C18         2.9661   -1.7568   -0.6120 C.2        1 <1>        0.000
     13 C19         4.1675   -1.4455   -1.4123 C.2        1 <1>        0.000
     14 C20         1.9989   -2.2926   -1.3691 C.2        1 <1>        0.000
     15 O7          5.1970   -1.0855   -0.8549 O.2        1 <1>        0.000
     16 H          -3.7280   -0.6530   -0.0756 H.spc      1 <1>        0.000
     17 H          -0.9353   -0.6925   -1.4828 H.spc      1 <1>        0.000
     18 H          -1.9046    0.6363    1.0579 H.spc      1 <1>        0.000
     19 H           0.4933    0.8735    1.4956 H.spc      1 <1>        0.000
     20 H           0.7056    1.1884   -1.4931 H.spc      1 <1>        0.000
     21 H           3.2447   -1.8389   -3.0025 H.spc      1 <1>        0.000
     22 H           2.7400    2.5257   -0.8016 H.spc      1 <1>        0.000
     23 H           4.2634    1.4750    0.6319 H.spc      1 <1>        0.000
     24 H           3.0354   -0.0998    2.4220 H.spc      1 <1>        0.000
     25 H           2.7299   -2.2465    1.4896 H.spc      1 <1>        0.000
     26 H           1.0307   -2.5305   -0.9285 H.spc      1 <1>        0.000
     27 H           2.1804   -2.4905   -2.4255 H.spc      1 <1>        0.000
@<TRIPOS>BOND
     1    1    2 1  
     2   13   15 2  
     3    9   10 1  
     4    2    4 2  
     5   10   11 2  
     6    6    8 1  
     7    1    3 2  
     8    8    9 2  
     9   12   14 2  
    10    4    5 1  
    11    5    6 2  
    12   11   12 1  
    13   12   13 1  
    14   13    7 1  
    15    1   16 1  
    16    2   17 1  
    17    4   18 1  
    18    5   19 1  
    19    6   20 1  
    20    7   21 1  
    21    8   22 1  
    22    9   23 1  
    23   10   24 1  
    24   11   25 1  
    25   14   26 1  
    26   14   27 1  
# Name:          frag3-281-3/96164
# Creation time: Sat Jun  5 12:53:26 2010


@<TRIPOS>MOLECULE
frag3-281-3/96164
   27    26     1     1     1
SMALL
USER_CHARGES


@<TRIPOS>ATOM
      1 C4         -3.9392   -0.0962   -0.9014 C.2        1 <1>        0.000
      2 C6         -2.6001    0.1004   -0.3476 C.2        1 <1>        0.000
      3 O3         -4.4936    0.6301   -1.7142 O.2        1 <1>        0.000
      4 C8         -1.9798   -0.6934    0.5375 C.2        1 <1>        0.000
      5 C11        -0.6811   -0.4610    1.0995 C.2        1 <1>        0.000
      6 C12         0.4558   -0.1363    0.4671 C.2        1 <1>        0.000
      7 O6          5.4635   -2.7040   -0.2619 O.3        1 <1>        0.000
      8 C13         1.7547    0.1335    1.0047 C.2        1 <1>        0.000
      9 C14         2.8264    0.5893    0.3479 C.2        1 <1>        0.000
     10 C15         3.0100    0.9074   -1.0526 C.2        1 <1>        0.000
     11 C16         3.5398    0.0186   -1.9202 C.2        1 <1>        0.000
     12 C18         4.0212   -1.3110   -1.6200 C.2        1 <1>        0.000
     13 C19         5.2226   -1.5076   -0.7892 C.2        1 <1>        0.000
     14 C20         3.4527   -2.4807   -1.9446 C.2        1 <1>        0.000
     15 O7          5.9703   -0.5622   -0.5548 O.2        1 <1>        0.000
     16 H          -4.4937   -0.9697   -0.5585 H.spc      1 <1>        0.000
     17 H          -2.0520    0.9790   -0.6879 H.spc      1 <1>        0.000
     18 H          -2.5078   -1.5919    0.8570 H.spc      1 <1>        0.000
     19 H          -0.6087   -0.5615    2.1824 H.spc      1 <1>        0.000
     20 H           0.3795   -0.0676   -0.6181 H.spc      1 <1>        0.000
     21 H           4.7852   -3.3206   -0.5471 H.spc      1 <1>        0.000
     22 H           1.8849   -0.0539    2.0705 H.spc      1 <1>        0.000
     23 H           3.7076    0.7476    0.9696 H.spc      1 <1>        0.000
     24 H           2.7125    1.8909   -1.4164 H.spc      1 <1>        0.000
     25 H           3.6123    0.3384   -2.9597 H.spc      1 <1>        0.000
     26 H           2.5153   -2.4954   -2.5007 H.spc      1 <1>        0.000
     27 H           3.9278   -3.4172   -1.6525 H.spc      1 <1>        0.000
@<TRIPOS>BOND
     1    1    2 1  
     2   13   15 2  
     3    9   10 1  
     4    2    4 2  
     5   10   11 2  
     6    6    8 1  
     7    1    3 2  
     8    8    9 2  
     9   12   14 2  
    10    4    5 1  
    11    5    6 2  
    12   11   12 1  
    13   12   13 1  
    14   13    7 1  
    15    1   16 1  
    16    2   17 1  
    17    4   18 1  
    18    5   19 1  
    19    6   20 1  
    20    7   21 1  
    21    8   22 1  
    22    9   23 1  
    23   10   24 1  
    24   11   25 1  
    25   14   26 1  
    26   14   27 1  
# Name:          frag3-281-3/96164
# Creation time: Sat Jun  5 12:53:26 2010


@<TRIPOS>MOLECULE
frag3-281-3/96164
   27    26     1     1     1
SMALL
USER_CHARGES


@<TRIPOS>ATOM
      1 C4         -3.9795   -0.1707   -0.7748 C.2        1 <1>        0.000
      2 C6         -2.5436    0.1034   -0.7320 C.2        1 <1>        0.000
      3 O3         -4.4983   -1.2298   -1.1082 O.2        1 <1>        0.000
      4 C8         -1.9595    1.2430   -0.3314 C.2        1 <1>        0.000
      5 C11        -0.5642    1.5264   -0.2868 C.2        1 <1>        0.000
      6 C12         0.4251    0.7625    0.1879 C.2        1 <1>        0.000
      7 O6          3.3093   -1.3107   -2.2254 O.3        1 <1>        0.000
      8 C13         1.8315    0.9727    0.2332 C.2        1 <1>        0.000
      9 C14         2.7915    0.1126    0.5597 C.2        1 <1>        0.000
     10 C15         2.8258   -1.2551    0.9922 C.2        1 <1>        0.000
     11 C16         3.7067   -2.1748    0.5636 C.2        1 <1>        0.000
     12 C18         4.7253   -1.9860   -0.4259 C.2        1 <1>        0.000
     13 C19         4.5367   -1.2362   -1.6987 C.2        1 <1>        0.000
     14 C20         6.0148   -2.3571   -0.3629 C.2        1 <1>        0.000
     15 O7          5.4017   -0.5734   -2.2403 O.2        1 <1>        0.000
     16 H          -4.6482    0.6395   -0.4841 H.spc      1 <1>        0.000
     17 H          -1.8814   -0.6986   -1.0583 H.spc      1 <1>        0.000
     18 H          -2.6266    2.0403   -0.0038 H.spc      1 <1>        0.000
     19 H          -0.2638    2.4923   -0.6928 H.spc      1 <1>        0.000
     20 H           0.0973   -0.1857    0.6141 H.spc      1 <1>        0.000
     21 H           2.7589   -1.8711   -1.6734 H.spc      1 <1>        0.000
     22 H           2.1674    1.9741   -0.0361 H.spc      1 <1>        0.000
     23 H           3.7870    0.5494    0.4800 H.spc      1 <1>        0.000
     24 H           2.0817   -1.5717    1.7230 H.spc      1 <1>        0.000
     25 H           3.6394   -3.1649    1.0145 H.spc      1 <1>        0.000
     26 H           6.3923   -2.8680    0.5229 H.spc      1 <1>        0.000
     27 H           6.6837   -2.1474   -1.1976 H.spc      1 <1>        0.000
@<TRIPOS>BOND
     1    1    2 1  
     2   13   15 2  
     3    9   10 1  
     4    2    4 2  
     5   10   11 2  
     6    6    8 1  
     7    1    3 2  
     8    8    9 2  
     9   12   14 2  
    10    4    5 1  
    11    5    6 2  
    12   11   12 1  
    13   12   13 1  
    14   13    7 1  
    15    1   16 1  
    16    2   17 1  
    17    4   18 1  
    18    5   19 1  
    19    6   20 1  
    20    7   21 1  
    21    8   22 1  
    22    9   23 1  
    23   10   24 1  
    24   11   25 1  
    25   14   26 1  
    26   14   27 1  
# Name:          frag3-281-3/96164
# Creation time: Sat Jun  5 12:53:26 2010


@<TRIPOS>MOLECULE
frag3-281-3/96164
   27    26     1     1     1
SMALL
USER_CHARGES


@<TRIPOS>ATOM
      1 C4         -4.0756    0.0440   -0.0356 C.2        1 <1>        0.000
      2 C6         -2.7068    0.1472   -0.5364 C.2        1 <1>        0.000
      3 O3         -4.4800   -0.0010    1.1135 O.2        1 <1>        0.000
      4 C8         -1.6558    0.3043    0.2728 C.2        1 <1>        0.000
      5 C11        -0.2843    0.3955   -0.0817 C.2        1 <1>        0.000
      6 C12         0.2599    0.9804   -1.1502 C.2        1 <1>        0.000
      7 O6          4.2121   -0.5792    0.9517 O.3        1 <1>        0.000
      8 C13         1.6194    1.0379   -1.5508 C.2        1 <1>        0.000
      9 C14         2.4061   -0.0361   -1.6287 C.2        1 <1>        0.000
     10 C15         2.2038   -1.4429   -1.4085 C.2        1 <1>        0.000
     11 C16         3.1601   -2.3271   -1.1011 C.2        1 <1>        0.000
     12 C18         4.5500   -2.0454   -0.8910 C.2        1 <1>        0.000
     13 C19         5.0631   -0.9837    0.0102 C.2        1 <1>        0.000
     14 C20         5.5827   -2.6022   -1.5367 C.2        1 <1>        0.000
     15 O7          6.1685   -0.4651   -0.0770 O.2        1 <1>        0.000
     16 H          -4.8490    0.0009   -0.8025 H.spc      1 <1>        0.000
     17 H          -2.5368    0.0939   -1.6117 H.spc      1 <1>        0.000
     18 H          -1.8790    0.3707    1.3376 H.spc      1 <1>        0.000
     19 H           0.4158   -0.0737    0.6095 H.spc      1 <1>        0.000
     20 H          -0.4423    1.4879   -1.8115 H.spc      1 <1>        0.000
     21 H           3.3978   -1.0831    0.8833 H.spc      1 <1>        0.000
     22 H           2.0425    2.0090   -1.8080 H.spc      1 <1>        0.000
     23 H           3.4271    0.2054   -1.9243 H.spc      1 <1>        0.000
     24 H           1.1855   -1.8208   -1.4997 H.spc      1 <1>        0.000
     25 H           2.8508   -3.3674   -1.0002 H.spc      1 <1>        0.000
     26 H           5.4033   -3.3504   -2.3088 H.spc      1 <1>        0.000
     27 H           6.6026   -2.3072   -1.2901 H.spc      1 <1>        0.000
@<TRIPOS>BOND
     1    1    2 1  
     2   13   15 2  
     3    9   10 1  
     4    2    4 2  
     5   10   11 2  
     6    6    8 1  
     7    1    3 2  
     8    8    9 2  
     9   12   14 2  
    10    4    5 1  
    11    5    6 2  
    12   11   12 1  
    13   12   13 1  
    14   13    7 1  
    15    1   16 1  
    16    2   17 1  
    17    4   18 1  
    18    5   19 1  
    19    6   20 1  
    20    7   21 1  
    21    8   22 1  
    22    9   23 1  
    23   10   24 1  
    24   11   25 1  
    25   14   26 1  
    26   14   27 1  
# Name:          frag3-281-3/96164
# Creation time: Sat Jun  5 12:53:26 2010


@<TRIPOS>MOLECULE
frag3-281-3/96164
   27    26     1     1     1
SMALL
USER_CHARGES


@<TRIPOS>ATOM
      1 C4         -4.3402   -0.4986    0.2471 C.2        1 <1>        0.000
      2 C6         -3.0327   -0.5432   -0.3970 C.2        1 <1>        0.000
      3 O3         -4.8367    0.3176    1.0046 O.2        1 <1>        0.000
      4 C8         -2.1169    0.4147   -0.2267 C.2        1 <1>        0.000
      5 C11        -0.8142    0.4805   -0.7981 C.2        1 <1>        0.000
      6 C12         0.1669    1.3883   -0.7255 C.2        1 <1>        0.000
      7 O6          6.9253   -1.6019   -0.9501 O.3        1 <1>        0.000
      8 C13         1.4536    1.2982   -1.3423 C.2        1 <1>        0.000
      9 C14         2.3160    0.2915   -1.1429 C.2        1 <1>        0.000
     10 C15         2.2941   -0.9031   -0.3240 C.2        1 <1>        0.000
     11 C16         3.2719   -1.8220   -0.2695 C.2        1 <1>        0.000
     12 C18         4.5281   -1.8583   -0.9647 C.2        1 <1>        0.000
     13 C19         5.7695   -1.4306   -0.3131 C.2        1 <1>        0.000
     14 C20         4.7018   -2.1843   -2.2497 C.2        1 <1>        0.000
     15 O7          5.7367   -0.9220    0.8022 O.2        1 <1>        0.000
     16 H          -4.9872   -1.3431    0.0097 H.spc      1 <1>        0.000
     17 H          -2.7936   -1.3893   -1.0412 H.spc      1 <1>        0.000
     18 H          -2.3996    1.2414    0.4250 H.spc      1 <1>        0.000
     19 H          -0.5664   -0.3806   -1.4187 H.spc      1 <1>        0.000
     20 H          -0.0350    2.2842   -0.1385 H.spc      1 <1>        0.000
     21 H           6.7617   -2.0107   -1.8032 H.spc      1 <1>        0.000
     22 H           1.7525    2.0995   -2.0180 H.spc      1 <1>        0.000
     23 H           3.2330    0.3942   -1.7231 H.spc      1 <1>        0.000
     24 H           1.4141   -1.0694    0.2973 H.spc      1 <1>        0.000
     25 H           3.0851   -2.6621    0.3994 H.spc      1 <1>        0.000
     26 H           3.8430   -2.4538   -2.8645 H.spc      1 <1>        0.000
     27 H           5.7022   -2.1806   -2.6825 H.spc      1 <1>        0.000
@<TRIPOS>BOND
     1    1    2 1  
     2   13   15 2  
     3    9   10 1  
     4    2    4 2  
     5   10   11 2  
     6    6    8 1  
     7    1    3 2  
     8    8    9 2  
     9   12   14 2  
    10    4    5 1  
    11    5    6 2  
    12   11   12 1  
    13   12   13 1  
    14   13    7 1  
    15    1   16 1  
    16    2   17 1  
    17    4   18 1  
    18    5   19 1  
    19    6   20 1  
    20    7   21 1  
    21    8   22 1  
    22    9   23 1  
    23   10   24 1  
    24   11   25 1  
    25   14   26 1  
    26   14   27 1  
# Name:          frag3-281-3/96164
# Creation time: Sat Jun  5 12:53:26 2010


@<TRIPOS>MOLECULE
frag3-281-3/96164
   27    26     1     1     1
SMALL
USER_CHARGES


@<TRIPOS>ATOM
      1 C4         -4.1503    0.1541   -0.8987 C.2        1 <1>        0.000
      2 C6         -2.7654   -0.1531   -0.5514 C.2        1 <1>        0.000
      3 O3         -4.9267   -0.5726   -1.5090 O.2        1 <1>        0.000
      4 C8         -1.9173    0.6493    0.1090 C.2        1 <1>        0.000
      5 C11        -0.5710    0.3512    0.4685 C.2        1 <1>        0.000
      6 C12         0.3700    0.9600    1.1893 C.2        1 <1>        0.000
      7 O6          6.4559   -1.9205   -2.0331 O.3        1 <1>        0.000
      8 C13         1.7136    0.5352    1.4373 C.2        1 <1>        0.000
      9 C14         2.5422    0.0730    0.4985 C.2        1 <1>        0.000
     10 C15         2.3968   -0.1092   -0.9216 C.2        1 <1>        0.000
     11 C16         3.1148   -0.9422   -1.6844 C.2        1 <1>        0.000
     12 C18         4.1851   -1.7996   -1.2876 C.2        1 <1>        0.000
     13 C19         5.5707   -1.3458   -1.2234 C.2        1 <1>        0.000
     14 C20         4.1236   -3.0276   -0.7633 C.2        1 <1>        0.000
     15 O7          5.8813   -0.4254   -0.4796 O.2        1 <1>        0.000
     16 H          -4.5315    1.1256   -0.5842 H.spc      1 <1>        0.000
     17 H          -2.3847   -1.1273   -0.8581 H.spc      1 <1>        0.000
     18 H          -2.2964    1.6289    0.4002 H.spc      1 <1>        0.000
     19 H          -0.2306   -0.5989    0.0568 H.spc      1 <1>        0.000
     20 H           0.0784    1.9040    1.6497 H.spc      1 <1>        0.000
     21 H           6.0250   -2.6173   -2.5335 H.spc      1 <1>        0.000
     22 H           2.0850    0.5928    2.4604 H.spc      1 <1>        0.000
     23 H           3.5184   -0.2241    0.8818 H.spc      1 <1>        0.000
     24 H           1.6322    0.4854   -1.4215 H.spc      1 <1>        0.000
     25 H           2.8490   -0.9694   -2.7412 H.spc      1 <1>        0.000
     26 H           3.1559   -3.4978   -0.5886 H.spc      1 <1>        0.000
     27 H           5.0412   -3.5588   -0.5104 H.spc      1 <1>        0.000
@<TRIPOS>BOND
     1    1    2 1  
     2   13   15 2  
     3    9   10 1  
     4    2    4 2  
     5   10   11 2  
     6    6    8 1  
     7    1    3 2  
     8    8    9 2  
     9   12   14 2  
    10    4    5 1  
    11    5    6 2  
    12   11   12 1  
    13   12   13 1  
    14   13    7 1  
    15    1   16 1  
    16    2   17 1  
    17    4   18 1  
    18    5   19 1  
    19    6   20 1  
    20    7   21 1  
    21    8   22 1  
    22    9   23 1  
    23   10   24 1  
    24   11   25 1  
    25   14   26 1  
    26   14   27 1  
# Name:          frag3-281-3/96164
# Creation time: Sat Jun  5 12:53:26 2010


@<TRIPOS>MOLECULE
frag3-281-3/96164
   27    26     1     1     1
SMALL
USER_CHARGES


@<TRIPOS>ATOM
      1 C4         -4.4105    0.0753   -0.3767 C.2        1 <1>        0.000
      2 C6         -2.9780    0.3021   -0.2092 C.2        1 <1>        0.000
      3 O3         -5.0566   -0.7972    0.1884 O.2        1 <1>        0.000
      4 C8         -2.2332    1.2171   -0.8415 C.2        1 <1>        0.000
      5 C11        -0.8259    1.4492   -0.6472 C.2        1 <1>        0.000
      6 C12         0.1329    0.5459   -0.4798 C.2        1 <1>        0.000
      7 O6          6.6158   -0.8335   -1.6213 O.3        1 <1>        0.000
      8 C13         1.5224    0.7450   -0.2566 C.2        1 <1>        0.000
      9 C14         2.4610   -0.1880   -0.0561 C.2        1 <1>        0.000
     10 C15         2.4800   -1.6250    0.0109 C.2        1 <1>        0.000
     11 C16         3.5834   -2.3932   -0.0563 C.2        1 <1>        0.000
     12 C18         4.9372   -1.9628   -0.2351 C.2        1 <1>        0.000
     13 C19         5.3481   -1.2057   -1.4450 C.2        1 <1>        0.000
     14 C20         5.9189   -2.0344    0.6683 C.2        1 <1>        0.000
     15 O7          4.5278   -0.8680   -2.2925 O.2        1 <1>        0.000
     16 H          -4.9469    0.7350   -1.0588 H.spc      1 <1>        0.000
     17 H          -2.4617   -0.3400    0.5044 H.spc      1 <1>        0.000
     18 H          -2.7405    1.8462   -1.5730 H.spc      1 <1>        0.000
     19 H          -0.5091    2.4921   -0.6362 H.spc      1 <1>        0.000
     20 H          -0.1911   -0.4941   -0.5191 H.spc      1 <1>        0.000
     21 H           7.1484   -1.1602   -0.8924 H.spc      1 <1>        0.000
     22 H           1.8641    1.7800   -0.2476 H.spc      1 <1>        0.000
     23 H           3.4499    0.2458    0.0923 H.spc      1 <1>        0.000
     24 H           1.5226   -2.1333    0.1254 H.spc      1 <1>        0.000
     25 H           3.4281   -3.4681    0.0362 H.spc      1 <1>        0.000
     26 H           5.7221   -2.4538    1.6549 H.spc      1 <1>        0.000
     27 H           6.9166   -1.6734    0.4187 H.spc      1 <1>        0.000
@<TRIPOS>BOND
     1    1    2 1  
     2   13   15 2  
     3    9   10 1  
     4    2    4 2  
     5   10   11 2  
     6    6    8 1  
     7    1    3 2  
     8    8    9 2  
     9   12   14 2  
    10    4    5 1  
    11    5    6 2  
    12   11   12 1  
    13   12   13 1  
    14   13    7 1  
    15    1   16 1  
    16    2   17 1  
    17    4   18 1  
    18    5   19 1  
    19    6   20 1  
    20    7   21 1  
    21    8   22 1  
    22    9   23 1  
    23   10   24 1  
    24   11   25 1  
    25   14   26 1  
    26   14   27 1  
# Name:          frag3-281-3/96164
# Creation time: Sat Jun  5 12:53:26 2010


@<TRIPOS>MOLECULE
frag3-281-3/96164
   27    26     1     1     1
SMALL
USER_CHARGES


@<TRIPOS>ATOM
      1 C4         -4.7185   -0.1219   -0.0958 C.2        1 <1>        0.000
      2 C6         -3.4037    0.2554   -0.6161 C.2        1 <1>        0.000
      3 O3         -5.7957    0.0754   -0.6408 O.2        1 <1>        0.000
      4 C8         -2.2344    0.0497    0.0076 C.2        1 <1>        0.000
      5 C11        -0.9551    0.4257   -0.5110 C.2        1 <1>        0.000
      6 C12         0.2971    0.1843   -0.1006 C.2        1 <1>        0.000
      7 O6          5.7960   -2.0979   -2.5170 O.3        1 <1>        0.000
      8 C13         1.5281    0.6106   -0.7088 C.2        1 <1>        0.000
      9 C14         2.7773    0.3972   -0.2905 C.2        1 <1>        0.000
     10 C15         3.3796   -0.2636    0.8471 C.2        1 <1>        0.000
     11 C16         4.5435   -0.9346    0.8211 C.2        1 <1>        0.000
     12 C18         5.3941   -1.1474   -0.3295 C.2        1 <1>        0.000
     13 C19         4.9648   -1.9428   -1.4900 C.2        1 <1>        0.000
     14 C20         6.5950   -0.6043   -0.5225 C.2        1 <1>        0.000
     15 O7          3.8553   -2.4590   -1.5030 O.2        1 <1>        0.000
     16 H          -4.7400   -0.6271    0.8698 H.spc      1 <1>        0.000
     17 H          -3.3722    0.7435   -1.5902 H.spc      1 <1>        0.000
     18 H          -2.2606   -0.4399    0.9811 H.spc      1 <1>        0.000
     19 H          -1.0101    1.0268   -1.4186 H.spc      1 <1>        0.000
     20 H           0.3949   -0.4096    0.8081 H.spc      1 <1>        0.000
     21 H           6.6144   -1.6289   -2.3385 H.spc      1 <1>        0.000
     22 H           1.4281    1.1824   -1.6314 H.spc      1 <1>        0.000
     23 H           3.5201    0.8213   -0.9661 H.spc      1 <1>        0.000
     24 H           2.8487   -0.2133    1.7977 H.spc      1 <1>        0.000
     25 H           4.8817   -1.3629    1.7646 H.spc      1 <1>        0.000
     26 H           7.0162    0.0670    0.2258 H.spc      1 <1>        0.000
     27 H           7.1565   -0.8312   -1.4288 H.spc      1 <1>        0.000
@<TRIPOS>BOND
     1    1    2 1  
     2   13   15 2  
     3    9   10 1  
     4    2    4 2  
     5   10   11 2  
     6    6    8 1  
     7    1    3 2  
     8    8    9 2  
     9   12   14 2  
    10    4    5 1  
    11    5    6 2  
    12   11   12 1  
    13   12   13 1  
    14   13    7 1  
    15    1   16 1  
    16    2   17 1  
    17    4   18 1  
    18    5   19 1  
    19    6   20 1  
    20    7   21 1  
    21    8   22 1  
    22    9   23 1  
    23   10   24 1  
    24   11   25 1  
    25   14   26 1  
    26   14   27 1  
# Name:          frag3-281-3/96164
# Creation time: Sat Jun  5 12:53:26 2010


@<TRIPOS>MOLECULE
frag3-281-3/96164
   27    26     1     1     1
SMALL
USER_CHARGES


@<TRIPOS>ATOM
      1 C4         -4.3575    0.3941    0.3786 C.2        1 <1>        0.000
      2 C6         -2.9988    0.5088   -0.1449 C.2        1 <1>        0.000
      3 O3         -5.0404    1.3148    0.8078 O.2        1 <1>        0.000
      4 C8         -2.1977   -0.5023   -0.5060 C.2        1 <1>        0.000
      5 C11        -0.8762   -0.4032   -1.0245 C.2        1 <1>        0.000
      6 C12         0.0637    0.5061   -0.7156 C.2        1 <1>        0.000
      7 O6          6.6222   -0.4452   -1.2508 O.3        1 <1>        0.000
      8 C13         1.3798    0.6229   -1.2281 C.2        1 <1>        0.000
      9 C14         2.3557   -0.2605   -1.0114 C.2        1 <1>        0.000
     10 C15         2.4545   -1.4907   -0.2600 C.2        1 <1>        0.000
     11 C16         3.5475   -2.2661   -0.1669 C.2        1 <1>        0.000
     12 C18         4.8295   -2.0089   -0.7623 C.2        1 <1>        0.000
     13 C19         5.5715   -0.7597   -0.5018 C.2        1 <1>        0.000
     14 C20         5.4634   -2.7816   -1.6536 C.2        1 <1>        0.000
     15 O7          5.2060   -0.0016    0.3897 O.2        1 <1>        0.000
     16 H          -4.8033   -0.6005    0.3879 H.spc      1 <1>        0.000
     17 H          -2.5971    1.5164   -0.2523 H.spc      1 <1>        0.000
     18 H          -2.6011   -1.5083   -0.3903 H.spc      1 <1>        0.000
     19 H          -0.5923   -1.1552   -1.7607 H.spc      1 <1>        0.000
     20 H          -0.2237    1.2513    0.0261 H.spc      1 <1>        0.000
     21 H           6.7730   -1.1397   -1.8962 H.spc      1 <1>        0.000
     22 H           1.6105    1.4941   -1.8413 H.spc      1 <1>        0.000
     23 H           3.2862    0.0050   -1.5132 H.spc      1 <1>        0.000
     24 H           1.5649   -1.8180    0.2780 H.spc      1 <1>        0.000
     25 H           3.4524   -3.1808    0.4182 H.spc      1 <1>        0.000
     26 H           5.0042   -3.7094   -1.9947 H.spc      1 <1>        0.000
     27 H           6.4386   -2.4827   -2.0380 H.spc      1 <1>        0.000
@<TRIPOS>BOND
     1    1    2 1  
     2   13   15 2  
     3    9   10 1  
     4    2    4 2  
     5   10   11 2  
     6    6    8 1  
     7    1    3 2  
     8    8    9 2  
     9   12   14 2  
    10    4    5 1  
    11    5    6 2  
    12   11   12 1  
    13   12   13 1  
    14   13    7 1  
    15    1   16 1  
    16    2   17 1  
    17    4   18 1  
    18    5   19 1  
    19    6   20 1  
    20    7   21 1  
    21    8   22 1  
    22    9   23 1  
    23   10   24 1  
    24   11   25 1  
    25   14   26 1  
    26   14   27 1  
# Name:          frag3-281-3/96164
# Creation time: Sat Jun  5 12:53:26 2010


@<TRIPOS>MOLECULE
frag3-281-3/96164
   27    26     1     1     1
SMALL
USER_CHARGES


@<TRIPOS>ATOM
      1 C4         -3.6403   -0.4461   -0.6413 C.2        1 <1>        0.000
      2 C6         -2.1806   -0.3411   -0.6699 C.2        1 <1>        0.000
      3 O3         -4.3016   -1.4295   -0.9390 O.2        1 <1>        0.000
      4 C8         -1.4674    0.7351   -0.3106 C.2        1 <1>        0.000
      5 C11        -0.0430    0.8368   -0.3065 C.2        1 <1>        0.000
      6 C12         0.8268    1.7498    0.1471 C.2        1 <1>        0.000
      7 O6          5.1344   -1.2028   -2.4984 O.3        1 <1>        0.000
      8 C13         2.2597    1.6802    0.1129 C.2        1 <1>        0.000
      9 C14         2.9845    0.6115    0.4777 C.2        1 <1>        0.000
     10 C15         2.6564   -0.6982    1.0089 C.2        1 <1>        0.000
     11 C16         3.2164   -1.8561    0.6144 C.2        1 <1>        0.000
     12 C18         4.2074   -2.0202   -0.4133 C.2        1 <1>        0.000
     13 C19         4.0517   -1.4270   -1.7579 C.2        1 <1>        0.000
     14 C20         5.3756   -2.6592   -0.3034 C.2        1 <1>        0.000
     15 O7          2.9434   -1.1063   -2.1704 O.2        1 <1>        0.000
     16 H          -4.1910    0.4392   -0.3235 H.spc      1 <1>        0.000
     17 H          -1.6255   -1.2141   -1.0133 H.spc      1 <1>        0.000
     18 H          -2.0266    1.6147    0.0082 H.spc      1 <1>        0.000
     19 H           0.4447   -0.0173   -0.7763 H.spc      1 <1>        0.000
     20 H           0.3971    2.6470    0.5925 H.spc      1 <1>        0.000
     21 H           5.9120   -1.5127   -2.0284 H.spc      1 <1>        0.000
     22 H           2.7994    2.5609   -0.2353 H.spc      1 <1>        0.000
     23 H           4.0562    0.7601    0.3459 H.spc      1 <1>        0.000
     24 H           1.8966   -0.7479    1.7888 H.spc      1 <1>        0.000
     25 H           2.8853   -2.7602    1.1254 H.spc      1 <1>        0.000
     26 H           5.6564   -3.1228    0.6423 H.spc      1 <1>        0.000
     27 H           6.0479   -2.7169   -1.1595 H.spc      1 <1>        0.000
@<TRIPOS>BOND
     1    1    2 1  
     2   13   15 2  
     3    9   10 1  
     4    2    4 2  
     5   10   11 2  
     6    6    8 1  
     7    1    3 2  
     8    8    9 2  
     9   12   14 2  
    10    4    5 1  
    11    5    6 2  
    12   11   12 1  
    13   12   13 1  
    14   13    7 1  
    15    1   16 1  
    16    2   17 1  
    17    4   18 1  
    18    5   19 1  
    19    6   20 1  
    20    7   21 1  
    21    8   22 1  
    22    9   23 1  
    23   10   24 1  
    24   11   25 1  
    25   14   26 1  
    26   14   27 1  
# Name:          frag3-281-3/96164
# Creation time: Sat Jun  5 12:53:26 2010


@<TRIPOS>MOLECULE
frag3-281-3/96164
   27    26     1     1     1
SMALL
USER_CHARGES


@<TRIPOS>ATOM
      1 C4         -4.5759    0.0538   -0.6324 C.2        1 <1>        0.000
      2 C6         -3.1970    0.5329   -0.7420 C.2        1 <1>        0.000
      3 O3         -5.5646    0.5549   -1.1508 O.2        1 <1>        0.000
      4 C8         -2.1181   -0.0466   -0.1972 C.2        1 <1>        0.000
      5 C11        -0.7753    0.4303   -0.3024 C.2        1 <1>        0.000
      6 C12         0.3926    0.0033    0.1845 C.2        1 <1>        0.000
      7 O6          3.6052   -1.7131   -2.1092 O.3        1 <1>        0.000
      8 C13         1.6970    0.5722    0.0269 C.2        1 <1>        0.000
      9 C14         2.8719    0.0667    0.4036 C.2        1 <1>        0.000
     10 C15         3.2861   -1.1320    1.0839 C.2        1 <1>        0.000
     11 C16         4.3516   -1.8710    0.7407 C.2        1 <1>        0.000
     12 C18         5.2366   -1.6258   -0.3739 C.2        1 <1>        0.000
     13 C19         4.7900   -1.2302   -1.7308 C.2        1 <1>        0.000
     14 C20         6.5825   -1.6736   -0.3899 C.2        1 <1>        0.000
     15 O7          5.4406   -0.4950   -2.4607 O.2        1 <1>        0.000
     16 H          -4.7382   -0.8389   -0.0284 H.spc      1 <1>        0.000
     17 H          -3.0328    1.4431   -1.3187 H.spc      1 <1>        0.000
     18 H          -2.2789   -0.9601    0.3753 H.spc      1 <1>        0.000
     19 H          -0.6852    1.3325   -0.9074 H.spc      1 <1>        0.000
     20 H           0.3464   -0.9048    0.7856 H.spc      1 <1>        0.000
     21 H           3.2483   -2.2660   -1.4103 H.spc      1 <1>        0.000
     22 H           1.7344    1.5444   -0.4646 H.spc      1 <1>        0.000
     23 H           3.7110    0.7084    0.1347 H.spc      1 <1>        0.000
     24 H           2.6931   -1.4621    1.9368 H.spc      1 <1>        0.000
     25 H           4.5703   -2.7393    1.3623 H.spc      1 <1>        0.000
     26 H           7.1299   -1.9225    0.5193 H.spc      1 <1>        0.000
     27 H           7.1244   -1.4634   -1.3120 H.spc      1 <1>        0.000
@<TRIPOS>BOND
     1    1    2 1  
     2   13   15 2  
     3    9   10 1  
     4    2    4 2  
     5   10   11 2  
     6    6    8 1  
     7    1    3 2  
     8    8    9 2  
     9   12   14 2  
    10    4    5 1  
    11    5    6 2  
    12   11   12 1  
    13   12   13 1  
    14   13    7 1  
    15    1   16 1  
    16    2   17 1  
    17    4   18 1  
    18    5   19 1  
    19    6   20 1  
    20    7   21 1  
    21    8   22 1  
    22    9   23 1  
    23   10   24 1  
    24   11   25 1  
    25   14   26 1  
    26   14   27 1  
# Name:          frag3-281-3/96164
# Creation time: Sat Jun  5 12:53:26 2010


@<TRIPOS>MOLECULE
frag3-281-3/96164
   27    26     1     1     1
SMALL
USER_CHARGES


@<TRIPOS>ATOM
      1 C4         -4.3467    0.2505   -0.5940 C.2        1 <1>        0.000
      2 C6         -2.9269    0.1449   -0.2455 C.2        1 <1>        0.000
      3 O3         -4.9173   -0.3388   -1.4916 O.2        1 <1>        0.000
      4 C8         -2.2915    0.7915    0.7325 C.2        1 <1>        0.000
      5 C11        -0.9216    0.7166    1.1142 C.2        1 <1>        0.000
      6 C12         0.1341    0.4580    0.3472 C.2        1 <1>        0.000
      7 O6          6.5062   -1.6578    0.0775 O.3        1 <1>        0.000
      8 C13         1.5095    0.3438    0.6228 C.2        1 <1>        0.000
      9 C14         2.4899   -0.0664   -0.1833 C.2        1 <1>        0.000
     10 C15         2.5507   -0.5054   -1.5421 C.2        1 <1>        0.000
     11 C16         3.4576   -1.3490   -2.0521 C.2        1 <1>        0.000
     12 C18         4.5641   -1.9576   -1.3685 C.2        1 <1>        0.000
     13 C19         5.6914   -1.1574   -0.8523 C.2        1 <1>        0.000
     14 C20         4.6601   -3.2411   -0.9971 C.2        1 <1>        0.000
     15 O7          5.8638   -0.0051   -1.2173 O.2        1 <1>        0.000
     16 H          -4.9516    0.9248    0.0122 H.spc      1 <1>        0.000
     17 H          -2.3264   -0.5346   -0.8502 H.spc      1 <1>        0.000
     18 H          -2.9062    1.4720    1.3217 H.spc      1 <1>        0.000
     19 H          -0.7113    0.8937    2.1690 H.spc      1 <1>        0.000
     20 H          -0.1156    0.3041   -0.7026 H.spc      1 <1>        0.000
     21 H           6.2560   -2.5653    0.2658 H.spc      1 <1>        0.000
     22 H           1.8144    0.6287    1.6298 H.spc      1 <1>        0.000
     23 H           3.4647   -0.0669    0.3043 H.spc      1 <1>        0.000
     24 H           1.7923   -0.1197   -2.2234 H.spc      1 <1>        0.000
     25 H           3.3426   -1.6024   -3.1060 H.spc      1 <1>        0.000
     26 H           3.8454   -3.9329   -1.2114 H.spc      1 <1>        0.000
     27 H           5.5529   -3.5937   -0.4806 H.spc      1 <1>        0.000
@<TRIPOS>BOND
     1    1    2 1  
     2   13   15 2  
     3    9   10 1  
     4    2    4 2  
     5   10   11 2  
     6    6    8 1  
     7    1    3 2  
     8    8    9 2  
     9   12   14 2  
    10    4    5 1  
    11    5    6 2  
    12   11   12 1  
    13   12   13 1  
    14   13    7 1  
    15    1   16 1  
    16    2   17 1  
    17    4   18 1  
    18    5   19 1  
    19    6   20 1  
    20    7   21 1  
    21    8   22 1  
    22    9   23 1  
    23   10   24 1  
    24   11   25 1  
    25   14   26 1  
    26   14   27 1  
# Name:          frag3-281-3/96164
# Creation time: Sat Jun  5 12:53:26 2010


@<TRIPOS>MOLECULE
frag3-281-3/96164
   27    26     1     1     1
SMALL
USER_CHARGES


@<TRIPOS>ATOM
      1 C4         -2.3215    0.0313   -2.1745 C.2        1 <1>        0.000
      2 C6         -1.1740   -0.2448   -1.3199 C.2        1 <1>        0.000
      3 O3         -3.3359    0.6675   -1.9442 O.2        1 <1>        0.000
      4 C8         -1.1387    0.0859   -0.0260 C.2        1 <1>        0.000
      5 C11        -0.0801   -0.1143    0.8949 C.2        1 <1>        0.000
      6 C12         0.7446   -1.1601    1.0287 C.2        1 <1>        0.000
      7 O6          3.6870   -1.9076   -3.0372 O.3        1 <1>        0.000
      8 C13         1.8269   -1.2997    1.9441 C.2        1 <1>        0.000
      9 C14         2.9161   -0.5170    1.9702 C.2        1 <1>        0.000
     10 C15         3.3234    0.5868    1.1469 C.2        1 <1>        0.000
     11 C16         3.7537    0.4069   -0.1124 C.2        1 <1>        0.000
     12 C18         3.8900   -0.7858   -0.8943 C.2        1 <1>        0.000
     13 C19         3.1961   -1.0277   -2.1656 C.2        1 <1>        0.000
     14 C20         4.5589   -1.8888   -0.5185 C.2        1 <1>        0.000
     15 O7          2.1766   -0.4058   -2.4418 O.2        1 <1>        0.000
     16 H          -2.2642   -0.3975   -3.1750 H.spc      1 <1>        0.000
     17 H          -0.3073   -0.7425   -1.7550 H.spc      1 <1>        0.000
     18 H          -2.0326    0.5683    0.3695 H.spc      1 <1>        0.000
     19 H           0.0869    0.7028    1.5968 H.spc      1 <1>        0.000
     20 H           0.5674   -2.0023    0.3598 H.spc      1 <1>        0.000
     21 H           4.4812   -2.3067   -2.6744 H.spc      1 <1>        0.000
     22 H           1.7655   -2.1028    2.6785 H.spc      1 <1>        0.000
     23 H           3.6223   -0.7646    2.7627 H.spc      1 <1>        0.000
     24 H           3.2822    1.5968    1.5547 H.spc      1 <1>        0.000
     25 H           4.0488    1.3220   -0.6259 H.spc      1 <1>        0.000
     26 H           5.0531   -1.9221    0.4524 H.spc      1 <1>        0.000
     27 H           4.6073   -2.7503   -1.1846 H.spc      1 <1>        0.000
@<TRIPOS>BOND
     1    1    2 1  
     2   13   15 2  
     3    9   10 1  
     4    2    4 2  
     5   10   11 2  
     6    6    8 1  
     7    1    3 2  
     8    8    9 2  
     9   12   14 2  
    10    4    5 1  
    11    5    6 2  
    12   11   12 1  
    13   12   13 1  
    14   13    7 1  
    15    1   16 1  
    16    2   17 1  
    17    4   18 1  
    18    5   19 1  
    19    6   20 1  
    20    7   21 1  
    21    8   22 1  
    22    9   23 1  
    23   10   24 1  
    24   11   25 1  
    25   14   26 1  
    26   14   27 1  
# Name:          frag3-281-3/96164
# Creation time: Sat Jun  5 12:53:26 2010


@<TRIPOS>MOLECULE
frag3-281-3/96164
   27    26     1     1     1
SMALL
USER_CHARGES


@<TRIPOS>ATOM
      1 C4         -4.4671    0.2842    0.1867 C.2        1 <1>        0.000
      2 C6         -3.1598    0.5246   -0.4228 C.2        1 <1>        0.000
      3 O3         -4.8633   -0.6498    0.8541 O.2        1 <1>        0.000
      4 C8         -2.1559   -0.3585   -0.3558 C.2        1 <1>        0.000
      5 C11        -0.8552   -0.2425   -0.9064 C.2        1 <1>        0.000
      6 C12        -0.0888    0.8564   -0.9812 C.2        1 <1>        0.000
      7 O6          6.7885   -2.1893   -1.2764 O.3        1 <1>        0.000
      8 C13         1.2031    0.9827   -1.5400 C.2        1 <1>        0.000
      9 C14         2.3128    0.4542   -1.0263 C.2        1 <1>        0.000
     10 C15         2.5788   -0.2988    0.1604 C.2        1 <1>        0.000
     11 C16         3.7459   -0.8698    0.4583 C.2        1 <1>        0.000
     12 C18         4.9673   -0.9215   -0.2927 C.2        1 <1>        0.000
     13 C19         5.5207   -2.1481   -0.8630 C.2        1 <1>        0.000
     14 C20         5.6744    0.1485   -0.6994 C.2        1 <1>        0.000
     15 O7          4.8219   -3.1456   -0.9453 O.2        1 <1>        0.000
     16 H          -5.2038    1.0689    0.0144 H.spc      1 <1>        0.000
     17 H          -2.9958    1.4622   -0.9540 H.spc      1 <1>        0.000
     18 H          -2.3644   -1.2794    0.1888 H.spc      1 <1>        0.000
     19 H          -0.4258   -1.1556   -1.3186 H.spc      1 <1>        0.000
     20 H          -0.5162    1.7654   -0.5580 H.spc      1 <1>        0.000
     21 H           7.1952   -1.3299   -1.1437 H.spc      1 <1>        0.000
     22 H           1.2989    1.5564   -2.4618 H.spc      1 <1>        0.000
     23 H           3.1995    0.6319   -1.6348 H.spc      1 <1>        0.000
     24 H           1.7648   -0.4146    0.8760 H.spc      1 <1>        0.000
     25 H           3.7772   -1.3765    1.4229 H.spc      1 <1>        0.000
     26 H           5.3274    1.1538   -0.4607 H.spc      1 <1>        0.000
     27 H           6.5943    0.0100   -1.2675 H.spc      1 <1>        0.000
@<TRIPOS>BOND
     1    1    2 1  
     2   13   15 2  
     3    9   10 1  
     4    2    4 2  
     5   10   11 2  
     6    6    8 1  
     7    1    3 2  
     8    8    9 2  
     9   12   14 2  
    10    4    5 1  
    11    5    6 2  
    12   11   12 1  
    13   12   13 1  
    14   13    7 1  
    15    1   16 1  
    16    2   17 1  
    17    4   18 1  
    18    5   19 1  
    19    6   20 1  
    20    7   21 1  
    21    8   22 1  
    22    9   23 1  
    23   10   24 1  
    24   11   25 1  
    25   14   26 1  
    26   14   27 1  
# Name:          frag3-281-3/96164
# Creation time: Sat Jun  5 12:53:26 2010


@<TRIPOS>MOLECULE
frag3-281-3/96164
   27    26     1     1     1
SMALL
USER_CHARGES


@<TRIPOS>ATOM
      1 C4         -4.5169   -0.0537    0.1685 C.2        1 <1>        0.000
      2 C6         -3.1843   -0.1170   -0.4190 C.2        1 <1>        0.000
      3 O3         -5.0956    0.8864    0.6842 O.2        1 <1>        0.000
      4 C8         -2.3496    0.9276   -0.3921 C.2        1 <1>        0.000
      5 C11        -1.0459    1.0123   -0.9402 C.2        1 <1>        0.000
      6 C12        -0.0452    0.1449   -0.8132 C.2        1 <1>        0.000
      7 O6          5.2836    0.3070   -0.3344 O.3        1 <1>        0.000
      8 C13         1.2530    0.1776   -1.3767 C.2        1 <1>        0.000
      9 C14         2.3237   -0.5018   -0.9852 C.2        1 <1>        0.000
     10 C15         2.5849   -1.4435    0.0566 C.2        1 <1>        0.000
     11 C16         3.7284   -2.1149    0.2186 C.2        1 <1>        0.000
     12 C18         4.9128   -2.0403   -0.5735 C.2        1 <1>        0.000
     13 C19         5.8329   -0.8790   -0.5996 C.2        1 <1>        0.000
     14 C20         5.3145   -2.9075   -1.5143 C.2        1 <1>        0.000
     15 O7          7.0270   -0.9713   -0.8293 O.2        1 <1>        0.000
     16 H          -5.0797   -0.9868    0.1426 H.spc      1 <1>        0.000
     17 H          -2.8587   -1.0425   -0.8940 H.spc      1 <1>        0.000
     18 H          -2.7165    1.8215    0.1123 H.spc      1 <1>        0.000
     19 H          -0.8369    1.8979   -1.5403 H.spc      1 <1>        0.000
     20 H          -0.2560   -0.7184   -0.1821 H.spc      1 <1>        0.000
     21 H           4.3429    0.1952   -0.1792 H.spc      1 <1>        0.000
     22 H           1.3892    0.8385   -2.2327 H.spc      1 <1>        0.000
     23 H           3.2019   -0.2944   -1.5966 H.spc      1 <1>        0.000
     24 H           1.7879   -1.6290    0.7766 H.spc      1 <1>        0.000
     25 H           3.7606   -2.8059    1.0610 H.spc      1 <1>        0.000
     26 H           4.7087   -3.7848   -1.7412 H.spc      1 <1>        0.000
     27 H           6.2468   -2.7350   -2.0521 H.spc      1 <1>        0.000
@<TRIPOS>BOND
     1    1    2 1  
     2   13   15 2  
     3    9   10 1  
     4    2    4 2  
     5   10   11 2  
     6    6    8 1  
     7    1    3 2  
     8    8    9 2  
     9   12   14 2  
    10    4    5 1  
    11    5    6 2  
    12   11   12 1  
    13   12   13 1  
    14   13    7 1  
    15    1   16 1  
    16    2   17 1  
    17    4   18 1  
    18    5   19 1  
    19    6   20 1  
    20    7   21 1  
    21    8   22 1  
    22    9   23 1  
    23   10   24 1  
    24   11   25 1  
    25   14   26 1  
    26   14   27 1  
# Name:          frag3-281-3/96164
# Creation time: Sat Jun  5 12:53:26 2010


@<TRIPOS>MOLECULE
frag3-281-3/96164
   27    26     1     1     1
SMALL
USER_CHARGES


@<TRIPOS>ATOM
      1 C4         -3.9626   -0.6923   -0.6312 C.2        1 <1>        0.000
      2 C6         -2.5300   -0.6185   -0.9008 C.2        1 <1>        0.000
      3 O3         -4.6643    0.0067    0.0791 O.2        1 <1>        0.000
      4 C8         -1.7653    0.3566   -0.4101 C.2        1 <1>        0.000
      5 C11        -0.3671    0.5408   -0.5809 C.2        1 <1>        0.000
      6 C12         0.4973    1.4709   -0.1610 C.2        1 <1>        0.000
      7 O6          5.5394   -0.7422   -2.0875 O.3        1 <1>        0.000
      8 C13         1.9062    1.4903   -0.3854 C.2        1 <1>        0.000
      9 C14         2.7523    0.5339    0.0006 C.2        1 <1>        0.000
     10 C15         2.6162   -0.7138    0.7360 C.2        1 <1>        0.000
     11 C16         3.4506   -1.7654    0.6691 C.2        1 <1>        0.000
     12 C18         4.6039   -1.8697   -0.1894 C.2        1 <1>        0.000
     13 C19         4.5407   -1.4811   -1.6088 C.2        1 <1>        0.000
     14 C20         5.8317   -2.3134    0.1157 C.2        1 <1>        0.000
     15 O7          3.5745   -1.7762   -2.2950 O.2        1 <1>        0.000
     16 H          -4.4866   -1.4981   -1.1452 H.spc      1 <1>        0.000
     17 H          -2.0706   -1.3859   -1.5238 H.spc      1 <1>        0.000
     18 H          -2.2754    1.1046    0.1968 H.spc      1 <1>        0.000
     19 H           0.0996   -0.2406   -1.1806 H.spc      1 <1>        0.000
     20 H           0.0825    2.3001    0.4121 H.spc      1 <1>        0.000
     21 H           6.2010   -0.6185   -1.4030 H.spc      1 <1>        0.000
     22 H           2.3219    2.3500   -0.9110 H.spc      1 <1>        0.000
     23 H           3.7797    0.7326   -0.3046 H.spc      1 <1>        0.000
     24 H           1.7586   -0.8042    1.4027 H.spc      1 <1>        0.000
     25 H           3.2367   -2.6128    1.3205 H.spc      1 <1>        0.000
     26 H           6.0523   -2.6542    1.1273 H.spc      1 <1>        0.000
     27 H           6.6093   -2.3333   -0.6478 H.spc      1 <1>        0.000
@<TRIPOS>BOND
     1    1    2 1  
     2   13   15 2  
     3    9   10 1  
     4    2    4 2  
     5   10   11 2  
     6    6    8 1  
     7    1    3 2  
     8    8    9 2  
     9   12   14 2  
    10    4    5 1  
    11    5    6 2  
    12   11   12 1  
    13   12   13 1  
    14   13    7 1  
    15    1   16 1  
    16    2   17 1  
    17    4   18 1  
    18    5   19 1  
    19    6   20 1  
    20    7   21 1  
    21    8   22 1  
    22    9   23 1  
    23   10   24 1  
    24   11   25 1  
    25   14   26 1  
    26   14   27 1  
# Name:          frag3-281-3/96164
# Creation time: Sat Jun  5 12:53:26 2010


@<TRIPOS>MOLECULE
frag3-281-3/96164
   27    26     1     1     1
SMALL
USER_CHARGES


@<TRIPOS>ATOM
      1 C4         -3.4121   -0.6932   -0.8330 C.2        1 <1>        0.000
      2 C6         -2.1080   -0.0589   -0.6549 C.2        1 <1>        0.000
      3 O3         -4.2812   -0.3245   -1.6098 O.2        1 <1>        0.000
      4 C8         -1.1560   -0.4296    0.2086 C.2        1 <1>        0.000
      5 C11         0.1067    0.2078    0.3938 C.2        1 <1>        0.000
      6 C12         0.9326    0.7561   -0.5148 C.2        1 <1>        0.000
      7 O6          4.4812   -1.3795   -2.7334 O.3        1 <1>        0.000
      8 C13         2.1858    1.4160   -0.2961 C.2        1 <1>        0.000
      9 C14         3.1457    0.9712    0.5336 C.2        1 <1>        0.000
     10 C15         3.1438   -0.2474    1.3239 C.2        1 <1>        0.000
     11 C16         3.2111   -1.4862    0.7872 C.2        1 <1>        0.000
     12 C18         3.3509   -1.7986   -0.6161 C.2        1 <1>        0.000
     13 C19         4.4848   -1.2765   -1.4038 C.2        1 <1>        0.000
     14 C20         2.5097   -2.4947   -1.4013 C.2        1 <1>        0.000
     15 O7          5.4281   -0.7351   -0.8336 O.2        1 <1>        0.000
     16 H          -3.6284   -1.5692   -0.2216 H.spc      1 <1>        0.000
     17 H          -1.8893    0.8010   -1.2880 H.spc      1 <1>        0.000
     18 H          -1.3648   -1.3009    0.8293 H.spc      1 <1>        0.000
     19 H           0.4539    0.2579    1.4258 H.spc      1 <1>        0.000
     20 H           0.6064    0.6900   -1.5528 H.spc      1 <1>        0.000
     21 H           3.6791   -1.8245   -3.0166 H.spc      1 <1>        0.000
     22 H           2.3736    2.3419   -0.8396 H.spc      1 <1>        0.000
     23 H           4.0312    1.6003    0.6240 H.spc      1 <1>        0.000
     24 H           3.0849   -0.1581    2.4086 H.spc      1 <1>        0.000
     25 H           3.1546   -2.3277    1.4777 H.spc      1 <1>        0.000
     26 H           1.5876   -2.9016   -0.9862 H.spc      1 <1>        0.000
     27 H           2.7500   -2.6519   -2.4528 H.spc      1 <1>        0.000
@<TRIPOS>BOND
     1    1    2 1  
     2   13   15 2  
     3    9   10 1  
     4    2    4 2  
     5   10   11 2  
     6    6    8 1  
     7    1    3 2  
     8    8    9 2  
     9   12   14 2  
    10    4    5 1  
    11    5    6 2  
    12   11   12 1  
    13   12   13 1  
    14   13    7 1  
    15    1   16 1  
    16    2   17 1  
    17    4   18 1  
    18    5   19 1  
    19    6   20 1  
    20    7   21 1  
    21    8   22 1  
    22    9   23 1  
    23   10   24 1  
    24   11   25 1  
    25   14   26 1  
    26   14   27 1  
# Name:          frag3-281-3/96164
# Creation time: Sat Jun  5 12:53:26 2010


@<TRIPOS>MOLECULE
frag3-281-3/96164
   27    26     1     1     1
SMALL
USER_CHARGES


@<TRIPOS>ATOM
      1 C4         -3.9385    0.1987    0.5691 C.2        1 <1>        0.000
      2 C6         -2.5802    0.2134    0.0284 C.2        1 <1>        0.000
      3 O3         -4.8427   -0.5408    0.2063 O.2        1 <1>        0.000
      4 C8         -1.5276    0.8693    0.5396 C.2        1 <1>        0.000
      5 C11        -0.1940    0.8658    0.0278 C.2        1 <1>        0.000
      6 C12         0.1995    0.8615   -1.2488 C.2        1 <1>        0.000
      7 O6          6.1553   -0.2987   -0.6088 O.3        1 <1>        0.000
      8 C13         1.5184    0.8028   -1.7804 C.2        1 <1>        0.000
      9 C14         2.3069   -0.2777   -1.7244 C.2        1 <1>        0.000
     10 C15         2.1535   -1.6292   -1.2132 C.2        1 <1>        0.000
     11 C16         3.1514   -2.4398   -0.8418 C.2        1 <1>        0.000
     12 C18         4.5512   -2.1068   -0.8274 C.2        1 <1>        0.000
     13 C19         5.0629   -0.9081   -0.1399 C.2        1 <1>        0.000
     14 C20         5.5467   -2.7456   -1.4549 C.2        1 <1>        0.000
     15 O7          4.4604   -0.4383    0.8187 O.2        1 <1>        0.000
     16 H          -4.1651    0.9085    1.3647 H.spc      1 <1>        0.000
     17 H          -2.4058   -0.3652   -0.8788 H.spc      1 <1>        0.000
     18 H          -1.7079    1.4643    1.4349 H.spc      1 <1>        0.000
     19 H           0.6023    0.8668    0.7721 H.spc      1 <1>        0.000
     20 H          -0.6015    0.9097   -1.9864 H.spc      1 <1>        0.000
     21 H           6.5012   -0.7939   -1.3550 H.spc      1 <1>        0.000
     22 H           1.9124    1.6962   -2.2649 H.spc      1 <1>        0.000
     23 H           3.2895   -0.1036   -2.1629 H.spc      1 <1>        0.000
     24 H           1.1383   -2.0160   -1.1246 H.spc      1 <1>        0.000
     25 H           2.8787   -3.4451   -0.5206 H.spc      1 <1>        0.000
     26 H           5.3328   -3.6258   -2.0611 H.spc      1 <1>        0.000
     27 H           6.5710   -2.3854   -1.3595 H.spc      1 <1>        0.000
@<TRIPOS>BOND
     1    1    2 1  
     2   13   15 2  
     3    9   10 1  
     4    2    4 2  
     5   10   11 2  
     6    6    8 1  
     7    1    3 2  
     8    8    9 2  
     9   12   14 2  
    10    4    5 1  
    11    5    6 2  
    12   11   12 1  
    13   12   13 1  
    14   13    7 1  
    15    1   16 1  
    16    2   17 1  
    17    4   18 1  
    18    5   19 1  
    19    6   20 1  
    20    7   21 1  
    21    8   22 1  
    22    9   23 1  
    23   10   24 1  
    24   11   25 1  
    25   14   26 1  
    26   14   27 1  
# Name:          frag3-281-3/96164
# Creation time: Sat Jun  5 12:53:26 2010


@<TRIPOS>MOLECULE
frag3-281-3/96164
   27    26     1     1     1
SMALL
USER_CHARGES


@<TRIPOS>ATOM
      1 C4         -4.7576    0.7946    0.0680 C.2        1 <1>        0.000
      2 C6         -3.3549    1.1108    0.3092 C.2        1 <1>        0.000
      3 O3         -5.2490   -0.1771   -0.4801 O.2        1 <1>        0.000
      4 C8         -2.3631    0.3324   -0.1349 C.2        1 <1>        0.000
      5 C11        -0.9694    0.5543    0.0266 C.2        1 <1>        0.000
      6 C12         0.0978    0.0096   -0.5532 C.2        1 <1>        0.000
      7 O6          5.6828   -0.0241   -1.6083 O.3        1 <1>        0.000
      8 C13         1.4666    0.3236   -0.3422 C.2        1 <1>        0.000
      9 C14         2.5368   -0.2955   -0.8242 C.2        1 <1>        0.000
     10 C15         2.7423   -1.4352   -1.6630 C.2        1 <1>        0.000
     11 C16         3.8123   -2.2414   -1.6246 C.2        1 <1>        0.000
     12 C18         4.9628   -2.1122   -0.7839 C.2        1 <1>        0.000
     13 C19         5.6987   -0.8490   -0.5572 C.2        1 <1>        0.000
     14 C20         5.4778   -3.0415    0.0292 C.2        1 <1>        0.000
     15 O7          6.2394   -0.5223    0.4890 O.2        1 <1>        0.000
     16 H          -5.4708    1.5349    0.4306 H.spc      1 <1>        0.000
     17 H          -3.1068    2.0118    0.8702 H.spc      1 <1>        0.000
     18 H          -2.6543   -0.5668   -0.6778 H.spc      1 <1>        0.000
     19 H          -0.7275    1.3166    0.7672 H.spc      1 <1>        0.000
     20 H          -0.1042   -0.7760   -1.2813 H.spc      1 <1>        0.000
     21 H           5.2186   -0.4440   -2.3362 H.spc      1 <1>        0.000
     22 H           1.6634    1.1836    0.2979 H.spc      1 <1>        0.000
     23 H           3.4707    0.1702   -0.5094 H.spc      1 <1>        0.000
     24 H           1.9662   -1.6670   -2.3924 H.spc      1 <1>        0.000
     25 H           3.8052   -3.0892   -2.3096 H.spc      1 <1>        0.000
     26 H           5.0106   -4.0238    0.0992 H.spc      1 <1>        0.000
     27 H           6.3646   -2.8163    0.6216 H.spc      1 <1>        0.000
@<TRIPOS>BOND
     1    1    2 1  
     2   13   15 2  
     3    9   10 1  
     4    2    4 2  
     5   10   11 2  
     6    6    8 1  
     7    1    3 2  
     8    8    9 2  
     9   12   14 2  
    10    4    5 1  
    11    5    6 2  
    12   11   12 1  
    13   12   13 1  
    14   13    7 1  
    15    1   16 1  
    16    2   17 1  
    17    4   18 1  
    18    5   19 1  
    19    6   20 1  
    20    7   21 1  
    21    8   22 1  
    22    9   23 1  
    23   10   24 1  
    24   11   25 1  
    25   14   26 1  
    26   14   27 1  
# Name:          frag3-281-3/96164
# Creation time: Sat Jun  5 12:53:26 2010


@<TRIPOS>MOLECULE
frag3-281-3/96164
   27    26     1     1     1
SMALL
USER_CHARGES


@<TRIPOS>ATOM
      1 C4         -4.9145    0.5982   -0.2727 C.2        1 <1>        0.000
      2 C6         -3.7828   -0.3172   -0.2160 C.2        1 <1>        0.000
      3 O3         -4.9513    1.8156   -0.3435 O.2        1 <1>        0.000
      4 C8         -2.5283    0.1223   -0.1116 C.2        1 <1>        0.000
      5 C11        -1.3489   -0.6627   -0.0445 C.2        1 <1>        0.000
      6 C12        -0.0531   -0.3736   -0.0251 C.2        1 <1>        0.000
      7 O6          6.7833   -2.3998   -1.1486 O.3        1 <1>        0.000
      8 C13         1.0486   -1.2710    0.0582 C.2        1 <1>        0.000
      9 C14         2.3411   -0.9913   -0.0657 C.2        1 <1>        0.000
     10 C15         3.0438    0.2278   -0.3165 C.2        1 <1>        0.000
     11 C16         4.2184    0.3120   -0.9465 C.2        1 <1>        0.000
     12 C18         5.0298   -0.7522   -1.4612 C.2        1 <1>        0.000
     13 C19         6.0334   -1.4306   -0.6306 C.2        1 <1>        0.000
     14 C20         4.9131   -1.3523   -2.6634 C.2        1 <1>        0.000
     15 O7          6.1907   -1.0986    0.5380 O.2        1 <1>        0.000
     16 H          -5.8912    0.1150   -0.2477 H.spc      1 <1>        0.000
     17 H          -3.9665   -1.3907   -0.2601 H.spc      1 <1>        0.000
     18 H          -2.3945    1.2034   -0.0737 H.spc      1 <1>        0.000
     19 H          -1.5493   -1.7332    0.0009 H.spc      1 <1>        0.000
     20 H           0.1990    0.6854   -0.0799 H.spc      1 <1>        0.000
     21 H           6.5372   -2.5375   -2.0662 H.spc      1 <1>        0.000
     22 H           0.8013   -2.3157    0.2468 H.spc      1 <1>        0.000
     23 H           2.9914   -1.8590    0.0453 H.spc      1 <1>        0.000
     24 H           2.5885    1.1551    0.0313 H.spc      1 <1>        0.000
     25 H           4.6106    1.3192   -1.0875 H.spc      1 <1>        0.000
     26 H           4.1359   -1.0340   -3.3583 H.spc      1 <1>        0.000
     27 H           5.5959   -2.1556   -2.9401 H.spc      1 <1>        0.000
@<TRIPOS>BOND
     1    1    2 1  
     2   13   15 2  
     3    9   10 1  
     4    2    4 2  
     5   10   11 2  
     6    6    8 1  
     7    1    3 2  
     8    8    9 2  
     9   12   14 2  
    10    4    5 1  
    11    5    6 2  
    12   11   12 1  
    13   12   13 1  
    14   13    7 1  
    15    1   16 1  
    16    2   17 1  
    17    4   18 1  
    18    5   19 1  
    19    6   20 1  
    20    7   21 1  
    21    8   22 1  
    22    9   23 1  
    23   10   24 1  
    24   11   25 1  
    25   14   26 1  
    26   14   27 1  
# Name:          frag3-281-3/96164
# Creation time: Sat Jun  5 12:53:26 2010


@<TRIPOS>MOLECULE
frag3-281-3/96164
   27    26     1     1     1
SMALL
USER_CHARGES


@<TRIPOS>ATOM
      1 C4         -4.1008    0.5615    0.7658 C.2        1 <1>        0.000
      2 C6         -2.8495    0.5437    0.0135 C.2        1 <1>        0.000
      3 O3         -4.7849    1.5504    0.9890 O.2        1 <1>        0.000
      4 C8         -2.0804   -0.5268   -0.2151 C.2        1 <1>        0.000
      5 C11        -0.8682   -0.5587   -0.9604 C.2        1 <1>        0.000
      6 C12         0.1125    0.3544   -1.0031 C.2        1 <1>        0.000
      7 O6          6.6459   -0.3674   -0.0867 O.3        1 <1>        0.000
      8 C13         1.3147    0.3228   -1.7624 C.2        1 <1>        0.000
      9 C14         2.2377   -0.6408   -1.6927 C.2        1 <1>        0.000
     10 C15         2.3731   -1.8428   -0.9080 C.2        1 <1>        0.000
     11 C16         3.5412   -2.3771   -0.5212 C.2        1 <1>        0.000
     12 C18         4.8545   -1.8576   -0.7611 C.2        1 <1>        0.000
     13 C19         5.3394   -0.6024   -0.1641 C.2        1 <1>        0.000
     14 C20         5.7434   -2.3445   -1.6351 C.2        1 <1>        0.000
     15 O7          4.5447    0.2122    0.2919 O.2        1 <1>        0.000
     16 H          -4.4561   -0.3893    1.1630 H.spc      1 <1>        0.000
     17 H          -2.5098    1.4927   -0.4012 H.spc      1 <1>        0.000
     18 H          -2.4164   -1.4711    0.2132 H.spc      1 <1>        0.000
     19 H          -0.7171   -1.4434   -1.5789 H.spc      1 <1>        0.000
     20 H          -0.0298    1.2340   -0.3753 H.spc      1 <1>        0.000
     21 H           7.1253   -1.0966   -0.4867 H.spc      1 <1>        0.000
     22 H           1.4967    1.1463   -2.4529 H.spc      1 <1>        0.000
     23 H           3.0700   -0.4839   -2.3788 H.spc      1 <1>        0.000
     24 H           1.4592   -2.3550   -0.6070 H.spc      1 <1>        0.000
     25 H           3.4847   -3.3109    0.0382 H.spc      1 <1>        0.000
     26 H           5.4909   -3.2139   -2.2421 H.spc      1 <1>        0.000
     27 H           6.7199   -1.8716   -1.7400 H.spc      1 <1>        0.000
@<TRIPOS>BOND
     1    1    2 1  
     2   13   15 2  
     3    9   10 1  
     4    2    4 2  
     5   10   11 2  
     6    6    8 1  
     7    1    3 2  
     8    8    9 2  
     9   12   14 2  
    10    4    5 1  
    11    5    6 2  
    12   11   12 1  
    13   12   13 1  
    14   13    7 1  
    15    1   16 1  
    16    2   17 1  
    17    4   18 1  
    18    5   19 1  
    19    6   20 1  
    20    7   21 1  
    21    8   22 1  
    22    9   23 1  
    23   10   24 1  
    24   11   25 1  
    25   14   26 1  
    26   14   27 1  
# Name:          frag3-281-3/96164
# Creation time: Sat Jun  5 12:53:26 2010


@<TRIPOS>MOLECULE
frag3-281-3/96164
   27    26     1     1     1
SMALL
USER_CHARGES


@<TRIPOS>ATOM
      1 C4         -4.8347    0.2454   -0.0764 C.2        1 <1>        0.000
      2 C6         -3.4870    0.5697   -0.5246 C.2        1 <1>        0.000
      3 O3         -5.8709    0.6109   -0.6115 O.2        1 <1>        0.000
      4 C8         -2.3527    0.1446    0.0438 C.2        1 <1>        0.000
      5 C11        -1.0391    0.4671   -0.4042 C.2        1 <1>        0.000
      6 C12         0.1762    0.0708   -0.0314 C.2        1 <1>        0.000
      7 O6          6.6028   -1.0203   -2.1867 O.3        1 <1>        0.000
      8 C13         1.4426    0.4751   -0.5600 C.2        1 <1>        0.000
      9 C14         2.6405   -0.0376   -0.2738 C.2        1 <1>        0.000
     10 C15         3.0549   -1.1016    0.6056 C.2        1 <1>        0.000
     11 C16         4.0332   -1.9795    0.3351 C.2        1 <1>        0.000
     12 C18         4.8755   -2.0212   -0.8298 C.2        1 <1>        0.000
     13 C19         5.9010   -0.9927   -1.0624 C.2        1 <1>        0.000
     14 C20         4.7850   -2.8844   -1.8481 C.2        1 <1>        0.000
     15 O7          6.0958   -0.1195   -0.2252 O.2        1 <1>        0.000
     16 H          -4.9269   -0.3773    0.8135 H.spc      1 <1>        0.000
     17 H          -3.3947    1.2144   -1.3986 H.spc      1 <1>        0.000
     18 H          -2.4405   -0.4994    0.9188 H.spc      1 <1>        0.000
     19 H          -1.0264    1.1878   -1.2218 H.spc      1 <1>        0.000
     20 H           0.2106   -0.6550    0.7811 H.spc      1 <1>        0.000
     21 H           6.3199   -1.7660   -2.7210 H.spc      1 <1>        0.000
     22 H           1.4270    1.2950   -1.2780 H.spc      1 <1>        0.000
     23 H           3.4630    0.4393   -0.8069 H.spc      1 <1>        0.000
     24 H           2.5363   -1.2004    1.5592 H.spc      1 <1>        0.000
     25 H           4.2099   -2.7503    1.0853 H.spc      1 <1>        0.000
     26 H           4.0126   -3.6534   -1.8437 H.spc      1 <1>        0.000
     27 H           5.4837   -2.8186   -2.6821 H.spc      1 <1>        0.000
@<TRIPOS>BOND
     1    1    2 1  
     2   13   15 2  
     3    9   10 1  
     4    2    4 2  
     5   10   11 2  
     6    6    8 1  
     7    1    3 2  
     8    8    9 2  
     9   12   14 2  
    10    4    5 1  
    11    5    6 2  
    12   11   12 1  
    13   12   13 1  
    14   13    7 1  
    15    1   16 1  
    16    2   17 1  
    17    4   18 1  
    18    5   19 1  
    19    6   20 1  
    20    7   21 1  
    21    8   22 1  
    22    9   23 1  
    23   10   24 1  
    24   11   25 1  
    25   14   26 1  
    26   14   27 1  
# Name:          frag3-281-3/96164
# Creation time: Sat Jun  5 12:53:26 2010


@<TRIPOS>MOLECULE
frag3-281-3/96164
   27    26     1     1     1
SMALL
USER_CHARGES


@<TRIPOS>ATOM
      1 C4         -4.1327   -0.0318    0.5584 C.2        1 <1>        0.000
      2 C6         -2.7375    0.1161    0.1561 C.2        1 <1>        0.000
      3 O3         -4.5861    0.1392    1.6807 O.2        1 <1>        0.000
      4 C8         -2.2821   -0.0183   -1.0983 C.2        1 <1>        0.000
      5 C11        -0.9359    0.0880   -1.5411 C.2        1 <1>        0.000
      6 C12        -0.0333    1.0364   -1.2734 C.2        1 <1>        0.000
      7 O6          5.4960   -1.1504    1.2674 O.3        1 <1>        0.000
      8 C13         1.3276    1.1619   -1.6431 C.2        1 <1>        0.000
      9 C14         2.2614    0.2613   -1.3173 C.2        1 <1>        0.000
     10 C15         2.2286   -0.9650   -0.5809 C.2        1 <1>        0.000
     11 C16         3.2334   -1.8256   -0.3975 C.2        1 <1>        0.000
     12 C18         4.5889   -1.7709   -0.8381 C.2        1 <1>        0.000
     13 C19         5.7726   -1.3894   -0.0232 C.2        1 <1>        0.000
     14 C20         4.9158   -1.9365   -2.1291 C.2        1 <1>        0.000
     15 O7          6.9066   -1.2881   -0.4703 O.2        1 <1>        0.000
     16 H          -4.8398   -0.3234   -0.2182 H.spc      1 <1>        0.000
     17 H          -2.0112    0.3536    0.9334 H.spc      1 <1>        0.000
     18 H          -3.0279   -0.2331   -1.8636 H.spc      1 <1>        0.000
     19 H          -0.5912   -0.7170   -2.1902 H.spc      1 <1>        0.000
     20 H          -0.4110    1.8571   -0.6636 H.spc      1 <1>        0.000
     21 H           4.5578   -1.2822    1.4222 H.spc      1 <1>        0.000
     22 H           1.6292    2.0352   -2.2215 H.spc      1 <1>        0.000
     23 H           3.2538    0.5143   -1.6904 H.spc      1 <1>        0.000
     24 H           1.2771   -1.2261   -0.1177 H.spc      1 <1>        0.000
     25 H           2.9762   -2.7122    0.1820 H.spc      1 <1>        0.000
     26 H           4.1368   -2.1179   -2.8696 H.spc      1 <1>        0.000
     27 H           5.9603   -1.8896   -2.4372 H.spc      1 <1>        0.000
@<TRIPOS>BOND
     1    1    2 1  
     2   13   15 2  
     3    9   10 1  
     4    2    4 2  
     5   10   11 2  
     6    6    8 1  
     7    1    3 2  
     8    8    9 2  
     9   12   14 2  
    10    4    5 1  
    11    5    6 2  
    12   11   12 1  
    13   12   13 1  
    14   13    7 1  
    15    1   16 1  
    16    2   17 1  
    17    4   18 1  
    18    5   19 1  
    19    6   20 1  
    20    7   21 1  
    21    8   22 1  
    22    9   23 1  
    23   10   24 1  
    24   11   25 1  
    25   14   26 1  
    26   14   27 1  
# Name:          frag3-281-3/96164
# Creation time: Sat Jun  5 12:53:26 2010


@<TRIPOS>MOLECULE
frag3-281-3/96164
   27    26     1     1     1
SMALL
USER_CHARGES


@<TRIPOS>ATOM
      1 C4         -4.2517   -0.6361   -0.2314 C.2        1 <1>        0.000
      2 C6         -3.0122   -0.0101   -0.6916 C.2        1 <1>        0.000
      3 O3         -5.3698   -0.4394   -0.6820 O.2        1 <1>        0.000
      4 C8         -1.7948   -0.1977   -0.1599 C.2        1 <1>        0.000
      5 C11        -0.5922    0.4292   -0.6101 C.2        1 <1>        0.000
      6 C12         0.6549    0.4897   -0.1213 C.2        1 <1>        0.000
      7 O6          2.9826   -2.2674   -1.0246 O.3        1 <1>        0.000
      8 C13         1.8001    1.1811   -0.6529 C.2        1 <1>        0.000
      9 C14         3.0618    1.1833   -0.2190 C.2        1 <1>        0.000
     10 C15         3.7407    0.5264    0.8668 C.2        1 <1>        0.000
     11 C16         4.5974   -0.4863    0.6938 C.2        1 <1>        0.000
     12 C18         5.0000   -1.1576   -0.5181 C.2        1 <1>        0.000
     13 C19         4.3039   -2.2623   -1.1819 C.2        1 <1>        0.000
     14 C20         6.0202   -0.7906   -1.3076 C.2        1 <1>        0.000
     15 O7          4.8823   -3.1355   -1.8099 O.2        1 <1>        0.000
     16 H          -4.1697   -1.3456    0.5920 H.spc      1 <1>        0.000
     17 H          -3.0841    0.6686   -1.5415 H.spc      1 <1>        0.000
     18 H          -1.7168   -0.8837    0.6836 H.spc      1 <1>        0.000
     19 H          -0.7143    0.9720   -1.5474 H.spc      1 <1>        0.000
     20 H           0.8247   -0.0595    0.8048 H.spc      1 <1>        0.000
     21 H           2.7204   -1.5039   -0.5051 H.spc      1 <1>        0.000
     22 H           1.6092    1.7901   -1.5365 H.spc      1 <1>        0.000
     23 H           3.7186    1.8181   -0.8138 H.spc      1 <1>        0.000
     24 H           3.5468    0.8718    1.8823 H.spc      1 <1>        0.000
     25 H           5.0614   -0.8609    1.6062 H.spc      1 <1>        0.000
     26 H           6.6220    0.0811   -1.0505 H.spc      1 <1>        0.000
     27 H           6.2475   -1.3640   -2.2063 H.spc      1 <1>        0.000
@<TRIPOS>BOND
     1    1    2 1  
     2   13   15 2  
     3    9   10 1  
     4    2    4 2  
     5   10   11 2  
     6    6    8 1  
     7    1    3 2  
     8    8    9 2  
     9   12   14 2  
    10    4    5 1  
    11    5    6 2  
    12   11   12 1  
    13   12   13 1  
    14   13    7 1  
    15    1   16 1  
    16    2   17 1  
    17    4   18 1  
    18    5   19 1  
    19    6   20 1  
    20    7   21 1  
    21    8   22 1  
    22    9   23 1  
    23   10   24 1  
    24   11   25 1  
    25   14   26 1  
    26   14   27 1  
# Name:          frag3-281-3/96164
# Creation time: Sat Jun  5 12:53:26 2010


@<TRIPOS>MOLECULE
frag3-281-3/96164
   27    26     1     1     1
SMALL
USER_CHARGES


@<TRIPOS>ATOM
      1 C4         -4.5050   -0.3560   -0.6402 C.2        1 <1>        0.000
      2 C6         -3.2351   -0.0106    0.0032 C.2        1 <1>        0.000
      3 O3         -5.5916   -0.4822   -0.0930 O.2        1 <1>        0.000
      4 C8         -2.0322    0.0141   -0.5884 C.2        1 <1>        0.000
      5 C11        -0.8031    0.3802    0.0414 C.2        1 <1>        0.000
      6 C12         0.4671    0.4566   -0.3708 C.2        1 <1>        0.000
      7 O6          6.6389   -1.3779   -1.2845 O.3        1 <1>        0.000
      8 C13         1.6210    0.8772    0.3731 C.2        1 <1>        0.000
      9 C14         2.8734    1.0532   -0.0752 C.2        1 <1>        0.000
     10 C15         3.4068    0.8478   -1.3843 C.2        1 <1>        0.000
     11 C16         4.0198   -0.2930   -1.7349 C.2        1 <1>        0.000
     12 C18         4.2923   -1.4957   -0.9800 C.2        1 <1>        0.000
     13 C19         5.6365   -2.0059   -0.6712 C.2        1 <1>        0.000
     14 C20         3.3832   -2.2547   -0.3494 C.2        1 <1>        0.000
     15 O7          5.8515   -2.9265    0.1046 O.2        1 <1>        0.000
     16 H          -4.4789   -0.5172   -1.7179 H.spc      1 <1>        0.000
     17 H          -3.2715    0.2505    1.0608 H.spc      1 <1>        0.000
     18 H          -1.9882   -0.2694   -1.6400 H.spc      1 <1>        0.000
     19 H          -0.9280    0.6584    1.0879 H.spc      1 <1>        0.000
     20 H           0.6497    0.1617   -1.4041 H.spc      1 <1>        0.000
     21 H           6.2844   -0.6888   -1.8511 H.spc      1 <1>        0.000
     22 H           1.4597    1.0782    1.4322 H.spc      1 <1>        0.000
     23 H           3.5886    1.4044    0.6686 H.spc      1 <1>        0.000
     24 H           3.3127    1.6441   -2.1227 H.spc      1 <1>        0.000
     25 H           4.3730   -0.3173   -2.7658 H.spc      1 <1>        0.000
     26 H           2.3287   -1.9805   -0.3800 H.spc      1 <1>        0.000
     27 H           3.6992   -3.1455    0.1935 H.spc      1 <1>        0.000
@<TRIPOS>BOND
     1    1    2 1  
     2   13   15 2  
     3    9   10 1  
     4    2    4 2  
     5   10   11 2  
     6    6    8 1  
     7    1    3 2  
     8    8    9 2  
     9   12   14 2  
    10    4    5 1  
    11    5    6 2  
    12   11   12 1  
    13   12   13 1  
    14   13    7 1  
    15    1   16 1  
    16    2   17 1  
    17    4   18 1  
    18    5   19 1  
    19    6   20 1  
    20    7   21 1  
    21    8   22 1  
    22    9   23 1  
    23   10   24 1  
    24   11   25 1  
    25   14   26 1  
    26   14   27 1  
# Name:          frag3-281-3/96164
# Creation time: Sat Jun  5 12:53:26 2010


@<TRIPOS>MOLECULE
frag3-281-3/96164
   27    26     1     1     1
SMALL
USER_CHARGES


@<TRIPOS>ATOM
      1 C4         -2.6412    1.5376   -1.1605 C.2        1 <1>        0.000
      2 C6         -1.7172    0.7156   -0.3848 C.2        1 <1>        0.000
      3 O3         -3.2399    1.2953   -2.1959 O.2        1 <1>        0.000
      4 C8         -1.3568   -0.5142   -0.7631 C.2        1 <1>        0.000
      5 C11        -0.4998   -1.4140   -0.0736 C.2        1 <1>        0.000
      6 C12         0.6287   -1.1493    0.5876 C.2        1 <1>        0.000
      7 O6          3.9319   -0.6602   -3.2058 O.3        1 <1>        0.000
      8 C13         1.5034   -1.9936    1.3248 C.2        1 <1>        0.000
      9 C14         2.7363   -1.7677    1.7818 C.2        1 <1>        0.000
     10 C15         3.6194   -0.6538    1.6718 C.2        1 <1>        0.000
     11 C16         4.1922   -0.3322    0.5081 C.2        1 <1>        0.000
     12 C18         4.0855   -0.9375   -0.7887 C.2        1 <1>        0.000
     13 C19         3.5941   -0.2330   -1.9842 C.2        1 <1>        0.000
     14 C20         4.2889   -2.2347   -1.0946 C.2        1 <1>        0.000
     15 O7          2.8979    0.7685   -1.8725 O.2        1 <1>        0.000
     16 H          -2.8265    2.5292   -0.7476 H.spc      1 <1>        0.000
     17 H          -1.3051    1.1210    0.5393 H.spc      1 <1>        0.000
     18 H          -1.7672   -0.8678   -1.7090 H.spc      1 <1>        0.000
     19 H          -0.8051   -2.4603   -0.0866 H.spc      1 <1>        0.000
     20 H           0.9330   -0.1031    0.5572 H.spc      1 <1>        0.000
     21 H           4.4743   -1.4486   -3.1292 H.spc      1 <1>        0.000
     22 H           1.1035   -2.9817    1.5526 H.spc      1 <1>        0.000
     23 H           3.1504   -2.5992    2.3521 H.spc      1 <1>        0.000
     24 H           3.8318   -0.0519    2.5554 H.spc      1 <1>        0.000
     25 H           4.8508    0.5352    0.5511 H.spc      1 <1>        0.000
     26 H           4.5655   -2.9421   -0.3128 H.spc      1 <1>        0.000
     27 H           4.1767   -2.5761   -2.1237 H.spc      1 <1>        0.000
@<TRIPOS>BOND
     1    1    2 1  
     2   13   15 2  
     3    9   10 1  
     4    2    4 2  
     5   10   11 2  
     6    6    8 1  
     7    1    3 2  
     8    8    9 2  
     9   12   14 2  
    10    4    5 1  
    11    5    6 2  
    12   11   12 1  
    13   12   13 1  
    14   13    7 1  
    15    1   16 1  
    16    2   17 1  
    17    4   18 1  
    18    5   19 1  
    19    6   20 1  
    20    7   21 1  
    21    8   22 1  
    22    9   23 1  
    23   10   24 1  
    24   11   25 1  
    25   14   26 1  
    26   14   27 1  
# Name:          frag3-281-3/96164
# Creation time: Sat Jun  5 12:53:26 2010


@<TRIPOS>MOLECULE
frag3-281-3/96164
   27    26     1     1     1
SMALL
USER_CHARGES


@<TRIPOS>ATOM
      1 C4         -4.2637   -0.2198   -0.3223 C.2        1 <1>        0.000
      2 C6         -2.8746    0.1172   -0.6352 C.2        1 <1>        0.000
      3 O3         -5.2001   -0.2076   -1.1091 O.2        1 <1>        0.000
      4 C8         -1.9003    0.2791    0.2718 C.2        1 <1>        0.000
      5 C11        -0.5461    0.6230   -0.0125 C.2        1 <1>        0.000
      6 C12         0.5387    0.8705    0.7317 C.2        1 <1>        0.000
      7 O6          5.3438   -0.6625   -2.2410 O.3        1 <1>        0.000
      8 C13         1.8493    1.1738    0.2312 C.2        1 <1>        0.000
      9 C14         2.5474    0.4003   -0.6079 C.2        1 <1>        0.000
     10 C15         2.2415   -0.8777   -1.1953 C.2        1 <1>        0.000
     11 C16         3.0566   -1.9412   -1.1562 C.2        1 <1>        0.000
     12 C18         4.3631   -2.0072   -0.5763 C.2        1 <1>        0.000
     13 C19         5.5495   -1.2785   -1.0767 C.2        1 <1>        0.000
     14 C20         4.6843   -2.6300    0.5677 C.2        1 <1>        0.000
     15 O7          6.6339   -1.2126   -0.5196 O.2        1 <1>        0.000
     16 H          -4.4841   -0.5080    0.7056 H.spc      1 <1>        0.000
     17 H          -2.6119    0.2464   -1.6851 H.spc      1 <1>        0.000
     18 H          -2.1671    0.1351    1.3188 H.spc      1 <1>        0.000
     19 H          -0.3488    0.7027   -1.0815 H.spc      1 <1>        0.000
     20 H           0.4158    0.8389    1.8143 H.spc      1 <1>        0.000
     21 H           4.4422   -0.8205   -2.5304 H.spc      1 <1>        0.000
     22 H           2.3108    2.1050    0.5597 H.spc      1 <1>        0.000
     23 H           3.5158    0.8087   -0.8969 H.spc      1 <1>        0.000
     24 H           1.2845   -0.9879   -1.7053 H.spc      1 <1>        0.000
     25 H           2.6833   -2.8559   -1.6166 H.spc      1 <1>        0.000
     26 H           3.9148   -3.1459    1.1420 H.spc      1 <1>        0.000
     27 H           5.7148   -2.6201    0.9229 H.spc      1 <1>        0.000
@<TRIPOS>BOND
     1    1    2 1  
     2   13   15 2  
     3    9   10 1  
     4    2    4 2  
     5   10   11 2  
     6    6    8 1  
     7    1    3 2  
     8    8    9 2  
     9   12   14 2  
    10    4    5 1  
    11    5    6 2  
    12   11   12 1  
    13   12   13 1  
    14   13    7 1  
    15    1   16 1  
    16    2   17 1  
    17    4   18 1  
    18    5   19 1  
    19    6   20 1  
    20    7   21 1  
    21    8   22 1  
    22    9   23 1  
    23   10   24 1  
    24   11   25 1  
    25   14   26 1  
    26   14   27 1  
# Name:          frag3-281-3/96164
# Creation time: Sat Jun  5 12:53:26 2010


@<TRIPOS>MOLECULE
frag3-281-3/96164
   27    26     1     1     1
SMALL
USER_CHARGES


@<TRIPOS>ATOM
      1 C4         -4.0169   -0.3280   -0.4551 C.2        1 <1>        0.000
      2 C6         -2.5890   -0.0300   -0.5920 C.2        1 <1>        0.000
      3 O3         -4.5273   -1.4339   -0.5599 O.2        1 <1>        0.000
      4 C8         -2.0321    1.1847   -0.4719 C.2        1 <1>        0.000
      5 C11        -0.6382    1.5057   -0.6119 C.2        1 <1>        0.000
      6 C12         0.4061    0.8744   -0.0503 C.2        1 <1>        0.000
      7 O6          5.3319   -1.2919   -2.6149 O.3        1 <1>        0.000
      8 C13         1.8079    1.1337   -0.1875 C.2        1 <1>        0.000
      9 C14         2.8296    0.4078    0.2789 C.2        1 <1>        0.000
     10 C15         2.9749   -0.8119    1.0559 C.2        1 <1>        0.000
     11 C16         3.8872   -1.7783    0.7915 C.2        1 <1>        0.000
     12 C18         4.8279   -1.8003   -0.3086 C.2        1 <1>        0.000
     13 C19         4.4055   -1.5746   -1.7009 C.2        1 <1>        0.000
     14 C20         6.1368   -2.0249   -0.2107 C.2        1 <1>        0.000
     15 O7          3.2189   -1.6059   -2.0123 O.2        1 <1>        0.000
     16 H          -4.6818    0.5088   -0.2413 H.spc      1 <1>        0.000
     17 H          -1.9233   -0.8652   -0.8097 H.spc      1 <1>        0.000
     18 H          -2.7049    2.0118   -0.2452 H.spc      1 <1>        0.000
     19 H          -0.4012    2.3595   -1.2467 H.spc      1 <1>        0.000
     20 H           0.1489    0.0430    0.6060 H.spc      1 <1>        0.000
     21 H           6.1999   -1.3096   -2.2052 H.spc      1 <1>        0.000
     22 H           2.0751    2.0342   -0.7405 H.spc      1 <1>        0.000
     23 H           3.7940    0.8382    0.0090 H.spc      1 <1>        0.000
     24 H           2.3076   -0.9585    1.9052 H.spc      1 <1>        0.000
     25 H           3.9156   -2.6253    1.4769 H.spc      1 <1>        0.000
     26 H           6.5859   -2.2141    0.7643 H.spc      1 <1>        0.000
     27 H           6.7591   -2.0195   -1.1056 H.spc      1 <1>        0.000
@<TRIPOS>BOND
     1    1    2 1  
     2   13   15 2  
     3    9   10 1  
     4    2    4 2  
     5   10   11 2  
     6    6    8 1  
     7    1    3 2  
     8    8    9 2  
     9   12   14 2  
    10    4    5 1  
    11    5    6 2  
    12   11   12 1  
    13   12   13 1  
    14   13    7 1  
    15    1   16 1  
    16    2   17 1  
    17    4   18 1  
    18    5   19 1  
    19    6   20 1  
    20    7   21 1  
    21    8   22 1  
    22    9   23 1  
    23   10   24 1  
    24   11   25 1  
    25   14   26 1  
    26   14   27 1  
# Name:          frag3-281-3/96164
# Creation time: Sat Jun  5 12:53:26 2010


@<TRIPOS>MOLECULE
frag3-281-3/96164
   27    26     1     1     1
SMALL
USER_CHARGES


@<TRIPOS>ATOM
      1 C4         -4.4528    0.5267   -0.2744 C.2        1 <1>        0.000
      2 C6         -3.0677    0.7451    0.1242 C.2        1 <1>        0.000
      3 O3         -4.9219   -0.2504   -1.0887 O.2        1 <1>        0.000
      4 C8         -2.0832   -0.0123   -0.3587 C.2        1 <1>        0.000
      5 C11        -0.7025    0.0514   -0.0662 C.2        1 <1>        0.000
      6 C12         0.2213    0.9574   -0.3957 C.2        1 <1>        0.000
      7 O6          4.8231   -0.5128   -2.2641 O.3        1 <1>        0.000
      8 C13         1.6022    1.0074   -0.0656 C.2        1 <1>        0.000
      9 C14         2.4510   -0.0236   -0.0810 C.2        1 <1>        0.000
     10 C15         2.3437   -1.4159   -0.4177 C.2        1 <1>        0.000
     11 C16         3.3553   -2.2760   -0.5558 C.2        1 <1>        0.000
     12 C18         4.7502   -2.0146   -0.4271 C.2        1 <1>        0.000
     13 C19         5.5194   -1.0605   -1.2592 C.2        1 <1>        0.000
     14 C20         5.4958   -2.5341    0.5555 C.2        1 <1>        0.000
     15 O7          6.6895   -0.7611   -1.0752 O.2        1 <1>        0.000
     16 H          -5.1828    1.1560    0.2347 H.spc      1 <1>        0.000
     17 H          -2.8331    1.5421    0.8298 H.spc      1 <1>        0.000
     18 H          -2.3820   -0.7806   -1.0718 H.spc      1 <1>        0.000
     19 H          -0.3276   -0.7806    0.5299 H.spc      1 <1>        0.000
     20 H          -0.1381    1.7827   -1.0104 H.spc      1 <1>        0.000
     21 H           3.9282   -0.8603   -2.2586 H.spc      1 <1>        0.000
     22 H           2.0061    1.9765    0.2272 H.spc      1 <1>        0.000
     23 H           3.4563    0.2557    0.2344 H.spc      1 <1>        0.000
     24 H           1.3391   -1.8081   -0.5757 H.spc      1 <1>        0.000
     25 H           3.0809   -3.3031   -0.7962 H.spc      1 <1>        0.000
     26 H           5.0390   -3.1868    1.2994 H.spc      1 <1>        0.000
     27 H           6.5599   -2.3045    0.6118 H.spc      1 <1>        0.000
@<TRIPOS>BOND
     1    1    2 1  
     2   13   15 2  
     3    9   10 1  
     4    2    4 2  
     5   10   11 2  
     6    6    8 1  
     7    1    3 2  
     8    8    9 2  
     9   12   14 2  
    10    4    5 1  
    11    5    6 2  
    12   11   12 1  
    13   12   13 1  
    14   13    7 1  
    15    1   16 1  
    16    2   17 1  
    17    4   18 1  
    18    5   19 1  
    19    6   20 1  
    20    7   21 1  
    21    8   22 1  
    22    9   23 1  
    23   10   24 1  
    24   11   25 1  
    25   14   26 1  
    26   14   27 1  
# Name:          frag3-281-3/96164
# Creation time: Sat Jun  5 12:53:26 2010


@<TRIPOS>MOLECULE
frag3-281-3/96164
   27    26     1     1     1
SMALL
USER_CHARGES


@<TRIPOS>ATOM
      1 C4         -4.8917    0.4315   -0.4662 C.2        1 <1>        0.000
      2 C6         -3.4871    0.8083   -0.3824 C.2        1 <1>        0.000
      3 O3         -5.8325    1.2077   -0.4077 O.2        1 <1>        0.000
      4 C8         -2.4453   -0.0278   -0.3995 C.2        1 <1>        0.000
      5 C11        -1.0779    0.3528   -0.3276 C.2        1 <1>        0.000
      6 C12         0.0647   -0.3253   -0.3226 C.2        1 <1>        0.000
      7 O6          4.8539   -0.8438   -2.3950 O.3        1 <1>        0.000
      8 C13         1.3961    0.1669   -0.2461 C.2        1 <1>        0.000
      9 C14         2.5256   -0.5289   -0.1807 C.2        1 <1>        0.000
     10 C15         2.8435   -1.9231   -0.1435 C.2        1 <1>        0.000
     11 C16         4.0756   -2.4468   -0.1449 C.2        1 <1>        0.000
     12 C18         5.3155   -1.7322   -0.2152 C.2        1 <1>        0.000
     13 C19         5.7148   -0.8869   -1.3747 C.2        1 <1>        0.000
     14 C20         6.2131   -1.5795    0.7732 C.2        1 <1>        0.000
     15 O7          6.7550   -0.2461   -1.4167 O.2        1 <1>        0.000
     16 H          -5.1210   -0.6268   -0.5910 H.spc      1 <1>        0.000
     17 H          -3.2653    1.8721   -0.2978 H.spc      1 <1>        0.000
     18 H          -2.6627   -1.0932   -0.4751 H.spc      1 <1>        0.000
     19 H          -0.9362    1.4316   -0.2627 H.spc      1 <1>        0.000
     20 H          -0.0323   -1.4091   -0.3859 H.spc      1 <1>        0.000
     21 H           4.0973   -1.4007   -2.1975 H.spc      1 <1>        0.000
     22 H           1.5036    1.2516   -0.2404 H.spc      1 <1>        0.000
     23 H           3.4108    0.1063   -0.1480 H.spc      1 <1>        0.000
     24 H           2.0075   -2.6218   -0.1111 H.spc      1 <1>        0.000
     25 H           4.1427   -3.5332   -0.0863 H.spc      1 <1>        0.000
     26 H           6.0285   -2.0251    1.7507 H.spc      1 <1>        0.000
     27 H           7.1257   -1.0100    0.5974 H.spc      1 <1>        0.000
@<TRIPOS>BOND
     1    1    2 1  
     2   13   15 2  
     3    9   10 1  
     4    2    4 2  
     5   10   11 2  
     6    6    8 1  
     7    1    3 2  
     8    8    9 2  
     9   12   14 2  
    10    4    5 1  
    11    5    6 2  
    12   11   12 1  
    13   12   13 1  
    14   13    7 1  
    15    1   16 1  
    16    2   17 1  
    17    4   18 1  
    18    5   19 1  
    19    6   20 1  
    20    7   21 1  
    21    8   22 1  
    22    9   23 1  
    23   10   24 1  
    24   11   25 1  
    25   14   26 1  
    26   14   27 1  
# Name:          frag3-281-3/96164
# Creation time: Sat Jun  5 12:53:26 2010


@<TRIPOS>MOLECULE
frag3-281-3/96164
   27    26     1     1     1
SMALL
USER_CHARGES


@<TRIPOS>ATOM
      1 C4         -4.0450   -0.2017   -0.6688 C.2        1 <1>        0.000
      2 C6         -2.5881   -0.0819   -0.7334 C.2        1 <1>        0.000
      3 O3         -4.7667   -0.7368   -1.4960 O.2        1 <1>        0.000
      4 C8         -1.8227    0.6208    0.1115 C.2        1 <1>        0.000
      5 C11        -0.4056    0.7532    0.0600 C.2        1 <1>        0.000
      6 C12         0.5135    1.3918    0.7822 C.2        1 <1>        0.000
      7 O6          5.6832   -1.8767   -2.6404 O.3        1 <1>        0.000
      8 C13         1.9264    1.3667    0.6004 C.2        1 <1>        0.000
      9 C14         2.6451    0.2595    0.3881 C.2        1 <1>        0.000
     10 C15         2.3166   -1.1455    0.2757 C.2        1 <1>        0.000
     11 C16         3.1255   -2.1327   -0.1203 C.2        1 <1>        0.000
     12 C18         4.4835   -2.0168   -0.5585 C.2        1 <1>        0.000
     13 C19         4.8918   -1.2672   -1.7511 C.2        1 <1>        0.000
     14 C20         5.6045   -2.3555    0.0991 C.2        1 <1>        0.000
     15 O7          4.4614   -0.1505   -1.9982 O.2        1 <1>        0.000
     16 H          -4.5348    0.2295    0.2043 H.spc      1 <1>        0.000
     17 H          -2.0812   -0.6112   -1.5402 H.spc      1 <1>        0.000
     18 H          -2.3354    1.1435    0.9190 H.spc      1 <1>        0.000
     19 H           0.0321    0.1986   -0.7700 H.spc      1 <1>        0.000
     20 H           0.1428    2.0026    1.6053 H.spc      1 <1>        0.000
     21 H           5.9363   -2.7393   -2.3035 H.spc      1 <1>        0.000
     22 H           2.4589    2.3171    0.6370 H.spc      1 <1>        0.000
     23 H           3.7108    0.4584    0.2750 H.spc      1 <1>        0.000
     24 H           1.2987   -1.4293    0.5431 H.spc      1 <1>        0.000
     25 H           2.7045   -3.1381   -0.1084 H.spc      1 <1>        0.000
     26 H           5.5415   -2.7793    1.1014 H.spc      1 <1>        0.000
     27 H           6.5773   -2.2066   -0.3695 H.spc      1 <1>        0.000
@<TRIPOS>BOND
     1    1    2 1  
     2   13   15 2  
     3    9   10 1  
     4    2    4 2  
     5   10   11 2  
     6    6    8 1  
     7    1    3 2  
     8    8    9 2  
     9   12   14 2  
    10    4    5 1  
    11    5    6 2  
    12   11   12 1  
    13   12   13 1  
    14   13    7 1  
    15    1   16 1  
    16    2   17 1  
    17    4   18 1  
    18    5   19 1  
    19    6   20 1  
    20    7   21 1  
    21    8   22 1  
    22    9   23 1  
    23   10   24 1  
    24   11   25 1  
    25   14   26 1  
    26   14   27 1  
# Name:          frag3-281-3/96164
# Creation time: Sat Jun  5 12:53:26 2010


@<TRIPOS>MOLECULE
frag3-281-3/96164
   27    26     1     1     1
SMALL
USER_CHARGES


@<TRIPOS>ATOM
      1 C4         -3.3052   -0.6008   -1.1015 C.2        1 <1>        0.000
      2 C6         -1.9699   -0.4467   -0.5236 C.2        1 <1>        0.000
      3 O3         -3.5481   -1.0541   -2.2071 O.2        1 <1>        0.000
      4 C8         -1.6530    0.0465    0.6760 C.2        1 <1>        0.000
      5 C11        -0.3449    0.1838    1.2350 C.2        1 <1>        0.000
      6 C12         0.7886    0.5648    0.6392 C.2        1 <1>        0.000
      7 O6          4.3367   -3.2241   -0.7239 O.3        1 <1>        0.000
      8 C13         2.1127    0.6944    1.1583 C.2        1 <1>        0.000
      9 C14         3.2391    0.9975    0.5083 C.2        1 <1>        0.000
     10 C15         3.4624    1.2499   -0.8885 C.2        1 <1>        0.000
     11 C16         3.5002    0.2796   -1.8195 C.2        1 <1>        0.000
     12 C18         3.3666   -1.1356   -1.5991 C.2        1 <1>        0.000
     13 C19         4.3917   -1.8871   -0.8276 C.2        1 <1>        0.000
     14 C20         2.3328   -1.9390   -1.8972 C.2        1 <1>        0.000
     15 O7          5.3134   -1.3023   -0.2784 O.2        1 <1>        0.000
     16 H          -4.1527   -0.2843   -0.4936 H.spc      1 <1>        0.000
     17 H          -1.1361   -0.7728   -1.1453 H.spc      1 <1>        0.000
     18 H          -2.4835    0.3813    1.2975 H.spc      1 <1>        0.000
     19 H          -0.2602   -0.0557    2.2950 H.spc      1 <1>        0.000
     20 H           0.6859    0.8182   -0.4159 H.spc      1 <1>        0.000
     21 H           3.5684   -3.5494   -1.1987 H.spc      1 <1>        0.000
     22 H           2.2181    0.5228    2.2295 H.spc      1 <1>        0.000
     23 H           4.1282    1.0638    1.1354 H.spc      1 <1>        0.000
     24 H           3.6087    2.2809   -1.2104 H.spc      1 <1>        0.000
     25 H           3.6478    0.5999   -2.8509 H.spc      1 <1>        0.000
     26 H           1.4421   -1.5276   -2.3720 H.spc      1 <1>        0.000
     27 H           2.3844   -3.0026   -1.6644 H.spc      1 <1>        0.000
@<TRIPOS>BOND
     1    1    2 1  
     2   13   15 2  
     3    9   10 1  
     4    2    4 2  
     5   10   11 2  
     6    6    8 1  
     7    1    3 2  
     8    8    9 2  
     9   12   14 2  
    10    4    5 1  
    11    5    6 2  
    12   11   12 1  
    13   12   13 1  
    14   13    7 1  
    15    1   16 1  
    16    2   17 1  
    17    4   18 1  
    18    5   19 1  
    19    6   20 1  
    20    7   21 1  
    21    8   22 1  
    22    9   23 1  
    23   10   24 1  
    24   11   25 1  
    25   14   26 1  
    26   14   27 1  
# Name:          frag3-281-3/96164
# Creation time: Sat Jun  5 12:53:26 2010


@<TRIPOS>MOLECULE
frag3-281-3/96164
   27    26     1     1     1
SMALL
USER_CHARGES


@<TRIPOS>ATOM
      1 C4         -4.6731    0.0693    0.2643 C.2        1 <1>        0.000
      2 C6         -3.3855    0.1640   -0.4005 C.2        1 <1>        0.000
      3 O3         -5.7349   -0.1293   -0.3057 O.2        1 <1>        0.000
      4 C8         -2.2306    0.4988    0.1816 C.2        1 <1>        0.000
      5 C11        -0.9707    0.5930   -0.4740 C.2        1 <1>        0.000
      6 C12         0.2454    0.9508   -0.0624 C.2        1 <1>        0.000
      7 O6          7.0347   -2.1371   -0.5513 O.3        1 <1>        0.000
      8 C13         1.4481    0.9782   -0.8244 C.2        1 <1>        0.000
      9 C14         2.4215    0.0688   -0.7692 C.2        1 <1>        0.000
     10 C15         2.6210   -1.1248    0.0053 C.2        1 <1>        0.000
     11 C16         3.6364   -1.9833   -0.1431 C.2        1 <1>        0.000
     12 C18         4.7358   -1.9110   -1.0420 C.2        1 <1>        0.000
     13 C19         6.0118   -1.3083   -0.6933 C.2        1 <1>        0.000
     14 C20         4.7532   -2.1946   -2.3481 C.2        1 <1>        0.000
     15 O7          6.1101   -0.1077   -0.4868 O.2        1 <1>        0.000
     16 H          -4.6934    0.1835    1.3481 H.spc      1 <1>        0.000
     17 H          -3.3590   -0.0574   -1.4675 H.spc      1 <1>        0.000
     18 H          -2.2552    0.7184    1.2490 H.spc      1 <1>        0.000
     19 H          -1.0081    0.3160   -1.5276 H.spc      1 <1>        0.000
     20 H           0.3292    1.2586    0.9799 H.spc      1 <1>        0.000
     21 H           6.7524   -3.0307   -0.7596 H.spc      1 <1>        0.000
     22 H           1.5845    1.8136   -1.5111 H.spc      1 <1>        0.000
     23 H           3.2404    0.2747   -1.4585 H.spc      1 <1>        0.000
     24 H           1.8847   -1.3493    0.7771 H.spc      1 <1>        0.000
     25 H           3.6185   -2.8541    0.5123 H.spc      1 <1>        0.000
     26 H           3.8425   -2.5282   -2.8455 H.spc      1 <1>        0.000
     27 H           5.6781   -2.0922   -2.9158 H.spc      1 <1>        0.000
@<TRIPOS>BOND
     1    1    2 1  
     2   13   15 2  
     3    9   10 1  
     4    2    4 2  
     5   10   11 2  
     6    6    8 1  
     7    1    3 2  
     8    8    9 2  
     9   12   14 2  
    10    4    5 1  
    11    5    6 2  
    12   11   12 1  
    13   12   13 1  
    14   13    7 1  
    15    1   16 1  
    16    2   17 1  
    17    4   18 1  
    18    5   19 1  
    19    6   20 1  
    20    7   21 1  
    21    8   22 1  
    22    9   23 1  
    23   10   24 1  
    24   11   25 1  
    25   14   26 1  
    26   14   27 1  
# Name:          frag3-281-3/96164
# Creation time: Sat Jun  5 12:53:26 2010


@<TRIPOS>MOLECULE
frag3-281-3/96164
   27    26     1     1     1
SMALL
USER_CHARGES


@<TRIPOS>ATOM
      1 C4         -3.6037    0.4908   -1.4053 C.2        1 <1>        0.000
      2 C6         -2.3808    0.4607   -0.6080 C.2        1 <1>        0.000
      3 O3         -4.2649    1.4867   -1.6619 O.2        1 <1>        0.000
      4 C8         -1.6471   -0.6221   -0.3186 C.2        1 <1>        0.000
      5 C11        -0.4592   -0.6468    0.4660 C.2        1 <1>        0.000
      6 C12         0.4033   -1.5903    0.8601 C.2        1 <1>        0.000
      7 O6          5.8623   -2.0920   -1.9042 O.3        1 <1>        0.000
      8 C13         1.5811   -1.4009    1.6608 C.2        1 <1>        0.000
      9 C14         2.5143   -0.4581    1.4448 C.2        1 <1>        0.000
     10 C15         2.5911    0.5210    0.3895 C.2        1 <1>        0.000
     11 C16         3.1623    0.2457   -0.7933 C.2        1 <1>        0.000
     12 C18         3.8218   -0.9423   -1.2565 C.2        1 <1>        0.000
     13 C19         5.2542   -0.9495   -1.6045 C.2        1 <1>        0.000
     14 C20         3.2939   -2.1725   -1.3247 C.2        1 <1>        0.000
     15 O7          5.8949    0.0964   -1.5940 O.2        1 <1>        0.000
     16 H          -3.9584   -0.4583   -1.8072 H.spc      1 <1>        0.000
     17 H          -2.0305    1.4127   -0.2092 H.spc      1 <1>        0.000
     18 H          -1.9921   -1.5742   -0.7219 H.spc      1 <1>        0.000
     19 H          -0.1868    0.3421    0.8346 H.spc      1 <1>        0.000
     20 H           0.1901   -2.6102    0.5401 H.spc      1 <1>        0.000
     21 H           5.2267   -2.8105   -1.8683 H.spc      1 <1>        0.000
     22 H           1.7289   -2.0721    2.5068 H.spc      1 <1>        0.000
     23 H           3.3278   -0.4298    2.1698 H.spc      1 <1>        0.000
     24 H           2.1731    1.5136    0.5571 H.spc      1 <1>        0.000
     25 H           3.1183    1.0562   -1.5208 H.spc      1 <1>        0.000
     26 H           2.2645   -2.3421   -1.0090 H.spc      1 <1>        0.000
     27 H           3.8940   -3.0033   -1.6958 H.spc      1 <1>        0.000
@<TRIPOS>BOND
     1    1    2 1  
     2   13   15 2  
     3    9   10 1  
     4    2    4 2  
     5   10   11 2  
     6    6    8 1  
     7    1    3 2  
     8    8    9 2  
     9   12   14 2  
    10    4    5 1  
    11    5    6 2  
    12   11   12 1  
    13   12   13 1  
    14   13    7 1  
    15    1   16 1  
    16    2   17 1  
    17    4   18 1  
    18    5   19 1  
    19    6   20 1  
    20    7   21 1  
    21    8   22 1  
    22    9   23 1  
    23   10   24 1  
    24   11   25 1  
    25   14   26 1  
    26   14   27 1  
# Name:          frag3-281-3/96164 -- energy: -0.542650
# Creation time: Sat Jun  5 12:53:26 2010


@<TRIPOS>MOLECULE
frag3-281-3/96164 -- energy: -0.542650
   27    26     1     1     1
SMALL
USER_CHARGES


@<TRIPOS>ATOM
      1 C4         -4.9185    0.2245    0.1996 C.2        1 <1>        0.000
      2 C6         -3.6534    0.4716   -0.4653 C.2        1 <1>        0.000
      3 O3         -6.0080    0.4588   -0.2961 O.2        1 <1>        0.000
      4 C8         -2.4642    0.1351    0.0426 C.2        1 <1>        0.000
      5 C11        -1.2271    0.3811   -0.6240 C.2        1 <1>        0.000
      6 C12         0.0293    0.0632   -0.3134 C.2        1 <1>        0.000
      7 O6          6.8231   -0.7800    0.1478 O.3        1 <1>        0.000
      8 C13         1.2101    0.3795   -1.0656 C.2        1 <1>        0.000
      9 C14         2.4706    0.1230   -0.7144 C.2        1 <1>        0.000
     10 C15         3.0410   -0.5116    0.4417 C.2        1 <1>        0.000
     11 C16         4.0983   -1.3287    0.3765 C.2        1 <1>        0.000
     12 C18         4.9024   -1.7405   -0.7420 C.2        1 <1>        0.000
     13 C19         6.3012   -1.4011   -0.9061 C.2        1 <1>        0.000
     14 C20         4.4741   -2.4143   -1.8166 C.2        1 <1>        0.000
     15 O7          6.9444   -1.6338   -1.9143 O.2        1 <1>        0.000
     16 H          -4.8941   -0.1967    1.2046 H.spc      1 <1>        0.000
     17 H          -3.6740    0.9617   -1.4387 H.spc      1 <1>        0.000
     18 H          -2.4379   -0.3528    1.0170 H.spc      1 <1>        0.000
     19 H          -1.3282    0.9304   -1.5600 H.spc      1 <1>        0.000
     20 H           0.1758   -0.4967    0.6103 H.spc      1 <1>        0.000
     21 H           6.1546   -0.6957    0.8316 H.spc      1 <1>        0.000
     22 H           1.0611    0.8808   -2.0220 H.spc      1 <1>        0.000
     23 H           3.2087    0.4586   -1.4429 H.spc      1 <1>        0.000
     24 H           2.5919   -0.3185    1.4159 H.spc      1 <1>        0.000
     25 H           4.4014   -1.7542    1.3331 H.spc      1 <1>        0.000
     26 H           3.4256   -2.7007   -1.8980 H.spc      1 <1>        0.000
     27 H           5.1739   -2.6765   -2.6101 H.spc      1 <1>        0.000
@<TRIPOS>BOND
     1    1    2 1  
     2   13   15 2  
     3    9   10 1  
     4    2    4 2  
     5   10   11 2  
     6    6    8 1  
     7    1    3 2  
     8    8    9 2  
     9   12   14 2  
    10    4    5 1  
    11    5    6 2  
    12   11   12 1  
    13   12   13 1  
    14   13    7 1  
    15    1   16 1  
    16    2   17 1  
    17    4   18 1  
    18    5   19 1  
    19    6   20 1  
    20    7   21 1  
    21    8   22 1  
    22    9   23 1  
    23   10   24 1  
    24   11   25 1  
    25   14   26 1  
    26   14   27 1  
# Name:          frag3-281-3/96164 -- energy: -2.037842
# Creation time: Sat Jun  5 12:53:26 2010


@<TRIPOS>MOLECULE
frag3-281-3/96164 -- energy: -2.037842
   27    26     1     1     1
SMALL
USER_CHARGES


@<TRIPOS>ATOM
      1 C4         -4.9494   -0.0895   -0.1075 C.2        1 <1>        0.000
      2 C6         -3.6350    0.2815   -0.6133 C.2        1 <1>        0.000
      3 O3         -5.9991    0.0588   -0.7135 O.2        1 <1>        0.000
      4 C8         -2.4796    0.1587    0.0460 C.2        1 <1>        0.000
      5 C11        -1.2078    0.5221   -0.4745 C.2        1 <1>        0.000
      6 C12         0.0370    0.2584   -0.0785 C.2        1 <1>        0.000
      7 O6          5.1364   -3.1210   -1.4437 O.3        1 <1>        0.000
      8 C13         1.2521    0.6634   -0.7003 C.2        1 <1>        0.000
      9 C14         2.4834    0.2618   -0.4010 C.2        1 <1>        0.000
     10 C15         3.0435   -0.6209    0.5772 C.2        1 <1>        0.000
     11 C16         4.2775   -1.1246    0.5254 C.2        1 <1>        0.000
     12 C18         5.3206   -0.9728   -0.4372 C.2        1 <1>        0.000
     13 C19         5.9050   -2.0499   -1.2405 C.2        1 <1>        0.000
     14 C20         5.8058    0.1958   -0.8827 C.2        1 <1>        0.000
     15 O7          7.0330   -1.9949   -1.7054 O.2        1 <1>        0.000
     16 H          -4.9999   -0.5330    0.8869 H.spc      1 <1>        0.000
     17 H          -3.5899    0.6966   -1.6202 H.spc      1 <1>        0.000
     18 H          -2.5147   -0.2497    1.0560 H.spc      1 <1>        0.000
     19 H          -1.2611    1.1366   -1.3732 H.spc      1 <1>        0.000
     20 H           0.1367   -0.3378    0.8286 H.spc      1 <1>        0.000
     21 H           4.2898   -2.9930   -1.0096 H.spc      1 <1>        0.000
     22 H           1.1626    1.3839   -1.5133 H.spc      1 <1>        0.000
     23 H           3.2395    0.7061   -1.0483 H.spc      1 <1>        0.000
     24 H           2.4172   -0.9011    1.4242 H.spc      1 <1>        0.000
     25 H           4.5353   -1.7663    1.3680 H.spc      1 <1>        0.000
     26 H           5.3992    1.1341   -0.5054 H.spc      1 <1>        0.000
     27 H           6.6067    0.2071   -1.6220 H.spc      1 <1>        0.000
@<TRIPOS>BOND
     1    1    2 1  
     2   13   15 2  
     3    9   10 1  
     4    2    4 2  
     5   10   11 2  
     6    6    8 1  
     7    1    3 2  
     8    8    9 2  
     9   12   14 2  
    10    4    5 1  
    11    5    6 2  
    12   11   12 1  
    13   12   13 1  
    14   13    7 1  
    15    1   16 1  
    16    2   17 1  
    17    4   18 1  
    18    5   19 1  
    19    6   20 1  
    20    7   21 1  
    21    8   22 1  
    22    9   23 1  
    23   10   24 1  
    24   11   25 1  
    25   14   26 1  
    26   14   27 1  
# Name:          frag3-281-3/96164 -- energy: -2.351452
# Creation time: Sat Jun  5 12:53:26 2010


@<TRIPOS>MOLECULE
frag3-281-3/96164 -- energy: -2.351452
   27    26     1     1     1
SMALL
USER_CHARGES


@<TRIPOS>ATOM
      1 C4         -4.5786    1.4074    0.1303 C.2        1 <1>        0.000
      2 C6         -3.4741    0.7526   -0.5526 C.2        1 <1>        0.000
      3 O3         -5.5868    1.8232   -0.4182 O.2        1 <1>        0.000
      4 C8         -2.3627    0.2917    0.0271 C.2        1 <1>        0.000
      5 C11        -1.2979   -0.3557   -0.6540 C.2        1 <1>        0.000
      6 C12        -0.1282   -0.8477   -0.2506 C.2        1 <1>        0.000
      7 O6          5.5592    0.7963   -0.8408 O.3        1 <1>        0.000
      8 C13         0.8661   -1.4948   -1.0371 C.2        1 <1>        0.000
      9 C14         2.1173   -1.7762   -0.6910 C.2        1 <1>        0.000
     10 C15         2.8989   -1.5750    0.4879 C.2        1 <1>        0.000
     11 C16         4.2297   -1.4921    0.5007 C.2        1 <1>        0.000
     12 C18         5.1896   -1.5322   -0.5551 C.2        1 <1>        0.000
     13 C19         6.0609   -0.4321   -0.9648 C.2        1 <1>        0.000
     14 C20         5.3405   -2.5316   -1.4389 C.2        1 <1>        0.000
     15 O7          7.1894   -0.6071   -1.3926 O.2        1 <1>        0.000
     16 H          -4.5006    1.5362    1.2098 H.spc      1 <1>        0.000
     17 H          -3.5609    0.6270   -1.6319 H.spc      1 <1>        0.000
     18 H          -2.2655    0.4224    1.1049 H.spc      1 <1>        0.000
     19 H          -1.4737   -0.4737   -1.7232 H.spc      1 <1>        0.000
     20 H           0.0950   -0.7421    0.8111 H.spc      1 <1>        0.000
     21 H           4.6667    0.7424   -0.4914 H.spc      1 <1>        0.000
     22 H           0.5656   -1.7946   -2.0411 H.spc      1 <1>        0.000
     23 H           2.6734   -2.2729   -1.4861 H.spc      1 <1>        0.000
     24 H           2.3733   -1.4833    1.4384 H.spc      1 <1>        0.000
     25 H           4.6615   -1.3724    1.4943 H.spc      1 <1>        0.000
     26 H           4.6964   -3.4093   -1.3843 H.spc      1 <1>        0.000
     27 H           6.1071   -2.4653   -2.2110 H.spc      1 <1>        0.000
@<TRIPOS>BOND
     1    1    2 1  
     2   13   15 2  
     3    9   10 1  
     4    2    4 2  
     5   10   11 2  
     6    6    8 1  
     7    1    3 2  
     8    8    9 2  
     9   12   14 2  
    10    4    5 1  
    11    5    6 2  
    12   11   12 1  
    13   12   13 1  
    14   13    7 1  
    15    1   16 1  
    16    2   17 1  
    17    4   18 1  
    18    5   19 1  
    19    6   20 1  
    20    7   21 1  
    21    8   22 1  
    22    9   23 1  
    23   10   24 1  
    24   11   25 1  
    25   14   26 1  
    26   14   27 1  
# Name:          frag3-281-3/96164 -- energy: -2.276677
# Creation time: Sat Jun  5 12:53:26 2010


@<TRIPOS>MOLECULE
frag3-281-3/96164 -- energy: -2.276677
   27    26     1     1     1
SMALL
USER_CHARGES


@<TRIPOS>ATOM
      1 C4         -4.5166    0.1518   -0.6568 C.2        1 <1>        0.000
      2 C6         -3.1365    0.4384   -0.2986 C.2        1 <1>        0.000
      3 O3         -5.4601    0.9118   -0.5108 O.2        1 <1>        0.000
      4 C8         -2.1488   -0.4540   -0.3819 C.2        1 <1>        0.000
      5 C11        -0.7834   -0.2834   -0.0406 C.2        1 <1>        0.000
      6 C12         0.0402    0.7260   -0.3376 C.2        1 <1>        0.000
      7 O6          5.2577   -1.0790   -2.5500 O.3        1 <1>        0.000
      8 C13         1.4014    0.9566   -0.0042 C.2        1 <1>        0.000
      9 C14         2.3807    0.0504   -0.0496 C.2        1 <1>        0.000
     10 C15         2.4348   -1.3316   -0.4337 C.2        1 <1>        0.000
     11 C16         3.5232   -2.0967   -0.5321 C.2        1 <1>        0.000
     12 C18         4.8834   -1.7516   -0.3171 C.2        1 <1>        0.000
     13 C19         5.7901   -1.1970   -1.3304 C.2        1 <1>        0.000
     14 C20         5.4219   -1.7751    0.9083 C.2        1 <1>        0.000
     15 O7          6.9353   -0.8400   -1.1143 O.2        1 <1>        0.000
     16 H          -4.7260   -0.8250   -1.0928 H.spc      1 <1>        0.000
     17 H          -2.8956    1.4397    0.0583 H.spc      1 <1>        0.000
     18 H          -2.4262   -1.4380   -0.7598 H.spc      1 <1>        0.000
     19 H          -0.3435   -1.0892    0.5469 H.spc      1 <1>        0.000
     20 H          -0.4127    1.5113   -0.9428 H.spc      1 <1>        0.000
     21 H           4.3555   -1.4067   -2.5371 H.spc      1 <1>        0.000
     22 H           1.6704    1.9628    0.3173 H.spc      1 <1>        0.000
     23 H           3.3444    0.4437    0.2739 H.spc      1 <1>        0.000
     24 H           1.4833   -1.8076   -0.6707 H.spc      1 <1>        0.000
     25 H           3.3427   -3.1330   -0.8179 H.spc      1 <1>        0.000
     26 H           4.8135   -2.0633    1.7655 H.spc      1 <1>        0.000
     27 H           6.4688   -1.5060    1.0488 H.spc      1 <1>        0.000
@<TRIPOS>BOND
     1    1    2 1  
     2   13   15 2  
     3    9   10 1  
     4    2    4 2  
     5   10   11 2  
     6    6    8 1  
     7    1    3 2  
     8    8    9 2  
     9   12   14 2  
    10    4    5 1  
    11    5    6 2  
    12   11   12 1  
    13   12   13 1  
    14   13    7 1  
    15    1   16 1  
    16    2   17 1  
    17    4   18 1  
    18    5   19 1  
    19    6   20 1  
    20    7   21 1  
    21    8   22 1  
    22    9   23 1  
    23   10   24 1  
    24   11   25 1  
    25   14   26 1  
    26   14   27 1  
# Name:          frag3-281-3/96164 -- energy: 0.531198
# Creation time: Sat Jun  5 12:53:26 2010


@<TRIPOS>MOLECULE
frag3-281-3/96164 -- energy: 0.531198
   27    26     1     1     1
SMALL
USER_CHARGES


@<TRIPOS>ATOM
      1 C4         -4.4281   -0.2826    0.2245 C.2        1 <1>        0.000
      2 C6         -3.0790   -0.0866   -0.3036 C.2        1 <1>        0.000
      3 O3         -4.9534   -1.3633    0.4459 O.2        1 <1>        0.000
      4 C8         -2.5084    1.0984   -0.5601 C.2        1 <1>        0.000
      5 C11        -1.2010    1.3035   -1.1044 C.2        1 <1>        0.000
      6 C12        -0.0600    0.7269   -0.7063 C.2        1 <1>        0.000
      7 O6          5.9849   -2.2544   -2.1894 O.3        1 <1>        0.000
      8 C13         1.2520    0.8847   -1.2467 C.2        1 <1>        0.000
      9 C14         2.3954    0.4031   -0.7599 C.2        1 <1>        0.000
     10 C15         2.7789   -0.3673    0.3978 C.2        1 <1>        0.000
     11 C16         3.9749   -0.9620    0.5414 C.2        1 <1>        0.000
     12 C18         5.0979   -1.0304   -0.3479 C.2        1 <1>        0.000
     13 C19         5.5366   -2.2968   -0.9357 C.2        1 <1>        0.000
     14 C20         5.8124    0.0070   -0.7762 C.2        1 <1>        0.000
     15 O7          5.4201   -3.3533   -0.3291 O.2        1 <1>        0.000
     16 H          -5.0148    0.6107    0.4388 H.spc      1 <1>        0.000
     17 H          -2.4875   -0.9796   -0.5057 H.spc      1 <1>        0.000
     18 H          -3.0946    1.9888   -0.3330 H.spc      1 <1>        0.000
     19 H          -1.1257    2.0063   -1.9342 H.spc      1 <1>        0.000
     20 H          -0.1439    0.0476    0.1420 H.spc      1 <1>        0.000
     21 H           6.0051   -1.3430   -2.4902 H.spc      1 <1>        0.000
     22 H           1.3274    1.4672   -2.1649 H.spc      1 <1>        0.000
     23 H           3.2490    0.6521   -1.3904 H.spc      1 <1>        0.000
     24 H           2.0543   -0.4733    1.2051 H.spc      1 <1>        0.000
     25 H           4.1150   -1.4781    1.4912 H.spc      1 <1>        0.000
     26 H           5.5590    1.0155   -0.4492 H.spc      1 <1>        0.000
     27 H           6.6511   -0.1516   -1.4541 H.spc      1 <1>        0.000
@<TRIPOS>BOND
     1    1    2 1  
     2   13   15 2  
     3    9   10 1  
     4    2    4 2  
     5   10   11 2  
     6    6    8 1  
     7    1    3 2  
     8    8    9 2  
     9   12   14 2  
    10    4    5 1  
    11    5    6 2  
    12   11   12 1  
    13   12   13 1  
    14   13    7 1  
    15    1   16 1  
    16    2   17 1  
    17    4   18 1  
    18    5   19 1  
    19    6   20 1  
    20    7   21 1  
    21    8   22 1  
    22    9   23 1  
    23   10   24 1  
    24   11   25 1  
    25   14   26 1  
    26   14   27 1  
# Name:          frag3-281-3/96164 -- energy: -1.673619
# Creation time: Sat Jun  5 12:53:26 2010


@<TRIPOS>MOLECULE
frag3-281-3/96164 -- energy: -1.673619
   27    26     1     1     1
SMALL
USER_CHARGES


@<TRIPOS>ATOM
      1 C4         -4.5256    0.0062   -0.7273 C.2        1 <1>        0.000
      2 C6         -3.1269    0.1852   -0.3442 C.2        1 <1>        0.000
      3 O3         -5.1853   -1.0107   -0.5665 O.2        1 <1>        0.000
      4 C8         -2.4082    1.3053   -0.4930 C.2        1 <1>        0.000
      5 C11        -1.0536    1.5313   -0.1150 C.2        1 <1>        0.000
      6 C12        -0.0444    0.6571   -0.1315 C.2        1 <1>        0.000
      7 O6          5.4931   -1.8858   -2.6314 O.3        1 <1>        0.000
      8 C13         1.3110    0.7868    0.2586 C.2        1 <1>        0.000
      9 C14         2.2884   -0.1072    0.1664 C.2        1 <1>        0.000
     10 C15         2.4083   -1.4464   -0.3002 C.2        1 <1>        0.000
     11 C16         3.5556   -2.0975   -0.5057 C.2        1 <1>        0.000
     12 C18         4.9115   -1.6687   -0.3576 C.2        1 <1>        0.000
     13 C19         5.9197   -1.5215   -1.4228 C.2        1 <1>        0.000
     14 C20         5.4258   -1.2161    0.7992 C.2        1 <1>        0.000
     15 O7          7.0538   -1.0913   -1.2787 O.2        1 <1>        0.000
     16 H          -5.0246    0.8534   -1.1977 H.spc      1 <1>        0.000
     17 H          -2.6225   -0.6711    0.1035 H.spc      1 <1>        0.000
     18 H          -2.9219    2.1457   -0.9598 H.spc      1 <1>        0.000
     19 H          -0.8122    2.5372    0.2285 H.spc      1 <1>        0.000
     20 H          -0.3103   -0.3292   -0.5118 H.spc      1 <1>        0.000
     21 H           4.5875   -2.1982   -2.5691 H.spc      1 <1>        0.000
     22 H           1.5885    1.7477    0.6919 H.spc      1 <1>        0.000
     23 H           3.2351    0.2815    0.5417 H.spc      1 <1>        0.000
     24 H           1.4846   -1.9866   -0.5075 H.spc      1 <1>        0.000
     25 H           3.4392   -3.1276   -0.8425 H.spc      1 <1>        0.000
     26 H           4.7996   -1.1615    1.6897 H.spc      1 <1>        0.000
     27 H           6.4690   -0.9037    0.8466 H.spc      1 <1>        0.000
@<TRIPOS>BOND
     1    1    2 1  
     2   13   15 2  
     3    9   10 1  
     4    2    4 2  
     5   10   11 2  
     6    6    8 1  
     7    1    3 2  
     8    8    9 2  
     9   12   14 2  
    10    4    5 1  
    11    5    6 2  
    12   11   12 1  
    13   12   13 1  
    14   13    7 1  
    15    1   16 1  
    16    2   17 1  
    17    4   18 1  
    18    5   19 1  
    19    6   20 1  
    20    7   21 1  
    21    8   22 1  
    22    9   23 1  
    23   10   24 1  
    24   11   25 1  
    25   14   26 1  
    26   14   27 1  
# Name:          frag3-281-3/96164 -- energy: -2.136604
# Creation time: Sat Jun  5 12:53:26 2010


@<TRIPOS>MOLECULE
frag3-281-3/96164 -- energy: -2.136604
   27    26     1     1     1
SMALL
USER_CHARGES


@<TRIPOS>ATOM
      1 C4         -5.0052    0.4733   -0.0683 C.2        1 <1>        0.000
      2 C6         -3.7928    0.3712   -0.8669 C.2        1 <1>        0.000
      3 O3         -5.1082    0.6738    1.1288 O.2        1 <1>        0.000
      4 C8         -2.5752    0.4313   -0.3162 C.2        1 <1>        0.000
      5 C11        -1.3329    0.3479   -0.9938 C.2        1 <1>        0.000
      6 C12        -0.0891    0.1448   -0.5625 C.2        1 <1>        0.000
      7 O6          6.2710    0.1195   -0.1775 O.3        1 <1>        0.000
      8 C13         1.0976    0.0541   -1.3503 C.2        1 <1>        0.000
      9 C14         2.2797   -0.4257   -0.9812 C.2        1 <1>        0.000
     10 C15         2.7824   -0.9958    0.2295 C.2        1 <1>        0.000
     11 C16         3.9678   -1.6032    0.3547 C.2        1 <1>        0.000
     12 C18         5.0072   -1.8182   -0.6073 C.2        1 <1>        0.000
     13 C19         6.2879   -1.1228   -0.6541 C.2        1 <1>        0.000
     14 C20         4.9192   -2.5920   -1.7064 C.2        1 <1>        0.000
     15 O7          7.3139   -1.6317   -1.0782 O.2        1 <1>        0.000
     16 H          -5.9426    0.3550   -0.6118 H.spc      1 <1>        0.000
     17 H          -3.8795    0.2419   -1.9457 H.spc      1 <1>        0.000
     18 H          -2.5340    0.5575    0.7657 H.spc      1 <1>        0.000
     19 H          -1.4102    0.4740   -2.0737 H.spc      1 <1>        0.000
     20 H           0.0367    0.0354    0.5147 H.spc      1 <1>        0.000
     21 H           5.3808    0.3401    0.1064 H.spc      1 <1>        0.000
     22 H           1.0253    0.4214   -2.3740 H.spc      1 <1>        0.000
     23 H           3.0280   -0.3735   -1.7720 H.spc      1 <1>        0.000
     24 H           2.1529   -0.9308    1.1169 H.spc      1 <1>        0.000
     25 H           4.1763   -1.9982    1.3490 H.spc      1 <1>        0.000
     26 H           3.9931   -3.1230   -1.9263 H.spc      1 <1>        0.000
     27 H           5.7741   -2.6871   -2.3758 H.spc      1 <1>        0.000
@<TRIPOS>BOND
     1    1    2 1  
     2   13   15 2  
     3    9   10 1  
     4    2    4 2  
     5   10   11 2  
     6    6    8 1  
     7    1    3 2  
     8    8    9 2  
     9   12   14 2  
    10    4    5 1  
    11    5    6 2  
    12   11   12 1  
    13   12   13 1  
    14   13    7 1  
    15    1   16 1  
    16    2   17 1  
    17    4   18 1  
    18    5   19 1  
    19    6   20 1  
    20    7   21 1  
    21    8   22 1  
    22    9   23 1  
    23   10   24 1  
    24   11   25 1  
    25   14   26 1  
    26   14   27 1  
# Name:          frag3-281-3/96164 -- energy: -2.080724
# Creation time: Sat Jun  5 12:53:26 2010


@<TRIPOS>MOLECULE
frag3-281-3/96164 -- energy: -2.080724
   27    26     1     1     1
SMALL
USER_CHARGES


@<TRIPOS>ATOM
      1 C4         -4.5999   -0.1092   -0.2335 C.2        1 <1>        0.000
      2 C6         -3.1985    0.2456   -0.4298 C.2        1 <1>        0.000
      3 O3         -5.2655   -0.7909   -0.9981 O.2        1 <1>        0.000
      4 C8         -2.4418    0.9894    0.3858 C.2        1 <1>        0.000
      5 C11        -1.0844    1.3516    0.1710 C.2        1 <1>        0.000
      6 C12        -0.0713    0.5652   -0.1998 C.2        1 <1>        0.000
      7 O6          5.7230   -1.8302   -2.4547 O.3        1 <1>        0.000
      8 C13         1.2866    0.8910   -0.4695 C.2        1 <1>        0.000
      9 C14         2.3001    0.0613   -0.6904 C.2        1 <1>        0.000
     10 C15         2.4223   -1.3608   -0.7181 C.2        1 <1>        0.000
     11 C16         3.5686   -2.0148   -0.5232 C.2        1 <1>        0.000
     12 C18         4.8893   -1.5225   -0.2740 C.2        1 <1>        0.000
     13 C19         6.0354   -1.6652   -1.1710 C.2        1 <1>        0.000
     14 C20         5.2612   -0.7358    0.7548 C.2        1 <1>        0.000
     15 O7          7.1982   -1.6478   -0.7992 O.2        1 <1>        0.000
     16 H          -5.0914    0.2630    0.6654 H.spc      1 <1>        0.000
     17 H          -2.7191   -0.1336   -1.3323 H.spc      1 <1>        0.000
     18 H          -2.9106    1.3514    1.3008 H.spc      1 <1>        0.000
     19 H          -0.8401    2.4021    0.3286 H.spc      1 <1>        0.000
     20 H          -0.3237   -0.4891   -0.3134 H.spc      1 <1>        0.000
     21 H           4.7683   -1.8167   -2.5548 H.spc      1 <1>        0.000
     22 H           1.5254    1.9541   -0.4985 H.spc      1 <1>        0.000
     23 H           3.2390    0.5762   -0.8940 H.spc      1 <1>        0.000
     24 H           1.5243   -1.9480   -0.9102 H.spc      1 <1>        0.000
     25 H           3.4860   -3.1011   -0.5597 H.spc      1 <1>        0.000
     26 H           4.5240   -0.4181    1.4921 H.spc      1 <1>        0.000
     27 H           6.2992   -0.4171    0.8497 H.spc      1 <1>        0.000
@<TRIPOS>BOND
     1    1    2 1  
     2   13   15 2  
     3    9   10 1  
     4    2    4 2  
     5   10   11 2  
     6    6    8 1  
     7    1    3 2  
     8    8    9 2  
     9   12   14 2  
    10    4    5 1  
    11    5    6 2  
    12   11   12 1  
    13   12   13 1  
    14   13    7 1  
    15    1   16 1  
    16    2   17 1  
    17    4   18 1  
    18    5   19 1  
    19    6   20 1  
    20    7   21 1  
    21    8   22 1  
    22    9   23 1  
    23   10   24 1  
    24   11   25 1  
    25   14   26 1  
    26   14   27 1  
# Name:          frag3-281-3/96164 -- energy: -1.429045
# Creation time: Sat Jun  5 12:53:26 2010


@<TRIPOS>MOLECULE
frag3-281-3/96164 -- energy: -1.429045
   27    26     1     1     1
SMALL
USER_CHARGES


@<TRIPOS>ATOM
      1 C4         -4.8870    0.4329   -0.2568 C.2        1 <1>        0.000
      2 C6         -3.4901    0.6697    0.0894 C.2        1 <1>        0.000
      3 O3         -5.8536    0.9320    0.2993 O.2        1 <1>        0.000
      4 C8         -2.4397    0.0761   -0.4898 C.2        1 <1>        0.000
      5 C11        -1.0767    0.3290   -0.1571 C.2        1 <1>        0.000
      6 C12         0.0773   -0.0846   -0.6801 C.2        1 <1>        0.000
      7 O6          5.8497    0.0608   -1.4876 O.3        1 <1>        0.000
      8 C13         1.4072    0.2501   -0.2748 C.2        1 <1>        0.000
      9 C14         2.5479   -0.2734   -0.7222 C.2        1 <1>        0.000
     10 C15         2.8621   -1.2927   -1.6854 C.2        1 <1>        0.000
     11 C16         3.9577   -2.0659   -1.6495 C.2        1 <1>        0.000
     12 C18         5.0347   -2.0152   -0.6958 C.2        1 <1>        0.000
     13 C19         5.9620   -0.8844   -0.5516 C.2        1 <1>        0.000
     14 C20         5.2881   -2.9199    0.2674 C.2        1 <1>        0.000
     15 O7          6.7835   -0.7880    0.3449 O.2        1 <1>        0.000
     16 H          -5.0859   -0.2488   -1.0838 H.spc      1 <1>        0.000
     17 H          -3.2852    1.3877    0.8835 H.spc      1 <1>        0.000
     18 H          -2.6411   -0.6543   -1.2734 H.spc      1 <1>        0.000
     19 H          -0.9536    0.9948    0.6971 H.spc      1 <1>        0.000
     20 H          -0.0030   -0.7665   -1.5267 H.spc      1 <1>        0.000
     21 H           5.1568   -0.1832   -2.1057 H.spc      1 <1>        0.000
     22 H           1.4983    1.0229    0.4885 H.spc      1 <1>        0.000
     23 H           3.4316    0.1651   -0.2586 H.spc      1 <1>        0.000
     24 H           2.1596   -1.4487   -2.5041 H.spc      1 <1>        0.000
     25 H           4.0421   -2.8193   -2.4327 H.spc      1 <1>        0.000
     26 H           4.6452   -3.7932    0.3776 H.spc      1 <1>        0.000
     27 H           6.1363   -2.7795    0.9375 H.spc      1 <1>        0.000
@<TRIPOS>BOND
     1    1    2 1  
     2   13   15 2  
     3    9   10 1  
     4    2    4 2  
     5   10   11 2  
     6    6    8 1  
     7    1    3 2  
     8    8    9 2  
     9   12   14 2  
    10    4    5 1  
    11    5    6 2  
    12   11   12 1  
    13   12   13 1  
    14   13    7 1  
    15    1   16 1  
    16    2   17 1  
    17    4   18 1  
    18    5   19 1  
    19    6   20 1  
    20    7   21 1  
    21    8   22 1  
    22    9   23 1  
    23   10   24 1  
    24   11   25 1  
    25   14   26 1  
    26   14   27 1  
# Name:          frag3-281-3/96164 -- energy: -1.978326
# Creation time: Sat Jun  5 12:53:26 2010


@<TRIPOS>MOLECULE
frag3-281-3/96164 -- energy: -1.978326
   27    26     1     1     1
SMALL
USER_CHARGES


@<TRIPOS>ATOM
      1 C4         -4.4289    0.3129    0.4557 C.2        1 <1>        0.000
      2 C6         -3.1220    0.3590   -0.1886 C.2        1 <1>        0.000
      3 O3         -5.3418    1.1051    0.2579 O.2        1 <1>        0.000
      4 C8         -2.1273   -0.5221   -0.0410 C.2        1 <1>        0.000
      5 C11        -0.8555   -0.4818   -0.6788 C.2        1 <1>        0.000
      6 C12        -0.0912    0.5865   -0.9479 C.2        1 <1>        0.000
      7 O6          6.1272   -0.5332    0.6988 O.3        1 <1>        0.000
      8 C13         1.1726    0.6457   -1.5930 C.2        1 <1>        0.000
      9 C14         2.2469   -0.0235   -1.1840 C.2        1 <1>        0.000
     10 C15         2.4797   -0.9008   -0.0773 C.2        1 <1>        0.000
     11 C16         3.5547   -1.6691    0.0840 C.2        1 <1>        0.000
     12 C18         4.7136   -1.7924   -0.7355 C.2        1 <1>        0.000
     13 C19         6.0098   -1.1429   -0.4824 C.2        1 <1>        0.000
     14 C20         4.7490   -2.3898   -1.9472 C.2        1 <1>        0.000
     15 O7          6.9365   -1.1268   -1.2705 O.2        1 <1>        0.000
     16 H          -4.6079   -0.4905    1.1703 H.spc      1 <1>        0.000
     17 H          -2.9368    1.1979   -0.8595 H.spc      1 <1>        0.000
     18 H          -2.3088   -1.3562    0.6368 H.spc      1 <1>        0.000
     19 H          -0.4500   -1.4449   -0.9889 H.spc      1 <1>        0.000
     20 H          -0.4974    1.5454   -0.6259 H.spc      1 <1>        0.000
     21 H           5.3126   -0.6404    1.1954 H.spc      1 <1>        0.000
     22 H           1.2679    1.2774   -2.4762 H.spc      1 <1>        0.000
     23 H           3.1223    0.1256   -1.8161 H.spc      1 <1>        0.000
     24 H           1.7138   -0.9433    0.6971 H.spc      1 <1>        0.000
     25 H           3.5472   -2.2969    0.9750 H.spc      1 <1>        0.000
     26 H           3.8419   -2.8243   -2.3673 H.spc      1 <1>        0.000
     27 H           5.6846   -2.4371   -2.5044 H.spc      1 <1>        0.000
@<TRIPOS>BOND
     1    1    2 1  
     2   13   15 2  
     3    9   10 1  
     4    2    4 2  
     5   10   11 2  
     6    6    8 1  
     7    1    3 2  
     8    8    9 2  
     9   12   14 2  
    10    4    5 1  
    11    5    6 2  
    12   11   12 1  
    13   12   13 1  
    14   13    7 1  
    15    1   16 1  
    16    2   17 1  
    17    4   18 1  
    18    5   19 1  
    19    6   20 1  
    20    7   21 1  
    21    8   22 1  
    22    9   23 1  
    23   10   24 1  
    24   11   25 1  
    25   14   26 1  
    26   14   27 1  
# Name:          frag3-281-3/96164 -- energy: -2.240260
# Creation time: Sat Jun  5 12:53:26 2010


@<TRIPOS>MOLECULE
frag3-281-3/96164 -- energy: -2.240260
   27    26     1     1     1
SMALL
USER_CHARGES


@<TRIPOS>ATOM
      1 C4         -4.4361   -0.1077   -0.5905 C.2        1 <1>        0.000
      2 C6         -3.0451    0.3292   -0.5405 C.2        1 <1>        0.000
      3 O3         -5.4217    0.6001   -0.4446 O.2        1 <1>        0.000
      4 C8         -1.9870   -0.4605   -0.7391 C.2        1 <1>        0.000
      5 C11        -0.6046   -0.1338   -0.7145 C.2        1 <1>        0.000
      6 C12         0.0334    0.7513    0.0558 C.2        1 <1>        0.000
      7 O6          4.6785   -2.0859   -2.4845 O.3        1 <1>        0.000
      8 C13         1.3944    1.1397    0.1231 C.2        1 <1>        0.000
      9 C14         2.4271    0.3111    0.2505 C.2        1 <1>        0.000
     10 C15         2.5387   -1.1038    0.3748 C.2        1 <1>        0.000
     11 C16         3.6274   -1.8482    0.1710 C.2        1 <1>        0.000
     12 C18         4.9435   -1.4668   -0.2162 C.2        1 <1>        0.000
     13 C19         5.4990   -1.5380   -1.5857 C.2        1 <1>        0.000
     14 C20         5.7818   -0.8392    0.6175 C.2        1 <1>        0.000
     15 O7          6.5942   -1.1207   -1.9268 O.2        1 <1>        0.000
     16 H          -4.6134   -1.1671   -0.7758 H.spc      1 <1>        0.000
     17 H          -2.8551    1.3806   -0.3245 H.spc      1 <1>        0.000
     18 H          -2.2166   -1.5049   -0.9502 H.spc      1 <1>        0.000
     19 H           0.0207   -0.6801   -1.4207 H.spc      1 <1>        0.000
     20 H          -0.6123    1.2710    0.7636 H.spc      1 <1>        0.000
     21 H           3.8666   -2.3584   -2.0507 H.spc      1 <1>        0.000
     22 H           1.6133    2.2060    0.0657 H.spc      1 <1>        0.000
     23 H           3.3900    0.8217    0.2623 H.spc      1 <1>        0.000
     24 H           1.6348   -1.6373    0.6689 H.spc      1 <1>        0.000
     25 H           3.4868   -2.9180    0.3255 H.spc      1 <1>        0.000
     26 H           5.4648   -0.6026    1.6332 H.spc      1 <1>        0.000
     27 H           6.7815   -0.5647    0.2807 H.spc      1 <1>        0.000
@<TRIPOS>BOND
     1    1    2 1  
     2   13   15 2  
     3    9   10 1  
     4    2    4 2  
     5   10   11 2  
     6    6    8 1  
     7    1    3 2  
     8    8    9 2  
     9   12   14 2  
    10    4    5 1  
    11    5    6 2  
    12   11   12 1  
    13   12   13 1  
    14   13    7 1  
    15    1   16 1  
    16    2   17 1  
    17    4   18 1  
    18    5   19 1  
    19    6   20 1  
    20    7   21 1  
    21    8   22 1  
    22    9   23 1  
    23   10   24 1  
    24   11   25 1  
    25   14   26 1  
    26   14   27 1  
# Name:          frag3-281-3/96164 -- energy: -2.105385
# Creation time: Sat Jun  5 12:53:26 2010


@<TRIPOS>MOLECULE
frag3-281-3/96164 -- energy: -2.105385
   27    26     1     1     1
SMALL
USER_CHARGES


@<TRIPOS>ATOM
      1 C4         -4.9932    0.0650   -0.1702 C.2        1 <1>        0.000
      2 C6         -3.6665    0.6002   -0.5033 C.2        1 <1>        0.000
      3 O3         -6.0503    0.3813   -0.6924 O.2        1 <1>        0.000
      4 C8         -2.5372    0.1554    0.0707 C.2        1 <1>        0.000
      5 C11        -1.2028    0.6168   -0.2219 C.2        1 <1>        0.000
      6 C12         0.0089    0.1592    0.1279 C.2        1 <1>        0.000
      7 O6          6.1326   -1.8315   -2.4404 O.3        1 <1>        0.000
      8 C13         1.2954    0.6933   -0.2554 C.2        1 <1>        0.000
      9 C14         2.3695    0.0025   -0.6348 C.2        1 <1>        0.000
     10 C15         2.6380   -1.4022   -0.8079 C.2        1 <1>        0.000
     11 C16         3.8289   -1.9935   -0.6912 C.2        1 <1>        0.000
     12 C18         5.1101   -1.4374   -0.3604 C.2        1 <1>        0.000
     13 C19         6.3439   -1.4785   -1.1690 C.2        1 <1>        0.000
     14 C20         5.2834   -0.8305    0.8244 C.2        1 <1>        0.000
     15 O7          7.4627   -1.2733   -0.7256 O.2        1 <1>        0.000
     16 H          -5.0381   -0.6861    0.6184 H.spc      1 <1>        0.000
     17 H          -3.5958    1.3925   -1.2485 H.spc      1 <1>        0.000
     18 H          -2.6382   -0.6244    0.8256 H.spc      1 <1>        0.000
     19 H          -1.1727    1.5088   -0.8476 H.spc      1 <1>        0.000
     20 H           0.0245   -0.7169    0.7763 H.spc      1 <1>        0.000
     21 H           5.1907   -1.9444   -2.5877 H.spc      1 <1>        0.000
     22 H           1.3983    1.7782   -0.2316 H.spc      1 <1>        0.000
     23 H           3.2277    0.6346   -0.8627 H.spc      1 <1>        0.000
     24 H           1.7907   -2.0409   -1.0571 H.spc      1 <1>        0.000
     25 H           3.8284   -3.0677   -0.8762 H.spc      1 <1>        0.000
     26 H           4.4540   -0.7624    1.5283 H.spc      1 <1>        0.000
     27 H           6.2535   -0.4059    1.0825 H.spc      1 <1>        0.000
@<TRIPOS>BOND
     1    1    2 1  
     2   13   15 2  
     3    9   10 1  
     4    2    4 2  
     5   10   11 2  
     6    6    8 1  
     7    1    3 2  
     8    8    9 2  
     9   12   14 2  
    10    4    5 1  
    11    5    6 2  
    12   11   12 1  
    13   12   13 1  
    14   13    7 1  
    15    1   16 1  
    16    2   17 1  
    17    4   18 1  
    18    5   19 1  
    19    6   20 1  
    20    7   21 1  
    21    8   22 1  
    22    9   23 1  
    23   10   24 1  
    24   11   25 1  
    25   14   26 1  
    26   14   27 1  
# Name:          frag3-281-3/96164 -- energy: -1.643067
# Creation time: Sat Jun  5 12:53:26 2010


@<TRIPOS>MOLECULE
frag3-281-3/96164 -- energy: -1.643067
   27    26     1     1     1
SMALL
USER_CHARGES


@<TRIPOS>ATOM
      1 C4         -4.2915   -0.2860   -0.5365 C.2        1 <1>        0.000
      2 C6         -2.8678   -0.0342   -0.7547 C.2        1 <1>        0.000
      3 O3         -5.0539   -0.8252   -1.3262 O.2        1 <1>        0.000
      4 C8         -2.0571    0.5798    0.1199 C.2        1 <1>        0.000
      5 C11        -0.6642    0.8304   -0.0772 C.2        1 <1>        0.000
      6 C12         0.3127    1.3058    0.7068 C.2        1 <1>        0.000
      7 O6          4.8922   -1.7586   -2.6972 O.3        1 <1>        0.000
      8 C13         1.6934    1.4494    0.3329 C.2        1 <1>        0.000
      9 C14         2.4731    0.4481   -0.1032 C.2        1 <1>        0.000
     10 C15         2.2393   -0.9592   -0.3260 C.2        1 <1>        0.000
     11 C16         3.1919   -1.8924   -0.4236 C.2        1 <1>        0.000
     12 C18         4.6121   -1.7410   -0.3638 C.2        1 <1>        0.000
     13 C19         5.5131   -1.6495   -1.5184 C.2        1 <1>        0.000
     14 C20         5.3078   -1.5415    0.7689 C.2        1 <1>        0.000
     15 O7          6.7221   -1.4994   -1.4514 O.2        1 <1>        0.000
     16 H          -4.7114    0.0361    0.4164 H.spc      1 <1>        0.000
     17 H          -2.4337   -0.3698   -1.6965 H.spc      1 <1>        0.000
     18 H          -2.4973    0.9154    1.0589 H.spc      1 <1>        0.000
     19 H          -0.3229    0.5811   -1.0819 H.spc      1 <1>        0.000
     20 H           0.0365    1.6103    1.7163 H.spc      1 <1>        0.000
     21 H           3.9498   -1.8701   -2.5521 H.spc      1 <1>        0.000
     22 H           2.1383    2.4416    0.4090 H.spc      1 <1>        0.000
     23 H           3.4907    0.7610   -0.3370 H.spc      1 <1>        0.000
     24 H           1.2042   -1.2868   -0.4223 H.spc      1 <1>        0.000
     25 H           2.8354   -2.9121   -0.5693 H.spc      1 <1>        0.000
     26 H           4.7878   -1.4858    1.7252 H.spc      1 <1>        0.000
     27 H           6.3920   -1.4354    0.7311 H.spc      1 <1>        0.000
@<TRIPOS>BOND
     1    1    2 1  
     2   13   15 2  
     3    9   10 1  
     4    2    4 2  
     5   10   11 2  
     6    6    8 1  
     7    1    3 2  
     8    8    9 2  
     9   12   14 2  
    10    4    5 1  
    11    5    6 2  
    12   11   12 1  
    13   12   13 1  
    14   13    7 1  
    15    1   16 1  
    16    2   17 1  
    17    4   18 1  
    18    5   19 1  
    19    6   20 1  
    20    7   21 1  
    21    8   22 1  
    22    9   23 1  
    23   10   24 1  
    24   11   25 1  
    25   14   26 1  
    26   14   27 1  
# Name:          frag3-281-3/96164 -- energy: -2.397805
# Creation time: Sat Jun  5 12:53:26 2010


@<TRIPOS>MOLECULE
frag3-281-3/96164 -- energy: -2.397805
   27    26     1     1     1
SMALL
USER_CHARGES


@<TRIPOS>ATOM
      1 C4         -4.4230   -0.2087   -0.6390 C.2        1 <1>        0.000
      2 C6         -3.0065    0.1418   -0.6251 C.2        1 <1>        0.000
      3 O3         -4.9328   -1.0998   -1.3089 O.2        1 <1>        0.000
      4 C8         -2.4404    1.1234    0.0958 C.2        1 <1>        0.000
      5 C11        -1.0638    1.4844    0.1001 C.2        1 <1>        0.000
      6 C12        -0.0022    0.6802    0.2020 C.2        1 <1>        0.000
      7 O6          5.3625   -2.9575   -2.1643 O.3        1 <1>        0.000
      8 C13         1.3866    0.9894    0.1755 C.2        1 <1>        0.000
      9 C14         2.4160    0.1533    0.2181 C.2        1 <1>        0.000
     10 C15         2.5713   -1.2644    0.3347 C.2        1 <1>        0.000
     11 C16         3.6998   -1.9350    0.0791 C.2        1 <1>        0.000
     12 C18         4.9697   -1.4619   -0.3737 C.2        1 <1>        0.000
     13 C19         5.5594   -1.7321   -1.6870 C.2        1 <1>        0.000
     14 C20         5.7627   -0.5969    0.2752 C.2        1 <1>        0.000
     15 O7          6.1640   -0.8893   -2.3321 O.2        1 <1>        0.000
     16 H          -5.0856    0.3726    0.0023 H.spc      1 <1>        0.000
     17 H          -2.3456   -0.4487   -1.2596 H.spc      1 <1>        0.000
     18 H          -3.1012    1.7012    0.7420 H.spc      1 <1>        0.000
     19 H          -0.8492    2.5492    0.0089 H.spc      1 <1>        0.000
     20 H          -0.2360   -0.3774    0.3245 H.spc      1 <1>        0.000
     21 H           4.8723   -3.4752   -1.5214 H.spc      1 <1>        0.000
     22 H           1.6367    2.0484    0.1121 H.spc      1 <1>        0.000
     23 H           3.3729    0.6704    0.1473 H.spc      1 <1>        0.000
     24 H           1.7042   -1.8414    0.6562 H.spc      1 <1>        0.000
     25 H           3.6417   -3.0112    0.2417 H.spc      1 <1>        0.000
     26 H           5.4533   -0.1908    1.2383 H.spc      1 <1>        0.000
     27 H           6.7167   -0.2998   -0.1604 H.spc      1 <1>        0.000
@<TRIPOS>BOND
     1    1    2 1  
     2   13   15 2  
     3    9   10 1  
     4    2    4 2  
     5   10   11 2  
     6    6    8 1  
     7    1    3 2  
     8    8    9 2  
     9   12   14 2  
    10    4    5 1  
    11    5    6 2  
    12   11   12 1  
    13   12   13 1  
    14   13    7 1  
    15    1   16 1  
    16    2   17 1  
    17    4   18 1  
    18    5   19 1  
    19    6   20 1  
    20    7   21 1  
    21    8   22 1  
    22    9   23 1  
    23   10   24 1  
    24   11   25 1  
    25   14   26 1  
    26   14   27 1  
# Name:          frag3-281-3/96164 -- energy: -1.720078
# Creation time: Sat Jun  5 12:53:26 2010


@<TRIPOS>MOLECULE
frag3-281-3/96164 -- energy: -1.720078
   27    26     1     1     1
SMALL
USER_CHARGES


@<TRIPOS>ATOM
      1 C4         -3.9705   -0.6957   -0.5257 C.2        1 <1>        0.000
      2 C6         -2.5532   -0.4091   -0.7386 C.2        1 <1>        0.000
      3 O3         -4.6365   -1.5255   -1.1291 O.2        1 <1>        0.000
      4 C8         -1.8574    0.5534   -0.1148 C.2        1 <1>        0.000
      5 C11        -0.4705    0.8481   -0.3069 C.2        1 <1>        0.000
      6 C12         0.3469    1.7858    0.1927 C.2        1 <1>        0.000
      7 O6          3.7388   -3.0679   -1.7580 O.3        1 <1>        0.000
      8 C13         1.7477    1.9238   -0.0819 C.2        1 <1>        0.000
      9 C14         2.6840    0.9959    0.1768 C.2        1 <1>        0.000
     10 C15         2.6602   -0.3196    0.7761 C.2        1 <1>        0.000
     11 C16         3.5264   -1.3050    0.5062 C.2        1 <1>        0.000
     12 C18         4.6454   -1.3701   -0.3884 C.2        1 <1>        0.000
     13 C19         4.7663   -2.2377   -1.5626 C.2        1 <1>        0.000
     14 C20         5.6869   -0.5240   -0.3549 C.2        1 <1>        0.000
     15 O7          5.7086   -2.2255   -2.3405 O.2        1 <1>        0.000
     16 H          -4.4818   -0.1158    0.2426 H.spc      1 <1>        0.000
     17 H          -2.0194   -1.0262   -1.4613 H.spc      1 <1>        0.000
     18 H          -2.3986    1.1677    0.6049 H.spc      1 <1>        0.000
     19 H           0.0233    0.1703   -1.0032 H.spc      1 <1>        0.000
     20 H          -0.0957    2.5133    0.8731 H.spc      1 <1>        0.000
     21 H           3.0929   -2.9460   -1.0584 H.spc      1 <1>        0.000
     22 H           2.0794    2.8569   -0.5373 H.spc      1 <1>        0.000
     23 H           3.6827    1.3027   -0.1339 H.spc      1 <1>        0.000
     24 H           1.8760   -0.5256    1.5046 H.spc      1 <1>        0.000
     25 H           3.3489   -2.2224    1.0674 H.spc      1 <1>        0.000
     26 H           5.7165    0.2748    0.3861 H.spc      1 <1>        0.000
     27 H           6.5030   -0.6357   -1.0687 H.spc      1 <1>        0.000
@<TRIPOS>BOND
     1    1    2 1  
     2   13   15 2  
     3    9   10 1  
     4    2    4 2  
     5   10   11 2  
     6    6    8 1  
     7    1    3 2  
     8    8    9 2  
     9   12   14 2  
    10    4    5 1  
    11    5    6 2  
    12   11   12 1  
    13   12   13 1  
    14   13    7 1  
    15    1   16 1  
    16    2   17 1  
    17    4   18 1  
    18    5   19 1  
    19    6   20 1  
    20    7   21 1  
    21    8   22 1  
    22    9   23 1  
    23   10   24 1  
    24   11   25 1  
    25   14   26 1  
    26   14   27 1  
# Name:          frag3-281-3/96164 -- energy: -1.266386
# Creation time: Sat Jun  5 12:53:26 2010


@<TRIPOS>MOLECULE
frag3-281-3/96164 -- energy: -1.266386
   27    26     1     1     1
SMALL
USER_CHARGES


@<TRIPOS>ATOM
      1 C4         -4.9846    0.2011   -0.4084 C.2        1 <1>        0.000
      2 C6         -3.6255    0.4266    0.0639 C.2        1 <1>        0.000
      3 O3         -5.9900    0.5903    0.1637 O.2        1 <1>        0.000
      4 C8         -2.5007    0.0274   -0.5358 C.2        1 <1>        0.000
      5 C11        -1.1835    0.2844   -0.0640 C.2        1 <1>        0.000
      6 C12         0.0252    0.1040   -0.5875 C.2        1 <1>        0.000
      7 O6          6.6868   -0.5637   -1.6462 O.3        1 <1>        0.000
      8 C13         1.2915    0.4343   -0.0229 C.2        1 <1>        0.000
      9 C14         2.4974    0.1558   -0.5064 C.2        1 <1>        0.000
     10 C15         2.9158   -0.5492   -1.6739 C.2        1 <1>        0.000
     11 C16         3.9600   -1.3769   -1.6988 C.2        1 <1>        0.000
     12 C18         4.8837   -1.7266   -0.6665 C.2        1 <1>        0.000
     13 C19         6.3237   -1.4212   -0.6928 C.2        1 <1>        0.000
     14 C20         4.5908   -2.2627    0.5349 C.2        1 <1>        0.000
     15 O7          7.1327   -1.8969    0.0910 O.2        1 <1>        0.000
     16 H          -5.1128   -0.3540   -1.3377 H.spc      1 <1>        0.000
     17 H          -3.5153    0.9754    0.9992 H.spc      1 <1>        0.000
     18 H          -2.6001   -0.5407   -1.4607 H.spc      1 <1>        0.000
     19 H          -1.1604    0.7200    0.9349 H.spc      1 <1>        0.000
     20 H           0.0511   -0.3556   -1.5755 H.spc      1 <1>        0.000
     21 H           5.9143   -0.3064   -2.1547 H.spc      1 <1>        0.000
     22 H           1.2678    0.9815    0.9195 H.spc      1 <1>        0.000
     23 H           3.3185    0.5362    0.1012 H.spc      1 <1>        0.000
     24 H           2.3513   -0.4031   -2.5948 H.spc      1 <1>        0.000
     25 H           4.1372   -1.8638   -2.6578 H.spc      1 <1>        0.000
     26 H           3.5546   -2.4727    0.8000 H.spc      1 <1>        0.000
     27 H           5.3901   -2.4863    1.2414 H.spc      1 <1>        0.000
@<TRIPOS>BOND
     1    1    2 1  
     2   13   15 2  
     3    9   10 1  
     4    2    4 2  
     5   10   11 2  
     6    6    8 1  
     7    1    3 2  
     8    8    9 2  
     9   12   14 2  
    10    4    5 1  
    11    5    6 2  
    12   11   12 1  
    13   12   13 1  
    14   13    7 1  
    15    1   16 1  
    16    2   17 1  
    17    4   18 1  
    18    5   19 1  
    19    6   20 1  
    20    7   21 1  
    21    8   22 1  
    22    9   23 1  
    23   10   24 1  
    24   11   25 1  
    25   14   26 1  
    26   14   27 1  
# Name:          frag3-281-3/96164 -- energy: -1.935790
# Creation time: Sat Jun  5 12:53:26 2010


@<TRIPOS>MOLECULE
frag3-281-3/96164 -- energy: -1.935790
   27    26     1     1     1
SMALL
USER_CHARGES


@<TRIPOS>ATOM
      1 C4         -4.0548    0.6313    0.7710 C.2        1 <1>        0.000
      2 C6         -2.7857    0.6172    0.0457 C.2        1 <1>        0.000
      3 O3         -5.0641    1.2382    0.4420 O.2        1 <1>        0.000
      4 C8         -1.6846   -0.0522    0.4045 C.2        1 <1>        0.000
      5 C11        -0.4430   -0.0757   -0.2892 C.2        1 <1>        0.000
      6 C12        -0.2241   -0.1698   -1.6102 C.2        1 <1>        0.000
      7 O6          4.8930   -0.2666    1.1668 O.3        1 <1>        0.000
      8 C13         1.0109   -0.1704   -2.3203 C.2        1 <1>        0.000
      9 C14         2.0695   -0.9186   -2.0032 C.2        1 <1>        0.000
     10 C15         2.3187   -1.8942   -0.9823 C.2        1 <1>        0.000
     11 C16         3.5190   -2.1883   -0.4728 C.2        1 <1>        0.000
     12 C18         4.8114   -1.6373   -0.7556 C.2        1 <1>        0.000
     13 C19         5.5336   -0.6528    0.0629 C.2        1 <1>        0.000
     14 C20         5.4899   -1.8389   -1.8995 C.2        1 <1>        0.000
     15 O7          6.6336   -0.1952   -0.2093 O.2        1 <1>        0.000
     16 H          -4.1062    0.0470    1.6897 H.spc      1 <1>        0.000
     17 H          -2.7318    1.2054   -0.8704 H.spc      1 <1>        0.000
     18 H          -1.7449   -0.6390    1.3211 H.spc      1 <1>        0.000
     19 H           0.4485   -0.0084    0.3343 H.spc      1 <1>        0.000
     20 H          -1.1183   -0.2583   -2.2272 H.spc      1 <1>        0.000
     21 H           4.0501   -0.7228    1.2225 H.spc      1 <1>        0.000
     22 H           1.0974    0.4877   -3.1849 H.spc      1 <1>        0.000
     23 H           2.9249   -0.7533   -2.6582 H.spc      1 <1>        0.000
     24 H           1.4604   -2.4398   -0.5902 H.spc      1 <1>        0.000
     25 H           3.5140   -2.9758    0.2808 H.spc      1 <1>        0.000
     26 H           5.0591   -2.4573   -2.6869 H.spc      1 <1>        0.000
     27 H           6.4705   -1.3838   -2.0390 H.spc      1 <1>        0.000
@<TRIPOS>BOND
     1    1    2 1  
     2   13   15 2  
     3    9   10 1  
     4    2    4 2  
     5   10   11 2  
     6    6    8 1  
     7    1    3 2  
     8    8    9 2  
     9   12   14 2  
    10    4    5 1  
    11    5    6 2  
    12   11   12 1  
    13   12   13 1  
    14   13    7 1  
    15    1   16 1  
    16    2   17 1  
    17    4   18 1  
    18    5   19 1  
    19    6   20 1  
    20    7   21 1  
    21    8   22 1  
    22    9   23 1  
    23   10   24 1  
    24   11   25 1  
    25   14   26 1  
    26   14   27 1  
# Name:          frag3-281-3/96164 -- energy: -3.108915
# Creation time: Sat Jun  5 12:53:26 2010


@<TRIPOS>MOLECULE
frag3-281-3/96164 -- energy: -3.108915
   27    26     1     1     1
SMALL
USER_CHARGES


@<TRIPOS>ATOM
      1 C4         -2.5944   -1.4121   -0.2405 C.2        1 <1>        0.000
      2 C6         -1.3662   -0.6724   -0.5352 C.2        1 <1>        0.000
      3 O3         -2.7271   -2.6278   -0.2883 O.2        1 <1>        0.000
      4 C8         -1.2330    0.6595   -0.6022 C.2        1 <1>        0.000
      5 C11        -0.0458    1.3997   -0.8955 C.2        1 <1>        0.000
      6 C12         1.1846    1.2571   -0.3840 C.2        1 <1>        0.000
      7 O6          1.9523   -2.4567    0.4112 O.3        1 <1>        0.000
      8 C13         2.4121    1.9416   -0.6671 C.2        1 <1>        0.000
      9 C14         3.6495    1.7088   -0.2100 C.2        1 <1>        0.000
     10 C15         4.1875    0.7182    0.6762 C.2        1 <1>        0.000
     11 C16         4.1693   -0.5923    0.3899 C.2        1 <1>        0.000
     12 C18         3.6673   -1.3019   -0.7531 C.2        1 <1>        0.000
     13 C19         2.5436   -2.2524   -0.7693 C.2        1 <1>        0.000
     14 C20         4.0891   -1.1150   -2.0170 C.2        1 <1>        0.000
     15 O7          2.1345   -2.8275   -1.7648 O.2        1 <1>        0.000
     16 H          -3.4687   -0.8282    0.0472 H.spc      1 <1>        0.000
     17 H          -0.4696   -1.2644   -0.7186 H.spc      1 <1>        0.000
     18 H          -2.1324    1.2450   -0.4113 H.spc      1 <1>        0.000
     19 H          -0.1567    2.1897   -1.6382 H.spc      1 <1>        0.000
     20 H           1.2665    0.4854    0.3815 H.spc      1 <1>        0.000
     21 H           2.3934   -1.9326    1.0837 H.spc      1 <1>        0.000
     22 H           2.3252    2.7788   -1.3596 H.spc      1 <1>        0.000
     23 H           4.3941    2.4106   -0.5857 H.spc      1 <1>        0.000
     24 H           4.6283    1.0425    1.6189 H.spc      1 <1>        0.000
     25 H           4.6117   -1.2279    1.1570 H.spc      1 <1>        0.000
     26 H           4.8664   -0.3810   -2.2292 H.spc      1 <1>        0.000
     27 H           3.6535   -1.6976   -2.8287 H.spc      1 <1>        0.000
@<TRIPOS>BOND
     1    1    2 1  
     2   13   15 2  
     3    9   10 1  
     4    2    4 2  
     5   10   11 2  
     6    6    8 1  
     7    1    3 2  
     8    8    9 2  
     9   12   14 2  
    10    4    5 1  
    11    5    6 2  
    12   11   12 1  
    13   12   13 1  
    14   13    7 1  
    15    1   16 1  
    16    2   17 1  
    17    4   18 1  
    18    5   19 1  
    19    6   20 1  
    20    7   21 1  
    21    8   22 1  
    22    9   23 1  
    23   10   24 1  
    24   11   25 1  
    25   14   26 1  
    26   14   27 1  
# Name:          frag3-281-3/96164 -- energy: -2.533388
# Creation time: Sat Jun  5 12:53:26 2010


@<TRIPOS>MOLECULE
frag3-281-3/96164 -- energy: -2.533388
   27    26     1     1     1
SMALL
USER_CHARGES


@<TRIPOS>ATOM
      1 C4         -3.3693   -1.2097   -0.0404 C.2        1 <1>        0.000
      2 C6         -2.2973   -0.3652   -0.5647 C.2        1 <1>        0.000
      3 O3         -4.4684   -1.3769   -0.5501 O.2        1 <1>        0.000
      4 C8         -1.0852   -0.1882   -0.0217 C.2        1 <1>        0.000
      5 C11        -0.0458    0.6405   -0.5461 C.2        1 <1>        0.000
      6 C12         1.2374    0.8336   -0.2314 C.2        1 <1>        0.000
      7 O6          3.0201   -2.5911    0.6816 O.3        1 <1>        0.000
      8 C13         2.2060    1.7096   -0.8344 C.2        1 <1>        0.000
      9 C14         3.5258    1.7998   -0.6205 C.2        1 <1>        0.000
     10 C15         4.4090    1.0558    0.2286 C.2        1 <1>        0.000
     11 C16         4.6267   -0.2588    0.0628 C.2        1 <1>        0.000
     12 C18         4.0994   -1.1852   -0.9011 C.2        1 <1>        0.000
     13 C19         3.2258   -2.3320   -0.6129 C.2        1 <1>        0.000
     14 C20         4.2500   -1.0816   -2.2342 C.2        1 <1>        0.000
     15 O7          2.6892   -3.0238   -1.4654 O.2        1 <1>        0.000
     16 H          -3.1706   -1.7395    0.8912 H.spc      1 <1>        0.000
     17 H          -2.5046    0.1740   -1.4891 H.spc      1 <1>        0.000
     18 H          -0.8729   -0.7245    0.9032 H.spc      1 <1>        0.000
     19 H          -0.3726    1.2494   -1.3891 H.spc      1 <1>        0.000
     20 H           1.6051    0.2401    0.6056 H.spc      1 <1>        0.000
     21 H           3.5099   -1.9606    1.2147 H.spc      1 <1>        0.000
     22 H           1.8073    2.4028   -1.5751 H.spc      1 <1>        0.000
     23 H           4.0179    2.5824   -1.1981 H.spc      1 <1>        0.000
     24 H           4.9221    1.5756    1.0376 H.spc      1 <1>        0.000
     25 H           5.3203   -0.6972    0.7803 H.spc      1 <1>        0.000
     26 H           4.8079   -0.2457   -2.6563 H.spc      1 <1>        0.000
     27 H           3.8141   -1.8335   -2.8920 H.spc      1 <1>        0.000
@<TRIPOS>BOND
     1    1    2 1  
     2   13   15 2  
     3    9   10 1  
     4    2    4 2  
     5   10   11 2  
     6    6    8 1  
     7    1    3 2  
     8    8    9 2  
     9   12   14 2  
    10    4    5 1  
    11    5    6 2  
    12   11   12 1  
    13   12   13 1  
    14   13    7 1  
    15    1   16 1  
    16    2   17 1  
    17    4   18 1  
    18    5   19 1  
    19    6   20 1  
    20    7   21 1  
    21    8   22 1  
    22    9   23 1  
    23   10   24 1  
    24   11   25 1  
    25   14   26 1  
    26   14   27 1  
# Name:          frag3-281-3/96164 -- energy: -1.673971
# Creation time: Sat Jun  5 12:53:26 2010


@<TRIPOS>MOLECULE
frag3-281-3/96164 -- energy: -1.673971
   27    26     1     1     1
SMALL
USER_CHARGES


@<TRIPOS>ATOM
      1 C4         -4.2043   -0.2657   -0.6221 C.2        1 <1>        0.000
      2 C6         -2.7786   -0.3026   -0.2904 C.2        1 <1>        0.000
      3 O3         -4.9524   -1.2274   -0.7005 O.2        1 <1>        0.000
      4 C8         -1.9487    0.7494   -0.3020 C.2        1 <1>        0.000
      5 C11        -0.5626    0.7331    0.0332 C.2        1 <1>        0.000
      6 C12         0.3737    1.6760    0.1970 C.2        1 <1>        0.000
      7 O6          5.7648   -0.9995   -2.1874 O.3        1 <1>        0.000
      8 C13         1.7578    1.4889    0.5096 C.2        1 <1>        0.000
      9 C14         2.5662    0.6080   -0.0951 C.2        1 <1>        0.000
     10 C15         2.3495   -0.3318   -1.1620 C.2        1 <1>        0.000
     11 C16         3.0751   -1.4311   -1.3826 C.2        1 <1>        0.000
     12 C18         4.2135   -1.9268   -0.6709 C.2        1 <1>        0.000
     13 C19         5.6104   -1.6940   -1.0614 C.2        1 <1>        0.000
     14 C20         4.1786   -2.5566    0.5155 C.2        1 <1>        0.000
     15 O7          6.5803   -2.0930   -0.4307 O.2        1 <1>        0.000
     16 H          -4.6395    0.7143   -0.8178 H.spc      1 <1>        0.000
     17 H          -2.3565   -1.2677   -0.0103 H.spc      1 <1>        0.000
     18 H          -2.3736    1.7093   -0.5957 H.spc      1 <1>        0.000
     19 H          -0.1788   -0.2747    0.1919 H.spc      1 <1>        0.000
     20 H           0.0429    2.7078    0.0783 H.spc      1 <1>        0.000
     21 H           4.9024   -0.7719   -2.5425 H.spc      1 <1>        0.000
     22 H           2.1857    2.1086    1.2976 H.spc      1 <1>        0.000
     23 H           3.5833    0.6026    0.2968 H.spc      1 <1>        0.000
     24 H           1.5256   -0.1304   -1.8466 H.spc      1 <1>        0.000
     25 H           2.7534   -2.0394   -2.2279 H.spc      1 <1>        0.000
     26 H           3.2246   -2.7261    1.0147 H.spc      1 <1>        0.000
     27 H           5.1043   -2.8980    0.9787 H.spc      1 <1>        0.000
@<TRIPOS>BOND
     1    1    2 1  
     2   13   15 2  
     3    9   10 1  
     4    2    4 2  
     5   10   11 2  
     6    6    8 1  
     7    1    3 2  
     8    8    9 2  
     9   12   14 2  
    10    4    5 1  
    11    5    6 2  
    12   11   12 1  
    13   12   13 1  
    14   13    7 1  
    15    1   16 1  
    16    2   17 1  
    17    4   18 1  
    18    5   19 1  
    19    6   20 1  
    20    7   21 1  
    21    8   22 1  
    22    9   23 1  
    23   10   24 1  
    24   11   25 1  
    25   14   26 1  
    26   14   27 1  
# Name:          frag3-281-3/96164 -- energy: -1.767594
# Creation time: Sat Jun  5 12:53:26 2010


@<TRIPOS>MOLECULE
frag3-281-3/96164 -- energy: -1.767594
   27    26     1     1     1
SMALL
USER_CHARGES


@<TRIPOS>ATOM
      1 C4         -4.4804   -0.0886   -0.6196 C.2        1 <1>        0.000
      2 C6         -3.0644    0.0415   -0.2815 C.2        1 <1>        0.000
      3 O3         -5.0313   -1.0849   -1.0684 O.2        1 <1>        0.000
      4 C8         -2.4704    1.1334    0.2144 C.2        1 <1>        0.000
      5 C11        -1.1079    1.3328    0.5735 C.2        1 <1>        0.000
      6 C12        -0.0245    0.7672    0.0433 C.2        1 <1>        0.000
      7 O6          6.2357   -1.2703   -2.3248 O.3        1 <1>        0.000
      8 C13         1.3536    0.8706    0.3408 C.2        1 <1>        0.000
      9 C14         2.3745    0.2722   -0.2600 C.2        1 <1>        0.000
     10 C15         2.5046   -0.6309   -1.3505 C.2        1 <1>        0.000
     11 C16         3.4924   -1.5170   -1.4918 C.2        1 <1>        0.000
     12 C18         4.6308   -1.7955   -0.6727 C.2        1 <1>        0.000
     13 C19         6.0482   -1.6471   -1.0578 C.2        1 <1>        0.000
     14 C20         4.5552   -2.1390    0.6277 C.2        1 <1>        0.000
     15 O7          7.0072   -1.8176   -0.3222 O.2        1 <1>        0.000
     16 H          -5.1073    0.7879   -0.4559 H.spc      1 <1>        0.000
     17 H          -2.4338   -0.8317   -0.4488 H.spc      1 <1>        0.000
     18 H          -3.1236    1.9929    0.3647 H.spc      1 <1>        0.000
     19 H          -0.9279    2.0376    1.3852 H.spc      1 <1>        0.000
     20 H          -0.2440    0.0912   -0.7831 H.spc      1 <1>        0.000
     21 H           5.3848   -1.1821   -2.7605 H.spc      1 <1>        0.000
     22 H           1.6112    1.5273    1.1718 H.spc      1 <1>        0.000
     23 H           3.3346    0.5332    0.1852 H.spc      1 <1>        0.000
     24 H           1.7415   -0.5970   -2.1281 H.spc      1 <1>        0.000
     25 H           3.4186   -2.1354   -2.3864 H.spc      1 <1>        0.000
     26 H           3.5833   -2.2182    1.1148 H.spc      1 <1>        0.000
     27 H           5.4659   -2.3377    1.1927 H.spc      1 <1>        0.000
@<TRIPOS>BOND
     1    1    2 1  
     2   13   15 2  
     3    9   10 1  
     4    2    4 2  
     5   10   11 2  
     6    6    8 1  
     7    1    3 2  
     8    8    9 2  
     9   12   14 2  
    10    4    5 1  
    11    5    6 2  
    12   11   12 1  
    13   12   13 1  
    14   13    7 1  
    15    1   16 1  
    16    2   17 1  
    17    4   18 1  
    18    5   19 1  
    19    6   20 1  
    20    7   21 1  
    21    8   22 1  
    22    9   23 1  
    23   10   24 1  
    24   11   25 1  
    25   14   26 1  
    26   14   27 1  
# Name:          frag3-281-3/96164 -- energy: -3.663718
# Creation time: Sat Jun  5 12:53:26 2010


@<TRIPOS>MOLECULE
frag3-281-3/96164 -- energy: -3.663718
   27    26     1     1     1
SMALL
USER_CHARGES


@<TRIPOS>ATOM
      1 C4         -2.5791   -1.2370   -1.0293 C.2        1 <1>        0.000
      2 C6         -1.2920   -0.7173   -0.5602 C.2        1 <1>        0.000
      3 O3         -2.9381   -2.4060   -1.0169 O.2        1 <1>        0.000
      4 C8         -0.9217    0.5650   -0.6432 C.2        1 <1>        0.000
      5 C11         0.3185    1.1617   -0.2510 C.2        1 <1>        0.000
      6 C12         1.0902    0.9238    0.8215 C.2        1 <1>        0.000
      7 O6          1.7981   -2.1195   -2.0015 O.3        1 <1>        0.000
      8 C13         2.3425    1.5113    1.2142 C.2        1 <1>        0.000
      9 C14         3.4009    1.6727    0.4046 C.2        1 <1>        0.000
     10 C15         3.5669    1.3466   -0.9928 C.2        1 <1>        0.000
     11 C16         3.6534    0.0891   -1.4567 C.2        1 <1>        0.000
     12 C18         3.6299   -1.1918   -0.8143 C.2        1 <1>        0.000
     13 C19         2.7240   -2.3226   -1.0603 C.2        1 <1>        0.000
     14 C20         4.4605   -1.4600    0.2016 C.2        1 <1>        0.000
     15 O7          2.7693   -3.3892   -0.4652 O.2        1 <1>        0.000
     16 H          -3.2863   -0.5101   -1.4287 H.spc      1 <1>        0.000
     17 H          -0.5902   -1.4221   -0.1143 H.spc      1 <1>        0.000
     18 H          -1.6617    1.2451   -1.0650 H.spc      1 <1>        0.000
     19 H           0.6950    1.9284   -0.9282 H.spc      1 <1>        0.000
     20 H           0.7064    0.1646    1.5030 H.spc      1 <1>        0.000
     21 H           1.9020   -1.2375   -2.3660 H.spc      1 <1>        0.000
     22 H           2.4395    1.8506    2.2455 H.spc      1 <1>        0.000
     23 H           4.2747    2.1215    0.8771 H.spc      1 <1>        0.000
     24 H           3.6251    2.1656   -1.7097 H.spc      1 <1>        0.000
     25 H           3.7636    0.0311   -2.5396 H.spc      1 <1>        0.000
     26 H           5.1624   -0.7008    0.5466 H.spc      1 <1>        0.000
     27 H           4.4345   -2.4374    0.6833 H.spc      1 <1>        0.000
@<TRIPOS>BOND
     1    1    2 1  
     2   13   15 2  
     3    9   10 1  
     4    2    4 2  
     5   10   11 2  
     6    6    8 1  
     7    1    3 2  
     8    8    9 2  
     9   12   14 2  
    10    4    5 1  
    11    5    6 2  
    12   11   12 1  
    13   12   13 1  
    14   13    7 1  
    15    1   16 1  
    16    2   17 1  
    17    4   18 1  
    18    5   19 1  
    19    6   20 1  
    20    7   21 1  
    21    8   22 1  
    22    9   23 1  
    23   10   24 1  
    24   11   25 1  
    25   14   26 1  
    26   14   27 1  
# Name:          frag3-281-3/96164 -- energy: -1.676703
# Creation time: Sat Jun  5 12:53:26 2010


@<TRIPOS>MOLECULE
frag3-281-3/96164 -- energy: -1.676703
   27    26     1     1     1
SMALL
USER_CHARGES


@<TRIPOS>ATOM
      1 C4         -4.4510    0.5311    0.2541 C.2        1 <1>        0.000
      2 C6         -3.1221    0.7901   -0.2840 C.2        1 <1>        0.000
      3 O3         -4.8041   -0.3039    1.0692 O.2        1 <1>        0.000
      4 C8         -2.0398    0.1274    0.1253 C.2        1 <1>        0.000
      5 C11        -0.7078    0.3138   -0.3075 C.2        1 <1>        0.000
      6 C12        -0.2416    0.3957   -1.5605 C.2        1 <1>        0.000
      7 O6          5.7140   -1.1849    1.2123 O.3        1 <1>        0.000
      8 C13         1.1072    0.5949   -1.9756 C.2        1 <1>        0.000
      9 C14         2.1485   -0.1085   -1.5301 C.2        1 <1>        0.000
     10 C15         2.2813   -1.1917   -0.6049 C.2        1 <1>        0.000
     11 C16         3.4125   -1.8461   -0.3435 C.2        1 <1>        0.000
     12 C18         4.7406   -1.6758   -0.8587 C.2        1 <1>        0.000
     13 C19         5.9196   -1.2722   -0.0962 C.2        1 <1>        0.000
     14 C20         5.0523   -1.7295   -2.1669 C.2        1 <1>        0.000
     15 O7          7.0139   -1.0135   -0.5827 O.2        1 <1>        0.000
     16 H          -5.2429    1.1762   -0.1266 H.spc      1 <1>        0.000
     17 H          -3.0081    1.5557   -1.0514 H.spc      1 <1>        0.000
     18 H          -2.2007   -0.6444    0.8779 H.spc      1 <1>        0.000
     19 H           0.0384    0.4026    0.4820 H.spc      1 <1>        0.000
     20 H          -0.9804    0.2986   -2.3560 H.spc      1 <1>        0.000
     21 H           4.8050   -1.4230    1.4088 H.spc      1 <1>        0.000
     22 H           1.3011    1.3776   -2.7091 H.spc      1 <1>        0.000
     23 H           3.0981    0.2082   -1.9613 H.spc      1 <1>        0.000
     24 H           1.3850   -1.5072   -0.0708 H.spc      1 <1>        0.000
     25 H           3.3112   -2.6485    0.3872 H.spc      1 <1>        0.000
     26 H           4.2722   -1.9117   -2.9060 H.spc      1 <1>        0.000
     27 H           6.0849   -1.5908   -2.4873 H.spc      1 <1>        0.000
@<TRIPOS>BOND
     1    1    2 1  
     2   13   15 2  
     3    9   10 1  
     4    2    4 2  
     5   10   11 2  
     6    6    8 1  
     7    1    3 2  
     8    8    9 2  
     9   12   14 2  
    10    4    5 1  
    11    5    6 2  
    12   11   12 1  
    13   12   13 1  
    14   13    7 1  
    15    1   16 1  
    16    2   17 1  
    17    4   18 1  
    18    5   19 1  
    19    6   20 1  
    20    7   21 1  
    21    8   22 1  
    22    9   23 1  
    23   10   24 1  
    24   11   25 1  
    25   14   26 1  
    26   14   27 1  
# Name:          frag3-281-3/96164 -- energy: -2.343839
# Creation time: Sat Jun  5 12:53:26 2010


@<TRIPOS>MOLECULE
frag3-281-3/96164 -- energy: -2.343839
   27    26     1     1     1
SMALL
USER_CHARGES


@<TRIPOS>ATOM
      1 C4         -5.0236    0.3907   -0.4605 C.2        1 <1>        0.000
      2 C6         -3.6925    0.9299   -0.7158 C.2        1 <1>        0.000
      3 O3         -5.3265   -0.6202    0.1425 O.2        1 <1>        0.000
      4 C8         -2.5942    0.2728   -0.3370 C.2        1 <1>        0.000
      5 C11        -1.2538    0.6843   -0.5336 C.2        1 <1>        0.000
      6 C12        -0.0866    0.0558   -0.4196 C.2        1 <1>        0.000
      7 O6          5.3582   -2.5484   -2.1317 O.3        1 <1>        0.000
      8 C13         1.2041    0.5894   -0.6642 C.2        1 <1>        0.000
      9 C14         2.3780    0.0512   -0.3498 C.2        1 <1>        0.000
     10 C15         2.7774   -1.1406    0.3191 C.2        1 <1>        0.000
     11 C16         4.0247   -1.6106    0.3499 C.2        1 <1>        0.000
     12 C18         5.2260   -1.1282   -0.2457 C.2        1 <1>        0.000
     13 C19         6.0440   -1.8292   -1.2388 C.2        1 <1>        0.000
     14 C20         5.7303    0.1084   -0.1033 C.2        1 <1>        0.000
     15 O7          7.2578   -1.7785   -1.2610 O.2        1 <1>        0.000
     16 H          -5.8548    0.9697   -0.8629 H.spc      1 <1>        0.000
     17 H          -3.5928    1.8880   -1.2258 H.spc      1 <1>        0.000
     18 H          -2.7445   -0.6772    0.1758 H.spc      1 <1>        0.000
     19 H          -1.1589    1.7260   -0.8401 H.spc      1 <1>        0.000
     20 H          -0.1272   -0.9863   -0.1026 H.spc      1 <1>        0.000
     21 H           4.4185   -2.4652   -1.9540 H.spc      1 <1>        0.000
     22 H           1.2375    1.5546   -1.1696 H.spc      1 <1>        0.000
     23 H           3.2231    0.6570   -0.6768 H.spc      1 <1>        0.000
     24 H           2.0090   -1.7090    0.8431 H.spc      1 <1>        0.000
     25 H           4.1469   -2.5236    0.9326 H.spc      1 <1>        0.000
     26 H           5.2096    0.8417    0.5125 H.spc      1 <1>        0.000
     27 H           6.6603    0.3787   -0.6035 H.spc      1 <1>        0.000
@<TRIPOS>BOND
     1    1    2 1  
     2   13   15 2  
     3    9   10 1  
     4    2    4 2  
     5   10   11 2  
     6    6    8 1  
     7    1    3 2  
     8    8    9 2  
     9   12   14 2  
    10    4    5 1  
    11    5    6 2  
    12   11   12 1  
    13   12   13 1  
    14   13    7 1  
    15    1   16 1  
    16    2   17 1  
    17    4   18 1  
    18    5   19 1  
    19    6   20 1  
    20    7   21 1  
    21    8   22 1  
    22    9   23 1  
    23   10   24 1  
    24   11   25 1  
    25   14   26 1  
    26   14   27 1  
# Name:          frag3-281-3/96164 -- energy: -1.865473
# Creation time: Sat Jun  5 12:53:26 2010


@<TRIPOS>MOLECULE
frag3-281-3/96164 -- energy: -1.865473
   27    26     1     1     1
SMALL
USER_CHARGES


@<TRIPOS>ATOM
      1 C4         -4.0711   -0.1042    0.4722 C.2        1 <1>        0.000
      2 C6         -2.6163    0.0177    0.3705 C.2        1 <1>        0.000
      3 O3         -4.6975   -0.5213    1.4362 O.2        1 <1>        0.000
      4 C8         -1.9701    0.5320   -0.6858 C.2        1 <1>        0.000
      5 C11        -0.5579    0.6821   -0.8152 C.2        1 <1>        0.000
      6 C12         0.2524    1.2322   -1.7293 C.2        1 <1>        0.000
      7 O6          4.3935   -0.9554    1.1931 O.3        1 <1>        0.000
      8 C13         1.6844    1.2536   -1.7036 C.2        1 <1>        0.000
      9 C14         2.4800    0.1925   -1.5135 C.2        1 <1>        0.000
     10 C15         2.2492   -1.2139   -1.3181 C.2        1 <1>        0.000
     11 C16         3.1668   -2.1556   -1.0737 C.2        1 <1>        0.000
     12 C18         4.5752   -1.9732   -0.9159 C.2        1 <1>        0.000
     13 C19         5.2350   -1.2930    0.2139 C.2        1 <1>        0.000
     14 C20         5.4768   -2.2470   -1.8667 C.2        1 <1>        0.000
     15 O7          6.4229   -1.0198    0.2864 O.2        1 <1>        0.000
     16 H          -4.6528    0.2070   -0.3955 H.spc      1 <1>        0.000
     17 H          -2.0172   -0.3335    1.2107 H.spc      1 <1>        0.000
     18 H          -2.5814    0.8666   -1.5239 H.spc      1 <1>        0.000
     19 H          -0.0117    0.2494    0.0230 H.spc      1 <1>        0.000
     20 H          -0.2280    1.7135   -2.5812 H.spc      1 <1>        0.000
     21 H           3.5075   -1.2478    0.9671 H.spc      1 <1>        0.000
     22 H           2.1697    2.2183   -1.8518 H.spc      1 <1>        0.000
     23 H           3.5384    0.4530   -1.5050 H.spc      1 <1>        0.000
     24 H           1.2134   -1.5485   -1.3755 H.spc      1 <1>        0.000
     25 H           2.7987   -3.1777   -0.9848 H.spc      1 <1>        0.000
     26 H           5.1505   -2.6341   -2.8320 H.spc      1 <1>        0.000
     27 H           6.5373   -2.0828   -1.6756 H.spc      1 <1>        0.000
@<TRIPOS>BOND
     1    1    2 1  
     2   13   15 2  
     3    9   10 1  
     4    2    4 2  
     5   10   11 2  
     6    6    8 1  
     7    1    3 2  
     8    8    9 2  
     9   12   14 2  
    10    4    5 1  
    11    5    6 2  
    12   11   12 1  
    13   12   13 1  
    14   13    7 1  
    15    1   16 1  
    16    2   17 1  
    17    4   18 1  
    18    5   19 1  
    19    6   20 1  
    20    7   21 1  
    21    8   22 1  
    22    9   23 1  
    23   10   24 1  
    24   11   25 1  
    25   14   26 1  
    26   14   27 1  
# Name:          frag3-281-3/96164 -- energy: -1.865183
# Creation time: Sat Jun  5 12:53:27 2010


@<TRIPOS>MOLECULE
frag3-281-3/96164 -- energy: -1.865183
   27    26     1     1     1
SMALL
USER_CHARGES


@<TRIPOS>ATOM
      1 C4         -4.0717   -0.7185   -0.9818 C.2        1 <1>        0.000
      2 C6         -2.6250   -0.5439   -1.0942 C.2        1 <1>        0.000
      3 O3         -4.8684   -0.0327   -0.3633 O.2        1 <1>        0.000
      4 C8         -1.9575    0.3819   -0.3895 C.2        1 <1>        0.000
      5 C11        -0.5553    0.6423   -0.3922 C.2        1 <1>        0.000
      6 C12         0.2391    1.4267    0.3492 C.2        1 <1>        0.000
      7 O6          4.1672   -1.9041   -2.5243 O.3        1 <1>        0.000
      8 C13         1.6609    1.5370    0.2394 C.2        1 <1>        0.000
      9 C14         2.5245    0.5149    0.2604 C.2        1 <1>        0.000
     10 C15         2.3937   -0.9031    0.4139 C.2        1 <1>        0.000
     11 C16         3.3313   -1.8286    0.2011 C.2        1 <1>        0.000
     12 C18         4.6729   -1.6573   -0.2569 C.2        1 <1>        0.000
     13 C19         5.1462   -1.6718   -1.6502 C.2        1 <1>        0.000
     14 C20         5.6736   -1.3273    0.5696 C.2        1 <1>        0.000
     15 O7          6.2919   -1.4886   -2.0310 O.2        1 <1>        0.000
     16 H          -4.4917   -1.5691   -1.5186 H.spc      1 <1>        0.000
     17 H          -2.0689   -1.1887   -1.7747 H.spc      1 <1>        0.000
     18 H          -2.5601    1.0118    0.2648 H.spc      1 <1>        0.000
     19 H          -0.0160    0.0861   -1.1589 H.spc      1 <1>        0.000
     20 H          -0.2451    2.0398    1.1093 H.spc      1 <1>        0.000
     21 H           3.3400   -2.0239   -2.0522 H.spc      1 <1>        0.000
     22 H           2.0763    2.5387    0.1293 H.spc      1 <1>        0.000
     23 H           3.5592    0.8327    0.1319 H.spc      1 <1>        0.000
     24 H           1.4197   -1.2669    0.7410 H.spc      1 <1>        0.000
     25 H           3.0318   -2.8566    0.4049 H.spc      1 <1>        0.000
     26 H           5.4773   -1.1801    1.6316 H.spc      1 <1>        0.000
     27 H           6.6844   -1.2059    0.1803 H.spc      1 <1>        0.000
@<TRIPOS>BOND
     1    1    2 1  
     2   13   15 2  
     3    9   10 1  
     4    2    4 2  
     5   10   11 2  
     6    6    8 1  
     7    1    3 2  
     8    8    9 2  
     9   12   14 2  
    10    4    5 1  
    11    5    6 2  
    12   11   12 1  
    13   12   13 1  
    14   13    7 1  
    15    1   16 1  
    16    2   17 1  
    17    4   18 1  
    18    5   19 1  
    19    6   20 1  
    20    7   21 1  
    21    8   22 1  
    22    9   23 1  
    23   10   24 1  
    24   11   25 1  
    25   14   26 1  
    26   14   27 1  
# Name:          frag3-281-3/96164 -- energy: -1.596586
# Creation time: Sat Jun  5 12:53:27 2010


@<TRIPOS>MOLECULE
frag3-281-3/96164 -- energy: -1.596586
   27    26     1     1     1
SMALL
USER_CHARGES


@<TRIPOS>ATOM
      1 C4         -4.4494   -0.0672    0.3034 C.2        1 <1>        0.000
      2 C6         -3.0674    0.2715   -0.0327 C.2        1 <1>        0.000
      3 O3         -4.8803   -0.2757    1.4294 O.2        1 <1>        0.000
      4 C8         -2.5788    0.4819   -1.2636 C.2        1 <1>        0.000
      5 C11        -1.2414    0.8406   -1.6040 C.2        1 <1>        0.000
      6 C12        -0.1051    0.4089   -1.0502 C.2        1 <1>        0.000
      7 O6          6.3623   -1.1873    0.7876 O.3        1 <1>        0.000
      8 C13         1.2471    0.7719   -1.3185 C.2        1 <1>        0.000
      9 C14         2.3493    0.2944   -0.7490 C.2        1 <1>        0.000
     10 C15         2.5808   -0.7060    0.2454 C.2        1 <1>        0.000
     11 C16         3.5913   -1.5761    0.1903 C.2        1 <1>        0.000
     12 C18         4.6523   -1.7349   -0.7505 C.2        1 <1>        0.000
     13 C19         6.0860   -1.5160   -0.4804 C.2        1 <1>        0.000
     14 C20         4.4902   -1.9518   -2.0602 C.2        1 <1>        0.000
     15 O7          6.9865   -1.6273   -1.2966 O.2        1 <1>        0.000
     16 H          -5.1580   -0.1404   -0.5216 H.spc      1 <1>        0.000
     17 H          -2.3667    0.3617    0.7973 H.spc      1 <1>        0.000
     18 H          -3.2781    0.3665   -2.0917 H.spc      1 <1>        0.000
     19 H          -1.1326    1.5570   -2.4183 H.spc      1 <1>        0.000
     20 H          -0.2320   -0.3402   -0.2687 H.spc      1 <1>        0.000
     21 H           5.5459   -1.1430    1.2907 H.spc      1 <1>        0.000
     22 H           1.3953    1.5338   -2.0838 H.spc      1 <1>        0.000
     23 H           3.2636    0.7613   -1.1153 H.spc      1 <1>        0.000
     24 H           1.8968   -0.7611    1.0923 H.spc      1 <1>        0.000
     25 H           3.6093   -2.2937    1.0106 H.spc      1 <1>        0.000
     26 H           3.4871   -2.0191   -2.4814 H.spc      1 <1>        0.000
     27 H           5.3611   -2.0612   -2.7064 H.spc      1 <1>        0.000
@<TRIPOS>BOND
     1    1    2 1  
     2   13   15 2  
     3    9   10 1  
     4    2    4 2  
     5   10   11 2  
     6    6    8 1  
     7    1    3 2  
     8    8    9 2  
     9   12   14 2  
    10    4    5 1  
    11    5    6 2  
    12   11   12 1  
    13   12   13 1  
    14   13    7 1  
    15    1   16 1  
    16    2   17 1  
    17    4   18 1  
    18    5   19 1  
    19    6   20 1  
    20    7   21 1  
    21    8   22 1  
    22    9   23 1  
    23   10   24 1  
    24   11   25 1  
    25   14   26 1  
    26   14   27 1  
# Name:          frag3-281-3/96164 -- energy: -2.472910
# Creation time: Sat Jun  5 12:53:27 2010


@<TRIPOS>MOLECULE
frag3-281-3/96164 -- energy: -2.472910
   27    26     1     1     1
SMALL
USER_CHARGES


@<TRIPOS>ATOM
      1 C4         -4.2440   -0.1677    0.5766 C.2        1 <1>        0.000
      2 C6         -2.8563    0.1674    0.2666 C.2        1 <1>        0.000
      3 O3         -4.6153   -1.1059    1.2699 O.2        1 <1>        0.000
      4 C8         -2.4449    1.1094   -0.5918 C.2        1 <1>        0.000
      5 C11        -1.1012    1.4654   -0.9053 C.2        1 <1>        0.000
      6 C12        -0.0525    0.6506   -1.0632 C.2        1 <1>        0.000
      7 O6          5.3865   -2.8600    0.7704 O.3        1 <1>        0.000
      8 C13         1.3090    0.9514   -1.3419 C.2        1 <1>        0.000
      9 C14         2.3132    0.1077   -1.5685 C.2        1 <1>        0.000
     10 C15         2.4570   -1.3133   -1.6505 C.2        1 <1>        0.000
     11 C16         3.6030   -1.9733   -1.4516 C.2        1 <1>        0.000
     12 C18         4.8960   -1.4858   -1.0945 C.2        1 <1>        0.000
     13 C19         5.5444   -1.6623    0.2068 C.2        1 <1>        0.000
     14 C20         5.6718   -0.6860   -1.8427 C.2        1 <1>        0.000
     15 O7          6.1568   -0.7710    0.7700 O.2        1 <1>        0.000
     16 H          -5.0168    0.4740    0.1534 H.spc      1 <1>        0.000
     17 H          -2.0834   -0.4026    0.7822 H.spc      1 <1>        0.000
     18 H          -3.2260    1.6666   -1.1090 H.spc      1 <1>        0.000
     19 H          -0.9044    2.5300   -1.0316 H.spc      1 <1>        0.000
     20 H          -0.2768   -0.4113   -0.9624 H.spc      1 <1>        0.000
     21 H           4.8814   -3.4254    0.1815 H.spc      1 <1>        0.000
     22 H           1.5634    2.0108   -1.3742 H.spc      1 <1>        0.000
     23 H           3.2577    0.6268   -1.7316 H.spc      1 <1>        0.000
     24 H           1.5702   -1.8992   -1.8921 H.spc      1 <1>        0.000
     25 H           3.5396   -3.0535   -1.5829 H.spc      1 <1>        0.000
     26 H           5.3262   -0.3511   -2.8207 H.spc      1 <1>        0.000
     27 H           6.6475   -0.3713   -1.4723 H.spc      1 <1>        0.000
@<TRIPOS>BOND
     1    1    2 1  
     2   13   15 2  
     3    9   10 1  
     4    2    4 2  
     5   10   11 2  
     6    6    8 1  
     7    1    3 2  
     8    8    9 2  
     9   12   14 2  
    10    4    5 1  
    11    5    6 2  
    12   11   12 1  
    13   12   13 1  
    14   13    7 1  
    15    1   16 1  
    16    2   17 1  
    17    4   18 1  
    18    5   19 1  
    19    6   20 1  
    20    7   21 1  
    21    8   22 1  
    22    9   23 1  
    23   10   24 1  
    24   11   25 1  
    25   14   26 1  
    26   14   27 1  
# Name:          frag3-281-3/96164 -- energy: -2.213806
# Creation time: Sat Jun  5 12:53:27 2010


@<TRIPOS>MOLECULE
frag3-281-3/96164 -- energy: -2.213806
   27    26     1     1     1
SMALL
USER_CHARGES


@<TRIPOS>ATOM
      1 C4         -4.1929    0.0335    0.6739 C.2        1 <1>        0.000
      2 C6         -2.9621   -0.1101   -0.1003 C.2        1 <1>        0.000
      3 O3         -5.0930   -0.7874    0.7691 O.2        1 <1>        0.000
      4 C8         -1.9907    0.8083   -0.1505 C.2        1 <1>        0.000
      5 C11        -0.7619    0.7261   -0.8593 C.2        1 <1>        0.000
      6 C12         0.3462    1.4629   -0.9532 C.2        1 <1>        0.000
      7 O6          5.3032   -1.0907    1.2023 O.3        1 <1>        0.000
      8 C13         1.5303    1.1920   -1.7083 C.2        1 <1>        0.000
      9 C14         2.2699    0.0813   -1.6285 C.2        1 <1>        0.000
     10 C15         2.1968   -1.1297   -0.8610 C.2        1 <1>        0.000
     11 C16         3.2099   -1.9518   -0.5794 C.2        1 <1>        0.000
     12 C18         4.5902   -1.8858   -0.9178 C.2        1 <1>        0.000
     13 C19         5.6882   -1.4449   -0.0295 C.2        1 <1>        0.000
     14 C20         5.0279   -2.1129   -2.1595 C.2        1 <1>        0.000
     15 O7          6.8613   -1.3641   -0.3475 O.2        1 <1>        0.000
     16 H          -4.3211    0.9670    1.2218 H.spc      1 <1>        0.000
     17 H          -2.8264   -1.0263   -0.6750 H.spc      1 <1>        0.000
     18 H          -2.1611    1.7234    0.4166 H.spc      1 <1>        0.000
     19 H          -0.7121   -0.1650   -1.4850 H.spc      1 <1>        0.000
     20 H           0.3497    2.3906   -0.3809 H.spc      1 <1>        0.000
     21 H           4.3550   -1.2139    1.2878 H.spc      1 <1>        0.000
     22 H           1.8584    1.9584   -2.4104 H.spc      1 <1>        0.000
     23 H           3.1267    0.0993   -2.3020 H.spc      1 <1>        0.000
     24 H           1.2174   -1.4049   -0.4697 H.spc      1 <1>        0.000
     25 H           2.9317   -2.8242    0.0118 H.spc      1 <1>        0.000
     26 H           4.3194   -2.3578   -2.9508 H.spc      1 <1>        0.000
     27 H           6.0935   -2.0533   -2.3812 H.spc      1 <1>        0.000
@<TRIPOS>BOND
     1    1    2 1  
     2   13   15 2  
     3    9   10 1  
     4    2    4 2  
     5   10   11 2  
     6    6    8 1  
     7    1    3 2  
     8    8    9 2  
     9   12   14 2  
    10    4    5 1  
    11    5    6 2  
    12   11   12 1  
    13   12   13 1  
    14   13    7 1  
    15    1   16 1  
    16    2   17 1  
    17    4   18 1  
    18    5   19 1  
    19    6   20 1  
    20    7   21 1  
    21    8   22 1  
    22    9   23 1  
    23   10   24 1  
    24   11   25 1  
    25   14   26 1  
    26   14   27 1  
# Name:          frag3-281-3/96164 -- energy: -3.005066
# Creation time: Sat Jun  5 12:53:27 2010


@<TRIPOS>MOLECULE
frag3-281-3/96164 -- energy: -3.005066
   27    26     1     1     1
SMALL
USER_CHARGES


@<TRIPOS>ATOM
      1 C4         -2.9020   -1.2825   -0.5543 C.2        1 <1>        0.000
      2 C6         -1.7171   -0.4335   -0.4240 C.2        1 <1>        0.000
      3 O3         -3.3833   -1.9919    0.3176 O.2        1 <1>        0.000
      4 C8         -1.1120    0.2462   -1.4060 C.2        1 <1>        0.000
      5 C11         0.0235    1.1105   -1.3271 C.2        1 <1>        0.000
      6 C12         1.0981    1.0223   -0.5390 C.2        1 <1>        0.000
      7 O6          2.3183   -2.8911   -0.1425 O.3        1 <1>        0.000
      8 C13         2.2516    1.8381   -0.3459 C.2        1 <1>        0.000
      9 C14         3.3421    1.6312    0.3995 C.2        1 <1>        0.000
     10 C15         3.7640    0.5436    1.2160 C.2        1 <1>        0.000
     11 C16         4.0024   -0.6864    0.7398 C.2        1 <1>        0.000
     12 C18         3.9196   -1.2063   -0.5943 C.2        1 <1>        0.000
     13 C19         2.9907   -2.2411   -1.0951 C.2        1 <1>        0.000
     14 C20         4.6351   -0.7191   -1.6238 C.2        1 <1>        0.000
     15 O7          2.7923   -2.5132   -2.2706 O.2        1 <1>        0.000
     16 H          -3.4039   -1.2824   -1.5219 H.spc      1 <1>        0.000
     17 H          -1.2838   -0.3457    0.5723 H.spc      1 <1>        0.000
     18 H          -1.5435    0.1239   -2.3995 H.spc      1 <1>        0.000
     19 H           0.0106    1.9627   -2.0066 H.spc      1 <1>        0.000
     20 H           1.0921    0.1346    0.0935 H.spc      1 <1>        0.000
     21 H           2.5873   -2.5625    0.7185 H.spc      1 <1>        0.000
     22 H           2.2429    2.7807   -0.8933 H.spc      1 <1>        0.000
     23 H           4.0492    2.4605    0.3778 H.spc      1 <1>        0.000
     24 H           3.9001    0.7204    2.2829 H.spc      1 <1>        0.000
     25 H           4.3106   -1.4127    1.4919 H.spc      1 <1>        0.000
     26 H           5.3209    0.1132   -1.4654 H.spc      1 <1>        0.000
     27 H           4.5291   -1.1565   -2.6165 H.spc      1 <1>        0.000
@<TRIPOS>BOND
     1    1    2 1  
     2   13   15 2  
     3    9   10 1  
     4    2    4 2  
     5   10   11 2  
     6    6    8 1  
     7    1    3 2  
     8    8    9 2  
     9   12   14 2  
    10    4    5 1  
    11    5    6 2  
    12   11   12 1  
    13   12   13 1  
    14   13    7 1  
    15    1   16 1  
    16    2   17 1  
    17    4   18 1  
    18    5   19 1  
    19    6   20 1  
    20    7   21 1  
    21    8   22 1  
    22    9   23 1  
    23   10   24 1  
    24   11   25 1  
    25   14   26 1  
    26   14   27 1  
# Name:          frag3-281-3/96164 -- energy: -2.120603
# Creation time: Sat Jun  5 12:53:27 2010


@<TRIPOS>MOLECULE
frag3-281-3/96164 -- energy: -2.120603
   27    26     1     1     1
SMALL
USER_CHARGES


@<TRIPOS>ATOM
      1 C4         -4.5118   -0.0497   -0.4725 C.2        1 <1>        0.000
      2 C6         -3.1086    0.2305   -0.1920 C.2        1 <1>        0.000
      3 O3         -5.4508    0.6849   -0.1873 O.2        1 <1>        0.000
      4 C8         -2.0679   -0.5721   -0.4546 C.2        1 <1>        0.000
      5 C11        -0.6971   -0.2871   -0.1727 C.2        1 <1>        0.000
      6 C12        -0.0415    0.8659   -0.2940 C.2        1 <1>        0.000
      7 O6          6.0151   -1.2885   -2.3297 O.3        1 <1>        0.000
      8 C13         1.3160    1.1757   -0.0067 C.2        1 <1>        0.000
      9 C14         2.3417    0.4108   -0.3874 C.2        1 <1>        0.000
     10 C15         2.3982   -0.7997   -1.1458 C.2        1 <1>        0.000
     11 C16         3.4170   -1.6629   -1.1220 C.2        1 <1>        0.000
     12 C18         4.6459   -1.6168   -0.4114 C.2        1 <1>        0.000
     13 C19         5.9816   -1.5212   -1.0166 C.2        1 <1>        0.000
     14 C20         4.7633   -1.5140    0.9305 C.2        1 <1>        0.000
     15 O7          7.0221   -1.6290   -0.3875 O.2        1 <1>        0.000
     16 H          -4.7445   -0.9878   -0.9763 H.spc      1 <1>        0.000
     17 H          -2.8837    1.1879    0.2780 H.spc      1 <1>        0.000
     18 H          -2.2878   -1.5298   -0.9264 H.spc      1 <1>        0.000
     19 H          -0.1069   -1.1280    0.1914 H.spc      1 <1>        0.000
     20 H          -0.6359    1.6983   -0.6707 H.spc      1 <1>        0.000
     21 H           5.1179   -1.2320   -2.6665 H.spc      1 <1>        0.000
     22 H           1.5305    2.0856    0.5539 H.spc      1 <1>        0.000
     23 H           3.3149    0.7764   -0.0598 H.spc      1 <1>        0.000
     24 H           1.5500   -1.0347   -1.7888 H.spc      1 <1>        0.000
     25 H           3.2840   -2.5447   -1.7488 H.spc      1 <1>        0.000
     26 H           3.8703   -1.4595    1.5531 H.spc      1 <1>        0.000
     27 H           5.7510   -1.4855    1.3906 H.spc      1 <1>        0.000
@<TRIPOS>BOND
     1    1    2 1  
     2   13   15 2  
     3    9   10 1  
     4    2    4 2  
     5   10   11 2  
     6    6    8 1  
     7    1    3 2  
     8    8    9 2  
     9   12   14 2  
    10    4    5 1  
    11    5    6 2  
    12   11   12 1  
    13   12   13 1  
    14   13    7 1  
    15    1   16 1  
    16    2   17 1  
    17    4   18 1  
    18    5   19 1  
    19    6   20 1  
    20    7   21 1  
    21    8   22 1  
    22    9   23 1  
    23   10   24 1  
    24   11   25 1  
    25   14   26 1  
    26   14   27 1  
# Name:          frag3-281-3/96164 -- energy: -3.999838
# Creation time: Sat Jun  5 12:53:27 2010


@<TRIPOS>MOLECULE
frag3-281-3/96164 -- energy: -3.999838
   27    26     1     1     1
SMALL
USER_CHARGES


@<TRIPOS>ATOM
      1 C4         -2.4559   -1.4218   -0.5143 C.2        1 <1>        0.000
      2 C6         -1.1860   -0.7008   -0.5724 C.2        1 <1>        0.000
      3 O3         -2.8582   -2.2326   -1.3382 O.2        1 <1>        0.000
      4 C8         -0.7884    0.2729    0.2519 C.2        1 <1>        0.000
      5 C11         0.4496    0.9762    0.2500 C.2        1 <1>        0.000
      6 C12         1.2204    1.3571   -0.7748 C.2        1 <1>        0.000
      7 O6          1.6396   -2.5848   -0.1229 O.3        1 <1>        0.000
      8 C13         2.4738    2.0367   -0.7686 C.2        1 <1>        0.000
      9 C14         3.5220    1.7266   -0.0001 C.2        1 <1>        0.000
     10 C15         3.6977    0.6699    0.9547 C.2        1 <1>        0.000
     11 C16         3.6896   -0.6325    0.6301 C.2        1 <1>        0.000
     12 C18         3.5420   -1.2849   -0.6431 C.2        1 <1>        0.000
     13 C19         2.4582   -2.1801   -1.0876 C.2        1 <1>        0.000
     14 C20         4.3812   -1.0712   -1.6726 C.2        1 <1>        0.000
     15 O7          2.2379   -2.5039   -2.2419 O.2        1 <1>        0.000
     16 H          -3.1028   -1.2193    0.3393 H.spc      1 <1>        0.000
     17 H          -0.4953   -0.9853   -1.3662 H.spc      1 <1>        0.000
     18 H          -1.5015    0.5655    1.0226 H.spc      1 <1>        0.000
     19 H           0.8277    1.2460    1.2361 H.spc      1 <1>        0.000
     20 H           0.8319    1.1110   -1.7630 H.spc      1 <1>        0.000
     21 H           1.9497   -2.2477    0.7208 H.spc      1 <1>        0.000
     22 H           2.5865    2.8811   -1.4486 H.spc      1 <1>        0.000
     23 H           4.3840    2.3833   -0.1176 H.spc      1 <1>        0.000
     24 H           3.8458    0.9395    2.0004 H.spc      1 <1>        0.000
     25 H           3.8163   -1.3103    1.4742 H.spc      1 <1>        0.000
     26 H           5.2156   -0.3788   -1.5609 H.spc      1 <1>        0.000
     27 H           4.2268   -1.5905   -2.6184 H.spc      1 <1>        0.000
@<TRIPOS>BOND
     1    1    2 1  
     2   13   15 2  
     3    9   10 1  
     4    2    4 2  
     5   10   11 2  
     6    6    8 1  
     7    1    3 2  
     8    8    9 2  
     9   12   14 2  
    10    4    5 1  
    11    5    6 2  
    12   11   12 1  
    13   12   13 1  
    14   13    7 1  
    15    1   16 1  
    16    2   17 1  
    17    4   18 1  
    18    5   19 1  
    19    6   20 1  
    20    7   21 1  
    21    8   22 1  
    22    9   23 1  
    23   10   24 1  
    24   11   25 1  
    25   14   26 1  
    26   14   27 1  
# Name:          frag3-281-3/96164 -- energy: -2.129197
# Creation time: Sat Jun  5 12:53:27 2010


@<TRIPOS>MOLECULE
frag3-281-3/96164 -- energy: -2.129197
   27    26     1     1     1
SMALL
USER_CHARGES


@<TRIPOS>ATOM
      1 C4         -3.9682    0.2098    0.7422 C.2        1 <1>        0.000
      2 C6         -2.6831    0.1793    0.0484 C.2        1 <1>        0.000
      3 O3         -5.0146   -0.2729    0.3312 O.2        1 <1>        0.000
      4 C8         -1.5304    0.7050    0.4818 C.2        1 <1>        0.000
      5 C11        -0.2714    0.6642   -0.1785 C.2        1 <1>        0.000
      6 C12        -0.0133    0.7264   -1.4924 C.2        1 <1>        0.000
      7 O6          4.8566   -0.7580    1.2437 O.3        1 <1>        0.000
      8 C13         1.2302    0.6415   -2.1698 C.2        1 <1>        0.000
      9 C14         2.1113   -0.3438   -1.9835 C.2        1 <1>        0.000
     10 C15         2.1242   -1.5100   -1.1505 C.2        1 <1>        0.000
     11 C16         3.2153   -2.1255   -0.6950 C.2        1 <1>        0.000
     12 C18         4.5959   -1.7966   -0.8636 C.2        1 <1>        0.000
     13 C19         5.4650   -1.1163    0.1141 C.2        1 <1>        0.000
     14 C20         5.2628   -1.9286   -2.0250 C.2        1 <1>        0.000
     15 O7          6.6430   -0.8477   -0.0528 O.2        1 <1>        0.000
     16 H          -3.9975    0.7066    1.7120 H.spc      1 <1>        0.000
     17 H          -2.6602   -0.3217   -0.9193 H.spc      1 <1>        0.000
     18 H          -1.5601    1.2188    1.4427 H.spc      1 <1>        0.000
     19 H           0.5995    0.5698    0.4701 H.spc      1 <1>        0.000
     20 H          -0.8848    0.8618   -2.1329 H.spc      1 <1>        0.000
     21 H           3.9400   -1.0420    1.2161 H.spc      1 <1>        0.000
     22 H           1.4807    1.4262   -2.8837 H.spc      1 <1>        0.000
     23 H           3.0092   -0.2396   -2.5926 H.spc      1 <1>        0.000
     24 H           1.1595   -1.9294   -0.8651 H.spc      1 <1>        0.000
     25 H           3.0248   -3.0194   -0.1011 H.spc      1 <1>        0.000
     26 H           4.7486   -2.3061   -2.9089 H.spc      1 <1>        0.000
     27 H           6.3172   -1.6580   -2.0818 H.spc      1 <1>        0.000
@<TRIPOS>BOND
     1    1    2 1  
     2   13   15 2  
     3    9   10 1  
     4    2    4 2  
     5   10   11 2  
     6    6    8 1  
     7    1    3 2  
     8    8    9 2  
     9   12   14 2  
    10    4    5 1  
    11    5    6 2  
    12   11   12 1  
    13   12   13 1  
    14   13    7 1  
    15    1   16 1  
    16    2   17 1  
    17    4   18 1  
    18    5   19 1  
    19    6   20 1  
    20    7   21 1  
    21    8   22 1  
    22    9   23 1  
    23   10   24 1  
    24   11   25 1  
    25   14   26 1  
    26   14   27 1  
# Name:          frag3-281-3/96164 -- energy: 2.244971
# Creation time: Sat Jun  5 12:53:27 2010


@<TRIPOS>MOLECULE
frag3-281-3/96164 -- energy: 2.244971
   27    26     1     1     1
SMALL
USER_CHARGES


@<TRIPOS>ATOM
      1 C4         -4.2354    0.1810    0.8186 C.2        1 <1>        0.000
      2 C6         -2.8297    0.4342    0.5017 C.2        1 <1>        0.000
      3 O3         -4.7907    0.4460    1.8736 O.2        1 <1>        0.000
      4 C8         -2.2193    0.0553   -0.6305 C.2        1 <1>        0.000
      5 C11        -0.8433    0.3278   -0.9463 C.2        1 <1>        0.000
      6 C12        -0.1600    0.2839   -2.0976 C.2        1 <1>        0.000
      7 O6          6.9199   -1.3083    0.2220 O.3        1 <1>        0.000
      8 C13         1.2335    0.5956   -2.2448 C.2        1 <1>        0.000
      9 C14         2.2471   -0.1732   -1.8204 C.2        1 <1>        0.000
     10 C15         2.3149   -1.4489   -1.1330 C.2        1 <1>        0.000
     11 C16         3.4555   -2.0511   -0.7581 C.2        1 <1>        0.000
     12 C18         4.8179   -1.6242   -0.8885 C.2        1 <1>        0.000
     13 C19         5.5910   -1.1566    0.2537 C.2        1 <1>        0.000
     14 C20         5.4986   -1.4655   -2.0243 C.2        1 <1>        0.000
     15 O7          5.0234   -0.6690    1.2243 O.2        1 <1>        0.000
     16 H          -4.8420   -0.2864    0.0429 H.spc      1 <1>        0.000
     17 H          -2.2345    0.9706    1.2407 H.spc      1 <1>        0.000
     18 H          -2.8074   -0.4980   -1.3627 H.spc      1 <1>        0.000
     19 H          -0.2430    0.6264   -0.0869 H.spc      1 <1>        0.000
     20 H          -0.7054   -0.0120   -2.9938 H.spc      1 <1>        0.000
     21 H           7.1758   -1.7043   -0.6143 H.spc      1 <1>        0.000
     22 H           1.4881    1.5320   -2.7412 H.spc      1 <1>        0.000
     23 H           3.2277    0.2501   -2.0381 H.spc      1 <1>        0.000
     24 H           1.3759   -1.9533   -0.9051 H.spc      1 <1>        0.000
     25 H           3.3241   -3.0205   -0.2773 H.spc      1 <1>        0.000
     26 H           5.0170   -1.6675   -2.9811 H.spc      1 <1>        0.000
     27 H           6.5365   -1.1338   -1.9958 H.spc      1 <1>        0.000
@<TRIPOS>BOND
     1    1    2 1  
     2   13   15 2  
     3    9   10 1  
     4    2    4 2  
     5   10   11 2  
     6    6    8 1  
     7    1    3 2  
     8    8    9 2  
     9   12   14 2  
    10    4    5 1  
    11    5    6 2  
    12   11   12 1  
    13   12   13 1  
    14   13    7 1  
    15    1   16 1  
    16    2   17 1  
    17    4   18 1  
    18    5   19 1  
    19    6   20 1  
    20    7   21 1  
    21    8   22 1  
    22    9   23 1  
    23   10   24 1  
    24   11   25 1  
    25   14   26 1  
    26   14   27 1  
# Name:          frag3-281-3/96164 -- energy: -1.842997
# Creation time: Sat Jun  5 12:53:27 2010


@<TRIPOS>MOLECULE
frag3-281-3/96164 -- energy: -1.842997
   27    26     1     1     1
SMALL
USER_CHARGES


@<TRIPOS>ATOM
      1 C4         -4.3276   -0.5294   -0.4876 C.2        1 <1>        0.000
      2 C6         -2.9359   -0.5753   -0.0517 C.2        1 <1>        0.000
      3 O3         -4.9083    0.3077   -1.1591 O.2        1 <1>        0.000
      4 C8         -2.0846    0.4252   -0.3009 C.2        1 <1>        0.000
      5 C11        -0.7176    0.5168    0.0700 C.2        1 <1>        0.000
      6 C12         0.2391    1.4306   -0.1220 C.2        1 <1>        0.000
      7 O6          5.3052   -1.3130   -2.6200 O.3        1 <1>        0.000
      8 C13         1.6002    1.3384    0.2985 C.2        1 <1>        0.000
      9 C14         2.3947    0.2848    0.0779 C.2        1 <1>        0.000
     10 C15         2.2242   -0.9750   -0.5933 C.2        1 <1>        0.000
     11 C16         3.1752   -1.8927   -0.7945 C.2        1 <1>        0.000
     12 C18         4.5613   -1.8551   -0.4420 C.2        1 <1>        0.000
     13 C19         5.6486   -1.4429   -1.3391 C.2        1 <1>        0.000
     14 C20         5.0515   -2.0702    0.7903 C.2        1 <1>        0.000
     15 O7          6.7973   -1.2231   -0.9764 O.2        1 <1>        0.000
     16 H          -4.9414   -1.3702   -0.1645 H.spc      1 <1>        0.000
     17 H          -2.5801   -1.4501    0.4926 H.spc      1 <1>        0.000
     18 H          -2.4889    1.2721   -0.8554 H.spc      1 <1>        0.000
     19 H          -0.3718   -0.3482    0.6359 H.spc      1 <1>        0.000
     20 H          -0.0492    2.3376   -0.6533 H.spc      1 <1>        0.000
     21 H           4.3742   -1.5229   -2.7234 H.spc      1 <1>        0.000
     22 H           2.0221    2.1866    0.8376 H.spc      1 <1>        0.000
     23 H           3.3917    0.4091    0.5005 H.spc      1 <1>        0.000
     24 H           1.2282   -1.2028   -0.9730 H.spc      1 <1>        0.000
     25 H           2.8472   -2.8009   -1.3002 H.spc      1 <1>        0.000
     26 H           4.3745   -2.2941    1.6147 H.spc      1 <1>        0.000
     27 H           6.1262   -2.0208    0.9656 H.spc      1 <1>        0.000
@<TRIPOS>BOND
     1    1    2 1  
     2   13   15 2  
     3    9   10 1  
     4    2    4 2  
     5   10   11 2  
     6    6    8 1  
     7    1    3 2  
     8    8    9 2  
     9   12   14 2  
    10    4    5 1  
    11    5    6 2  
    12   11   12 1  
    13   12   13 1  
    14   13    7 1  
    15    1   16 1  
    16    2   17 1  
    17    4   18 1  
    18    5   19 1  
    19    6   20 1  
    20    7   21 1  
    21    8   22 1  
    22    9   23 1  
    23   10   24 1  
    24   11   25 1  
    25   14   26 1  
    26   14   27 1  
# Name:          frag3-281-3/96164 -- energy: -1.601085
# Creation time: Sat Jun  5 12:53:27 2010


@<TRIPOS>MOLECULE
frag3-281-3/96164 -- energy: -1.601085
   27    26     1     1     1
SMALL
USER_CHARGES


@<TRIPOS>ATOM
      1 C4         -4.0182   -0.4852    0.2001 C.2        1 <1>        0.000
      2 C6         -2.6256   -0.3986   -0.2397 C.2        1 <1>        0.000
      3 O3         -4.7060   -1.4965    0.2304 O.2        1 <1>        0.000
      4 C8         -1.8784    0.7147   -0.2412 C.2        1 <1>        0.000
      5 C11        -0.5204    0.8170   -0.6592 C.2        1 <1>        0.000
      6 C12         0.3257    1.8329   -0.8873 C.2        1 <1>        0.000
      7 O6          5.8544   -1.4499    0.6623 O.3        1 <1>        0.000
      8 C13         1.7035    1.7605   -1.2785 C.2        1 <1>        0.000
      9 C14         2.5770    0.8566   -0.8182 C.2        1 <1>        0.000
     10 C15         2.4283   -0.2125    0.1332 C.2        1 <1>        0.000
     11 C16         3.0811   -1.3722    0.0931 C.2        1 <1>        0.000
     12 C18         4.0725   -1.8403   -0.8253 C.2        1 <1>        0.000
     13 C19         5.5171   -1.8674   -0.5602 C.2        1 <1>        0.000
     14 C20         3.8494   -2.2015   -2.1044 C.2        1 <1>        0.000
     15 O7          6.3630   -2.2309   -1.3550 O.2        1 <1>        0.000
     16 H          -4.4882    0.4403    0.5328 H.spc      1 <1>        0.000
     17 H          -2.1563   -1.3157   -0.5959 H.spc      1 <1>        0.000
     18 H          -2.3558    1.6291    0.1112 H.spc      1 <1>        0.000
     19 H          -0.0622   -0.1564   -0.8345 H.spc      1 <1>        0.000
     20 H          -0.0838    2.8350   -0.7598 H.spc      1 <1>        0.000
     21 H           5.0619   -1.2049    1.1455 H.spc      1 <1>        0.000
     22 H           2.0646    2.4925   -2.0010 H.spc      1 <1>        0.000
     23 H           3.5786    0.9464   -1.2387 H.spc      1 <1>        0.000
     24 H           1.7251   -0.0609    0.9521 H.spc      1 <1>        0.000
     25 H           2.8189   -2.0749    0.8840 H.spc      1 <1>        0.000
     26 H           2.8422   -2.1488   -2.5179 H.spc      1 <1>        0.000
     27 H           4.6761   -2.5464   -2.7254 H.spc      1 <1>        0.000
@<TRIPOS>BOND
     1    1    2 1  
     2   13   15 2  
     3    9   10 1  
     4    2    4 2  
     5   10   11 2  
     6    6    8 1  
     7    1    3 2  
     8    8    9 2  
     9   12   14 2  
    10    4    5 1  
    11    5    6 2  
    12   11   12 1  
    13   12   13 1  
    14   13    7 1  
    15    1   16 1  
    16    2   17 1  
    17    4   18 1  
    18    5   19 1  
    19    6   20 1  
    20    7   21 1  
    21    8   22 1  
    22    9   23 1  
    23   10   24 1  
    24   11   25 1  
    25   14   26 1  
    26   14   27 1  
# Name:          frag3-281-3/96164 -- energy: -3.766998
# Creation time: Sat Jun  5 12:53:27 2010


@<TRIPOS>MOLECULE
frag3-281-3/96164 -- energy: -3.766998
   27    26     1     1     1
SMALL
USER_CHARGES


@<TRIPOS>ATOM
      1 C4         -2.9646   -1.2998   -0.4583 C.2        1 <1>        0.000
      2 C6         -1.8417   -0.3647   -0.5366 C.2        1 <1>        0.000
      3 O3         -4.0462   -1.1871   -1.0169 O.2        1 <1>        0.000
      4 C8         -0.6885   -0.5047    0.1274 C.2        1 <1>        0.000
      5 C11         0.4404    0.3644    0.1364 C.2        1 <1>        0.000
      6 C12         1.0882    0.9792   -0.8632 C.2        1 <1>        0.000
      7 O6          2.2901   -2.7973   -0.0931 O.3        1 <1>        0.000
      8 C13         2.1981    1.8855   -0.8585 C.2        1 <1>        0.000
      9 C14         3.2872    1.8249   -0.0789 C.2        1 <1>        0.000
     10 C15         3.6637    0.8537    0.9005 C.2        1 <1>        0.000
     11 C16         3.9130   -0.4324    0.6170 C.2        1 <1>        0.000
     12 C18         3.9178   -1.1468   -0.6297 C.2        1 <1>        0.000
     13 C19         3.0537   -2.2672   -1.0544 C.2        1 <1>        0.000
     14 C20         4.7234   -0.7724   -1.6478 C.2        1 <1>        0.000
     15 O7          2.9887   -2.7085   -2.1937 O.2        1 <1>        0.000
     16 H          -2.8223   -2.1859    0.1603 H.spc      1 <1>        0.000
     17 H          -1.9525    0.5072   -1.1812 H.spc      1 <1>        0.000
     18 H          -0.6014   -1.4008    0.7418 H.spc      1 <1>        0.000
     19 H           0.8478    0.5639    1.1275 H.spc      1 <1>        0.000
     20 H           0.7020    0.7488   -1.8561 H.spc      1 <1>        0.000
     21 H           2.4588   -2.3425    0.7353 H.spc      1 <1>        0.000
     22 H           2.1520    2.7140   -1.5653 H.spc      1 <1>        0.000
     23 H           3.9953    2.6427   -0.2125 H.spc      1 <1>        0.000
     24 H           3.7531    1.1778    1.9373 H.spc      1 <1>        0.000
     25 H           4.1549   -1.0446    1.4858 H.spc      1 <1>        0.000
     26 H           5.3855    0.0857   -1.5317 H.spc      1 <1>        0.000
     27 H           4.7112   -1.3284   -2.5852 H.spc      1 <1>        0.000
@<TRIPOS>BOND
     1    1    2 1  
     2   13   15 2  
     3    9   10 1  
     4    2    4 2  
     5   10   11 2  
     6    6    8 1  
     7    1    3 2  
     8    8    9 2  
     9   12   14 2  
    10    4    5 1  
    11    5    6 2  
    12   11   12 1  
    13   12   13 1  
    14   13    7 1  
    15    1   16 1  
    16    2   17 1  
    17    4   18 1  
    18    5   19 1  
    19    6   20 1  
    20    7   21 1  
    21    8   22 1  
    22    9   23 1  
    23   10   24 1  
    24   11   25 1  
    25   14   26 1  
    26   14   27 1  
# Name:          frag3-281-3/96164 -- energy: -1.939556
# Creation time: Sat Jun  5 12:53:27 2010


@<TRIPOS>MOLECULE
frag3-281-3/96164 -- energy: -1.939556
   27    26     1     1     1
SMALL
USER_CHARGES


@<TRIPOS>ATOM
      1 C4         -4.0412   -0.2886   -0.6731 C.2        1 <1>        0.000
      2 C6         -2.5915   -0.1504   -0.8120 C.2        1 <1>        0.000
      3 O3         -4.7624   -1.0338   -1.3211 O.2        1 <1>        0.000
      4 C8         -1.8169    0.6608   -0.0779 C.2        1 <1>        0.000
      5 C11        -0.4022    0.8032   -0.1865 C.2        1 <1>        0.000
      6 C12         0.5132    1.5611    0.4303 C.2        1 <1>        0.000
      7 O6          3.6984   -1.3283   -2.4369 O.3        1 <1>        0.000
      8 C13         1.9293    1.5427    0.2164 C.2        1 <1>        0.000
      9 C14         2.7006    0.4476    0.2733 C.2        1 <1>        0.000
     10 C15         2.4561   -0.9462    0.5647 C.2        1 <1>        0.000
     11 C16         3.2905   -1.9673    0.3211 C.2        1 <1>        0.000
     12 C18         4.5743   -1.9126   -0.3119 C.2        1 <1>        0.000
     13 C19         4.8081   -1.5299   -1.7206 C.2        1 <1>        0.000
     14 C20         5.7558   -2.0454    0.3120 C.2        1 <1>        0.000
     15 O7          5.9111   -1.3861   -2.2276 O.2        1 <1>        0.000
     16 H          -4.5252    0.3325    0.0806 H.spc      1 <1>        0.000
     17 H          -2.1014   -0.7562   -1.5742 H.spc      1 <1>        0.000
     18 H          -2.3167    1.2705    0.6748 H.spc      1 <1>        0.000
     19 H           0.0316    0.1475   -0.9415 H.spc      1 <1>        0.000
     20 H           0.1415    2.2664    1.1736 H.spc      1 <1>        0.000
     21 H           2.9293   -1.4848   -1.8842 H.spc      1 <1>        0.000
     22 H           2.4169    2.4910   -0.0098 H.spc      1 <1>        0.000
     23 H           3.7469    0.6554    0.0495 H.spc      1 <1>        0.000
     24 H           1.5003   -1.1917    1.0276 H.spc      1 <1>        0.000
     25 H           2.9528   -2.9528    0.6418 H.spc      1 <1>        0.000
     26 H           5.7879   -2.2099    1.3890 H.spc      1 <1>        0.000
     27 H           6.6828   -1.9887   -0.2585 H.spc      1 <1>        0.000
@<TRIPOS>BOND
     1    1    2 1  
     2   13   15 2  
     3    9   10 1  
     4    2    4 2  
     5   10   11 2  
     6    6    8 1  
     7    1    3 2  
     8    8    9 2  
     9   12   14 2  
    10    4    5 1  
    11    5    6 2  
    12   11   12 1  
    13   12   13 1  
    14   13    7 1  
    15    1   16 1  
    16    2   17 1  
    17    4   18 1  
    18    5   19 1  
    19    6   20 1  
    20    7   21 1  
    21    8   22 1  
    22    9   23 1  
    23   10   24 1  
    24   11   25 1  
    25   14   26 1  
    26   14   27 1  
# Name:          frag3-281-3/96164 -- energy: -2.524132
# Creation time: Sat Jun  5 12:53:27 2010


@<TRIPOS>MOLECULE
frag3-281-3/96164 -- energy: -2.524132
   27    26     1     1     1
SMALL
USER_CHARGES


@<TRIPOS>ATOM
      1 C4         -3.5040   -0.5344   -1.4100 C.2        1 <1>        0.000
      2 C6         -2.4220   -0.3194   -0.4496 C.2        1 <1>        0.000
      3 O3         -4.6702   -0.7822   -1.1380 O.2        1 <1>        0.000
      4 C8         -1.1381   -0.0718   -0.7479 C.2        1 <1>        0.000
      5 C11        -0.1009    0.1706    0.2121 C.2        1 <1>        0.000
      6 C12         1.1790    0.5476    0.1085 C.2        1 <1>        0.000
      7 O6          2.6444   -1.1882   -2.3536 O.3        1 <1>        0.000
      8 C13         2.1437    0.7818    1.1539 C.2        1 <1>        0.000
      9 C14         3.4553    1.0524    1.0651 C.2        1 <1>        0.000
     10 C15         4.3422    1.1732   -0.0619 C.2        1 <1>        0.000
     11 C16         4.7084    0.1078   -0.7938 C.2        1 <1>        0.000
     12 C18         4.3119   -1.2772   -0.6648 C.2        1 <1>        0.000
     13 C19         3.2900   -1.9547   -1.4667 C.2        1 <1>        0.000
     14 C20         4.7624   -2.1373    0.2687 C.2        1 <1>        0.000
     15 O7          3.0213   -3.1415   -1.3718 O.2        1 <1>        0.000
     16 H          -3.2468   -0.4675   -2.4671 H.spc      1 <1>        0.000
     17 H          -2.6836   -0.3646    0.6076 H.spc      1 <1>        0.000
     18 H          -0.8616   -0.0534   -1.8021 H.spc      1 <1>        0.000
     19 H          -0.4222    0.0153    1.2420 H.spc      1 <1>        0.000
     20 H           1.5427    0.6986   -0.9079 H.spc      1 <1>        0.000
     21 H           2.9748   -0.2886   -2.2978 H.spc      1 <1>        0.000
     22 H           1.7487    0.7316    2.1686 H.spc      1 <1>        0.000
     23 H           3.9403    1.2105    2.0283 H.spc      1 <1>        0.000
     24 H           4.7278    2.1571   -0.3292 H.spc      1 <1>        0.000
     25 H           5.4069    0.3180   -1.6038 H.spc      1 <1>        0.000
     26 H           5.4885   -1.8051    1.0107 H.spc      1 <1>        0.000
     27 H           4.4009   -3.1655    0.2822 H.spc      1 <1>        0.000
@<TRIPOS>BOND
     1    1    2 1  
     2   13   15 2  
     3    9   10 1  
     4    2    4 2  
     5   10   11 2  
     6    6    8 1  
     7    1    3 2  
     8    8    9 2  
     9   12   14 2  
    10    4    5 1  
    11    5    6 2  
    12   11   12 1  
    13   12   13 1  
    14   13    7 1  
    15    1   16 1  
    16    2   17 1  
    17    4   18 1  
    18    5   19 1  
    19    6   20 1  
    20    7   21 1  
    21    8   22 1  
    22    9   23 1  
    23   10   24 1  
    24   11   25 1  
    25   14   26 1  
    26   14   27 1  
# Name:          frag3-281-3/96164 -- energy: -2.065406
# Creation time: Sat Jun  5 12:53:27 2010


@<TRIPOS>MOLECULE
frag3-281-3/96164 -- energy: -2.065406
   27    26     1     1     1
SMALL
USER_CHARGES


@<TRIPOS>ATOM
      1 C4         -4.2973    0.4479    0.4365 C.2        1 <1>        0.000
      2 C6         -2.9537    0.5324   -0.1229 C.2        1 <1>        0.000
      3 O3         -5.3413    0.6102   -0.1874 O.2        1 <1>        0.000
      4 C8         -1.8156    0.2326    0.5081 C.2        1 <1>        0.000
      5 C11        -0.4909    0.3065   -0.0049 C.2        1 <1>        0.000
      6 C12        -0.0888    0.2129   -1.2846 C.2        1 <1>        0.000
      7 O6          5.1409    0.0673    0.4627 O.3        1 <1>        0.000
      8 C13         1.2200    0.2801   -1.8246 C.2        1 <1>        0.000
      9 C14         2.2372   -0.4714   -1.4311 C.2        1 <1>        0.000
     10 C15         2.3651   -1.5122   -0.4540 C.2        1 <1>        0.000
     11 C16         3.4828   -2.1691   -0.1438 C.2        1 <1>        0.000
     12 C18         4.7979   -1.9779   -0.6776 C.2        1 <1>        0.000
     13 C19         5.6675   -0.8109   -0.3916 C.2        1 <1>        0.000
     14 C20         5.3386   -2.7158   -1.6508 C.2        1 <1>        0.000
     15 O7          6.7608   -0.6059   -0.8837 O.2        1 <1>        0.000
     16 H          -4.3816    0.2213    1.4993 H.spc      1 <1>        0.000
     17 H          -2.8701    0.8729   -1.1550 H.spc      1 <1>        0.000
     18 H          -1.9133   -0.1093    1.5385 H.spc      1 <1>        0.000
     19 H           0.2976    0.4581    0.7323 H.spc      1 <1>        0.000
     20 H          -0.8857    0.0635   -2.0131 H.spc      1 <1>        0.000
     21 H           4.2814   -0.2465    0.7532 H.spc      1 <1>        0.000
     22 H           1.4024    1.0019   -2.6207 H.spc      1 <1>        0.000
     23 H           3.1665   -0.2540   -1.9577 H.spc      1 <1>        0.000
     24 H           1.4618   -1.7936    0.0873 H.spc      1 <1>        0.000
     25 H           3.3833   -2.9495    0.6106 H.spc      1 <1>        0.000
     26 H           4.7694   -3.5316   -2.0965 H.spc      1 <1>        0.000
     27 H           6.3490   -2.5022   -1.9994 H.spc      1 <1>        0.000
@<TRIPOS>BOND
     1    1    2 1  
     2   13   15 2  
     3    9   10 1  
     4    2    4 2  
     5   10   11 2  
     6    6    8 1  
     7    1    3 2  
     8    8    9 2  
     9   12   14 2  
    10    4    5 1  
    11    5    6 2  
    12   11   12 1  
    13   12   13 1  
    14   13    7 1  
    15    1   16 1  
    16    2   17 1  
    17    4   18 1  
    18    5   19 1  
    19    6   20 1  
    20    7   21 1  
    21    8   22 1  
    22    9   23 1  
    23   10   24 1  
    24   11   25 1  
    25   14   26 1  
    26   14   27 1  
# Name:          frag3-281-3/96164 -- energy: -1.795313
# Creation time: Sat Jun  5 12:53:27 2010


@<TRIPOS>MOLECULE
frag3-281-3/96164 -- energy: -1.795313
   27    26     1     1     1
SMALL
USER_CHARGES


@<TRIPOS>ATOM
      1 C4         -4.5426   -0.2508   -0.3299 C.2        1 <1>        0.000
      2 C6         -3.1353   -0.0613    0.0119 C.2        1 <1>        0.000
      3 O3         -5.2252    0.3514   -1.1409 O.2        1 <1>        0.000
      4 C8         -2.3862    0.9070   -0.5302 C.2        1 <1>        0.000
      5 C11        -1.0221    1.2255   -0.2848 C.2        1 <1>        0.000
      6 C12        -0.0071    0.3725   -0.1128 C.2        1 <1>        0.000
      7 O6          5.1672   -1.4994   -2.6568 O.3        1 <1>        0.000
      8 C13         1.3648    0.6123    0.1665 C.2        1 <1>        0.000
      9 C14         2.3743   -0.2531    0.1423 C.2        1 <1>        0.000
     10 C15         2.5165   -1.6448   -0.1403 C.2        1 <1>        0.000
     11 C16         3.6811   -2.2747   -0.3219 C.2        1 <1>        0.000
     12 C18         5.0123   -1.7580   -0.3196 C.2        1 <1>        0.000
     13 C19         5.7342   -1.2112   -1.4844 C.2        1 <1>        0.000
     14 C20         5.7329   -1.5422    0.7903 C.2        1 <1>        0.000
     15 O7          6.7585   -0.5465   -1.4391 O.2        1 <1>        0.000
     16 H          -5.0548   -1.0422    0.2173 H.spc      1 <1>        0.000
     17 H          -2.6771   -0.7344    0.7365 H.spc      1 <1>        0.000
     18 H          -2.8918    1.5385   -1.2607 H.spc      1 <1>        0.000
     19 H          -0.7760    2.2860   -0.2308 H.spc      1 <1>        0.000
     20 H          -0.2766   -0.6799   -0.2015 H.spc      1 <1>        0.000
     21 H           4.3774   -2.0246   -2.5085 H.spc      1 <1>        0.000
     22 H           1.6232    1.6366    0.4350 H.spc      1 <1>        0.000
     23 H           3.3243    0.2142    0.4013 H.spc      1 <1>        0.000
     24 H           1.6058   -2.2393   -0.2136 H.spc      1 <1>        0.000
     25 H           3.6028   -3.3474   -0.4989 H.spc      1 <1>        0.000
     26 H           5.3066   -1.7641    1.7686 H.spc      1 <1>        0.000
     27 H           6.7450   -1.1449    0.7143 H.spc      1 <1>        0.000
@<TRIPOS>BOND
     1    1    2 1  
     2   13   15 2  
     3    9   10 1  
     4    2    4 2  
     5   10   11 2  
     6    6    8 1  
     7    1    3 2  
     8    8    9 2  
     9   12   14 2  
    10    4    5 1  
    11    5    6 2  
    12   11   12 1  
    13   12   13 1  
    14   13    7 1  
    15    1   16 1  
    16    2   17 1  
    17    4   18 1  
    18    5   19 1  
    19    6   20 1  
    20    7   21 1  
    21    8   22 1  
    22    9   23 1  
    23   10   24 1  
    24   11   25 1  
    25   14   26 1  
    26   14   27 1  
# Name:          frag3-281-3/96164 -- energy: -1.959937
# Creation time: Sat Jun  5 12:53:27 2010


@<TRIPOS>MOLECULE
frag3-281-3/96164 -- energy: -1.959937
   27    26     1     1     1
SMALL
USER_CHARGES


@<TRIPOS>ATOM
      1 C4         -4.1467   -0.1977    0.2821 C.2        1 <1>        0.000
      2 C6         -2.7544    0.1269   -0.0118 C.2        1 <1>        0.000
      3 O3         -4.8674    0.3950    1.0746 O.2        1 <1>        0.000
      4 C8         -1.9557   -0.5402   -0.8553 C.2        1 <1>        0.000
      5 C11        -0.5835   -0.2550   -1.1255 C.2        1 <1>        0.000
      6 C12         0.0085    0.9357   -1.2875 C.2        1 <1>        0.000
      7 O6          5.9484   -1.0314    0.8165 O.3        1 <1>        0.000
      8 C13         1.3735    1.2573   -1.5169 C.2        1 <1>        0.000
      9 C14         2.3830    0.6540   -0.8906 C.2        1 <1>        0.000
     10 C15         2.3706   -0.3966    0.0783 C.2        1 <1>        0.000
     11 C16         3.2345   -1.4300    0.1127 C.2        1 <1>        0.000
     12 C18         4.3366   -1.7250   -0.7427 C.2        1 <1>        0.000
     13 C19         5.7537   -1.5356   -0.4053 C.2        1 <1>        0.000
     14 C20         4.2216   -2.1186   -2.0271 C.2        1 <1>        0.000
     15 O7          6.7007   -1.7120   -1.1512 O.2        1 <1>        0.000
     16 H          -4.5833   -1.0423   -0.2510 H.spc      1 <1>        0.000
     17 H          -2.3265    0.9886    0.5005 H.spc      1 <1>        0.000
     18 H          -2.3968   -1.3831   -1.3873 H.spc      1 <1>        0.000
     19 H           0.0706   -1.1227   -1.2116 H.spc      1 <1>        0.000
     20 H          -0.6626    1.7930   -1.2351 H.spc      1 <1>        0.000
     21 H           5.1050   -0.9575    1.2691 H.spc      1 <1>        0.000
     22 H           1.6065    2.0371   -2.2420 H.spc      1 <1>        0.000
     23 H           3.3742    1.0191   -1.1595 H.spc      1 <1>        0.000
     24 H           1.6018   -0.3589    0.8501 H.spc      1 <1>        0.000
     25 H           3.0656   -2.1484    0.9149 H.spc      1 <1>        0.000
     26 H           3.2349   -2.2300   -2.4767 H.spc      1 <1>        0.000
     27 H           5.1153   -2.3254   -2.6158 H.spc      1 <1>        0.000
@<TRIPOS>BOND
     1    1    2 1  
     2   13   15 2  
     3    9   10 1  
     4    2    4 2  
     5   10   11 2  
     6    6    8 1  
     7    1    3 2  
     8    8    9 2  
     9   12   14 2  
    10    4    5 1  
    11    5    6 2  
    12   11   12 1  
    13   12   13 1  
    14   13    7 1  
    15    1   16 1  
    16    2   17 1  
    17    4   18 1  
    18    5   19 1  
    19    6   20 1  
    20    7   21 1  
    21    8   22 1  
    22    9   23 1  
    23   10   24 1  
    24   11   25 1  
    25   14   26 1  
    26   14   27 1  
# Name:          frag3-281-3/96164 -- energy: -1.767056
# Creation time: Sat Jun  5 12:53:27 2010


@<TRIPOS>MOLECULE
frag3-281-3/96164 -- energy: -1.767056
   27    26     1     1     1
SMALL
USER_CHARGES


@<TRIPOS>ATOM
      1 C4         -4.1862   -0.0617    0.3248 C.2        1 <1>        0.000
      2 C6         -2.8389   -0.1361   -0.2414 C.2        1 <1>        0.000
      3 O3         -5.0199   -0.9565    0.3305 O.2        1 <1>        0.000
      4 C8         -1.9257    0.8446   -0.2081 C.2        1 <1>        0.000
      5 C11        -0.6043    0.7834   -0.7362 C.2        1 <1>        0.000
      6 C12         0.4528    1.6033   -0.7162 C.2        1 <1>        0.000
      7 O6          5.3894   -0.5324    0.5987 O.3        1 <1>        0.000
      8 C13         1.7472    1.3523   -1.2759 C.2        1 <1>        0.000
      9 C14         2.4634    0.2395   -1.0636 C.2        1 <1>        0.000
     10 C15         2.2514   -0.9556   -0.2855 C.2        1 <1>        0.000
     11 C16         3.0825   -2.0005   -0.1897 C.2        1 <1>        0.000
     12 C18         4.3716   -2.1414   -0.8056 C.2        1 <1>        0.000
     13 C19         5.5539   -1.3300   -0.4588 C.2        1 <1>        0.000
     14 C20         4.6671   -2.9171   -1.8675 C.2        1 <1>        0.000
     15 O7          6.6190   -1.3650   -1.0554 O.2        1 <1>        0.000
     16 H          -4.4747    0.8827    0.7862 H.spc      1 <1>        0.000
     17 H          -2.5540   -1.0672   -0.7314 H.spc      1 <1>        0.000
     18 H          -2.2229    1.7785    0.2689 H.spc      1 <1>        0.000
     19 H          -0.4103   -0.1411   -1.2800 H.spc      1 <1>        0.000
     20 H           0.3143    2.5646   -0.2213 H.spc      1 <1>        0.000
     21 H           4.4975   -0.6339    0.9390 H.spc      1 <1>        0.000
     22 H           2.1795    2.1191   -1.9187 H.spc      1 <1>        0.000
     23 H           3.4146    0.2376   -1.5959 H.spc      1 <1>        0.000
     24 H           1.3220   -1.0141    0.2810 H.spc      1 <1>        0.000
     25 H           2.7434   -2.8358    0.4230 H.spc      1 <1>        0.000
     26 H           3.8872   -3.5143   -2.3401 H.spc      1 <1>        0.000
     27 H           5.6859   -2.9473   -2.2537 H.spc      1 <1>        0.000
@<TRIPOS>BOND
     1    1    2 1  
     2   13   15 2  
     3    9   10 1  
     4    2    4 2  
     5   10   11 2  
     6    6    8 1  
     7    1    3 2  
     8    8    9 2  
     9   12   14 2  
    10    4    5 1  
    11    5    6 2  
    12   11   12 1  
    13   12   13 1  
    14   13    7 1  
    15    1   16 1  
    16    2   17 1  
    17    4   18 1  
    18    5   19 1  
    19    6   20 1  
    20    7   21 1  
    21    8   22 1  
    22    9   23 1  
    23   10   24 1  
    24   11   25 1  
    25   14   26 1  
    26   14   27 1  
# Name:          frag3-281-3/96164 -- energy: -1.107508
# Creation time: Sat Jun  5 12:53:27 2010


@<TRIPOS>MOLECULE
frag3-281-3/96164 -- energy: -1.107508
   27    26     1     1     1
SMALL
USER_CHARGES


@<TRIPOS>ATOM
      1 C4         -4.0040   -1.0474    0.1098 C.2        1 <1>        0.000
      2 C6         -2.6274   -0.9304   -0.3400 C.2        1 <1>        0.000
      3 O3         -4.7815   -0.1773    0.4589 O.2        1 <1>        0.000
      4 C8         -2.0225    0.2536   -0.4810 C.2        1 <1>        0.000
      5 C11        -0.6803    0.4848   -0.8954 C.2        1 <1>        0.000
      6 C12         0.0918    1.5805   -0.8650 C.2        1 <1>        0.000
      7 O6          5.6068   -2.2707   -2.1681 O.3        1 <1>        0.000
      8 C13         1.4541    1.6454   -1.2998 C.2        1 <1>        0.000
      9 C14         2.4442    0.9065   -0.7827 C.2        1 <1>        0.000
     10 C15         2.5326   -0.0719    0.2839 C.2        1 <1>        0.000
     11 C16         3.5664   -0.9065    0.4666 C.2        1 <1>        0.000
     12 C18         4.7695   -1.0930   -0.2837 C.2        1 <1>        0.000
     13 C19         5.1111   -2.3595   -0.9337 C.2        1 <1>        0.000
     14 C20         5.6880   -0.1557   -0.5202 C.2        1 <1>        0.000
     15 O7          4.8747   -3.4317   -0.3994 O.2        1 <1>        0.000
     16 H          -4.3989   -2.0629    0.1391 H.spc      1 <1>        0.000
     17 H          -2.0693   -1.8380   -0.5701 H.spc      1 <1>        0.000
     18 H          -2.6209    1.1360   -0.2545 H.spc      1 <1>        0.000
     19 H          -0.1887   -0.3925   -1.3158 H.spc      1 <1>        0.000
     20 H          -0.3542    2.4965   -0.4776 H.spc      1 <1>        0.000
     21 H           5.7194   -1.3462   -2.4008 H.spc      1 <1>        0.000
     22 H           1.7012    2.3401   -2.1025 H.spc      1 <1>        0.000
     23 H           3.4008    1.0800   -1.2755 H.spc      1 <1>        0.000
     24 H           1.7011   -0.1333    0.9859 H.spc      1 <1>        0.000
     25 H           3.4735   -1.5549    1.3378 H.spc      1 <1>        0.000
     26 H           5.5518    0.8521   -0.1279 H.spc      1 <1>        0.000
     27 H           6.5750   -0.3973   -1.1058 H.spc      1 <1>        0.000
@<TRIPOS>BOND
     1    1    2 1  
     2   13   15 2  
     3    9   10 1  
     4    2    4 2  
     5   10   11 2  
     6    6    8 1  
     7    1    3 2  
     8    8    9 2  
     9   12   14 2  
    10    4    5 1  
    11    5    6 2  
    12   11   12 1  
    13   12   13 1  
    14   13    7 1  
    15    1   16 1  
    16    2   17 1  
    17    4   18 1  
    18    5   19 1  
    19    6   20 1  
    20    7   21 1  
    21    8   22 1  
    22    9   23 1  
    23   10   24 1  
    24   11   25 1  
    25   14   26 1  
    26   14   27 1  
# Name:          frag3-281-3/96164 -- energy: -3.123226
# Creation time: Sat Jun  5 12:53:27 2010


@<TRIPOS>MOLECULE
frag3-281-3/96164 -- energy: -3.123226
   27    26     1     1     1
SMALL
USER_CHARGES


@<TRIPOS>ATOM
      1 C4         -4.2161   -0.1916    0.2907 C.2        1 <1>        0.000
      2 C6         -2.8155    0.0643   -0.0355 C.2        1 <1>        0.000
      3 O3         -4.7698    0.0918    1.3432 O.2        1 <1>        0.000
      4 C8         -2.1760   -0.3371   -1.1407 C.2        1 <1>        0.000
      5 C11        -0.8073   -0.0995   -1.4551 C.2        1 <1>        0.000
      6 C12        -0.0825    1.0114   -1.2472 C.2        1 <1>        0.000
      7 O6          6.2110   -1.3760   -1.8296 O.3        1 <1>        0.000
      8 C13         1.2979    1.2249   -1.5216 C.2        1 <1>        0.000
      9 C14         2.2571    0.3926   -1.1048 C.2        1 <1>        0.000
     10 C15         2.2471   -0.8206   -0.3189 C.2        1 <1>        0.000
     11 C16         3.3387   -1.4361    0.1442 C.2        1 <1>        0.000
     12 C18         4.7100   -1.0987   -0.0178 C.2        1 <1>        0.000
     13 C19         5.6623   -1.9277   -0.7478 C.2        1 <1>        0.000
     14 C20         5.3002    0.0176    0.4154 C.2        1 <1>        0.000
     15 O7          5.8661   -3.0885   -0.4244 O.2        1 <1>        0.000
     16 H          -4.8221   -0.6791   -0.4730 H.spc      1 <1>        0.000
     17 H          -2.2364    0.6362    0.6896 H.spc      1 <1>        0.000
     18 H          -2.7586   -0.8998   -1.8701 H.spc      1 <1>        0.000
     19 H          -0.2789   -0.9283   -1.9263 H.spc      1 <1>        0.000
     20 H          -0.6184    1.8559   -0.8139 H.spc      1 <1>        0.000
     21 H           5.9241   -0.4627   -1.9021 H.spc      1 <1>        0.000
     22 H           1.5851    2.1053   -2.0965 H.spc      1 <1>        0.000
     23 H           3.2556    0.6910   -1.4243 H.spc      1 <1>        0.000
     24 H           1.2792   -1.2653   -0.0875 H.spc      1 <1>        0.000
     25 H           3.1492   -2.3320    0.7354 H.spc      1 <1>        0.000
     26 H           4.7187    0.7701    0.9479 H.spc      1 <1>        0.000
     27 H           6.3636    0.1765    0.2366 H.spc      1 <1>        0.000
@<TRIPOS>BOND
     1    1    2 1  
     2   13   15 2  
     3    9   10 1  
     4    2    4 2  
     5   10   11 2  
     6    6    8 1  
     7    1    3 2  
     8    8    9 2  
     9   12   14 2  
    10    4    5 1  
    11    5    6 2  
    12   11   12 1  
    13   12   13 1  
    14   13    7 1  
    15    1   16 1  
    16    2   17 1  
    17    4   18 1  
    18    5   19 1  
    19    6   20 1  
    20    7   21 1  
    21    8   22 1  
    22    9   23 1  
    23   10   24 1  
    24   11   25 1  
    25   14   26 1  
    26   14   27 1  
# Name:          frag3-281-3/96164 -- energy: -1.698943
# Creation time: Sat Jun  5 12:53:27 2010


@<TRIPOS>MOLECULE
frag3-281-3/96164 -- energy: -1.698943
   27    26     1     1     1
SMALL
USER_CHARGES


@<TRIPOS>ATOM
      1 C4         -4.3528    0.2252    0.3569 C.2        1 <1>        0.000
      2 C6         -2.9826    0.2391   -0.1610 C.2        1 <1>        0.000
      3 O3         -4.8936   -0.7105    0.9303 O.2        1 <1>        0.000
      4 C8         -2.3438    1.3033   -0.6687 C.2        1 <1>        0.000
      5 C11        -1.0159    1.3738   -1.1889 C.2        1 <1>        0.000
      6 C12         0.0264    0.6030   -0.8575 C.2        1 <1>        0.000
      7 O6          5.4008   -0.2568    0.5823 O.3        1 <1>        0.000
      8 C13         1.3654    0.5696   -1.3305 C.2        1 <1>        0.000
      9 C14         2.3175   -0.3152   -1.0432 C.2        1 <1>        0.000
     10 C15         2.4195   -1.4827   -0.2237 C.2        1 <1>        0.000
     11 C16         3.4998   -2.2637   -0.1131 C.2        1 <1>        0.000
     12 C18         4.7779   -2.1092   -0.7348 C.2        1 <1>        0.000
     13 C19         5.7747   -1.0673   -0.4079 C.2        1 <1>        0.000
     14 C20         5.1809   -2.7792   -1.8251 C.2        1 <1>        0.000
     15 O7          6.8493   -0.9025   -0.9646 O.2        1 <1>        0.000
     16 H          -4.9441    1.1304    0.2189 H.spc      1 <1>        0.000
     17 H          -2.4321   -0.7012   -0.1310 H.spc      1 <1>        0.000
     18 H          -2.9110    2.2339   -0.6866 H.spc      1 <1>        0.000
     19 H          -0.8306    2.1415   -1.9401 H.spc      1 <1>        0.000
     20 H          -0.1917   -0.1332   -0.0838 H.spc      1 <1>        0.000
     21 H           4.5374   -0.5249    0.9050 H.spc      1 <1>        0.000
     22 H           1.6489    1.3692   -2.0149 H.spc      1 <1>        0.000
     23 H           3.2510   -0.0953   -1.5611 H.spc      1 <1>        0.000
     24 H           1.5421   -1.7598    0.3607 H.spc      1 <1>        0.000
     25 H           3.3914   -3.1322    0.5365 H.spc      1 <1>        0.000
     26 H           4.5149   -3.5006   -2.2986 H.spc      1 <1>        0.000
     27 H           6.1743   -2.6021   -2.2374 H.spc      1 <1>        0.000
@<TRIPOS>BOND
     1    1    2 1  
     2   13   15 2  
     3    9   10 1  
     4    2    4 2  
     5   10   11 2  
     6    6    8 1  
     7    1    3 2  
     8    8    9 2  
     9   12   14 2  
    10    4    5 1  
    11    5    6 2  
    12   11   12 1  
    13   12   13 1  
    14   13    7 1  
    15    1   16 1  
    16    2   17 1  
    17    4   18 1  
    18    5   19 1  
    19    6   20 1  
    20    7   21 1  
    21    8   22 1  
    22    9   23 1  
    23   10   24 1  
    24   11   25 1  
    25   14   26 1  
    26   14   27 1  
# Name:          frag3-281-3/96164 -- energy: -2.235979
# Creation time: Sat Jun  5 12:53:27 2010


@<TRIPOS>MOLECULE
frag3-281-3/96164 -- energy: -2.235979
   27    26     1     1     1
SMALL
USER_CHARGES


@<TRIPOS>ATOM
      1 C4         -4.0506    0.3208    0.8492 C.2        1 <1>        0.000
      2 C6         -2.6409    0.4716    0.4935 C.2        1 <1>        0.000
      3 O3         -4.9581   -0.2217    0.2406 O.2        1 <1>        0.000
      4 C8         -2.1492   -0.0161   -0.6534 C.2        1 <1>        0.000
      5 C11        -0.8120    0.0199   -1.1239 C.2        1 <1>        0.000
      6 C12         0.0650    1.0314   -1.1262 C.2        1 <1>        0.000
      7 O6          5.4564   -0.4916    0.8170 O.3        1 <1>        0.000
      8 C13         1.4216    1.0763   -1.5465 C.2        1 <1>        0.000
      9 C14         2.3332    0.1613   -1.1972 C.2        1 <1>        0.000
     10 C15         2.2714   -1.0162   -0.3863 C.2        1 <1>        0.000
     11 C16         3.2257   -1.9328   -0.2217 C.2        1 <1>        0.000
     12 C18         4.5354   -1.9699   -0.7763 C.2        1 <1>        0.000
     13 C19         5.7056   -1.2105   -0.2826 C.2        1 <1>        0.000
     14 C20         4.8073   -2.5890   -1.9376 C.2        1 <1>        0.000
     15 O7          6.8126   -1.2067   -0.7983 O.2        1 <1>        0.000
     16 H          -4.3347    0.7607    1.8052 H.spc      1 <1>        0.000
     17 H          -1.9730    0.9939    1.1785 H.spc      1 <1>        0.000
     18 H          -2.8702   -0.5035   -1.3096 H.spc      1 <1>        0.000
     19 H          -0.4434   -0.9148   -1.5465 H.spc      1 <1>        0.000
     20 H          -0.3253    1.9743   -0.7432 H.spc      1 <1>        0.000
     21 H           4.5410   -0.6156    1.0784 H.spc      1 <1>        0.000
     22 H           1.7363    1.8998   -2.1875 H.spc      1 <1>        0.000
     23 H           3.3222    0.3510   -1.6143 H.spc      1 <1>        0.000
     24 H           1.3411   -1.1822    0.1570 H.spc      1 <1>        0.000
     25 H           2.9666   -2.7692    0.4274 H.spc      1 <1>        0.000
     26 H           4.0099   -3.0864   -2.4898 H.spc      1 <1>        0.000
     27 H           5.8252   -2.5937   -2.3274 H.spc      1 <1>        0.000
@<TRIPOS>BOND
     1    1    2 1  
     2   13   15 2  
     3    9   10 1  
     4    2    4 2  
     5   10   11 2  
     6    6    8 1  
     7    1    3 2  
     8    8    9 2  
     9   12   14 2  
    10    4    5 1  
    11    5    6 2  
    12   11   12 1  
    13   12   13 1  
    14   13    7 1  
    15    1   16 1  
    16    2   17 1  
    17    4   18 1  
    18    5   19 1  
    19    6   20 1  
    20    7   21 1  
    21    8   22 1  
    22    9   23 1  
    23   10   24 1  
    24   11   25 1  
    25   14   26 1  
    26   14   27 1  
# Name:          frag3-281-3/96164 -- energy: -2.469033
# Creation time: Sat Jun  5 12:53:27 2010


@<TRIPOS>MOLECULE
frag3-281-3/96164 -- energy: -2.469033
   27    26     1     1     1
SMALL
USER_CHARGES


@<TRIPOS>ATOM
      1 C4         -4.1303   -0.2762    0.9137 C.2        1 <1>        0.000
      2 C6         -2.6961   -0.0170    0.8201 C.2        1 <1>        0.000
      3 O3         -4.9492   -0.3569    0.0170 O.2        1 <1>        0.000
      4 C8         -2.1096    0.3238   -0.3330 C.2        1 <1>        0.000
      5 C11        -0.7335    0.6189   -0.5414 C.2        1 <1>        0.000
      6 C12        -0.0387    1.0931   -1.5798 C.2        1 <1>        0.000
      7 O6          5.5167   -2.4334    0.9727 O.3        1 <1>        0.000
      8 C13         1.3750    1.3038   -1.6097 C.2        1 <1>        0.000
      9 C14         2.2919    0.3879   -1.2864 C.2        1 <1>        0.000
     10 C15         2.2048   -0.9728   -0.8444 C.2        1 <1>        0.000
     11 C16         3.2282   -1.8244   -0.7633 C.2        1 <1>        0.000
     12 C18         4.6106   -1.6432   -1.0321 C.2        1 <1>        0.000
     13 C19         5.6914   -1.5956   -0.0437 C.2        1 <1>        0.000
     14 C20         5.1110   -1.3321   -2.2351 C.2        1 <1>        0.000
     15 O7          6.6510   -0.8490   -0.1042 O.2        1 <1>        0.000
     16 H          -4.5196   -0.4162    1.9221 H.spc      1 <1>        0.000
     17 H          -2.0843   -0.1040    1.7180 H.spc      1 <1>        0.000
     18 H          -2.7566    0.3817   -1.2083 H.spc      1 <1>        0.000
     19 H          -0.1140    0.4147    0.3319 H.spc      1 <1>        0.000
     20 H          -0.5982    1.3406   -2.4819 H.spc      1 <1>        0.000
     21 H           4.7081   -2.9333    0.8386 H.spc      1 <1>        0.000
     22 H           1.7316    2.2861   -1.9197 H.spc      1 <1>        0.000
     23 H           3.3162    0.7493   -1.3773 H.spc      1 <1>        0.000
     24 H           1.2221   -1.3417   -0.5506 H.spc      1 <1>        0.000
     25 H           2.9578   -2.8282   -0.4356 H.spc      1 <1>        0.000
     26 H           4.4427   -1.2019   -3.0863 H.spc      1 <1>        0.000
     27 H           6.1865   -1.2092   -2.3628 H.spc      1 <1>        0.000
@<TRIPOS>BOND
     1    1    2 1  
     2   13   15 2  
     3    9   10 1  
     4    2    4 2  
     5   10   11 2  
     6    6    8 1  
     7    1    3 2  
     8    8    9 2  
     9   12   14 2  
    10    4    5 1  
    11    5    6 2  
    12   11   12 1  
    13   12   13 1  
    14   13    7 1  
    15    1   16 1  
    16    2   17 1  
    17    4   18 1  
    18    5   19 1  
    19    6   20 1  
    20    7   21 1  
    21    8   22 1  
    22    9   23 1  
    23   10   24 1  
    24   11   25 1  
    25   14   26 1  
    26   14   27 1  
# Name:          frag3-281-3/96164 -- energy: -0.993217
# Creation time: Sat Jun  5 12:53:27 2010


@<TRIPOS>MOLECULE
frag3-281-3/96164 -- energy: -0.993217
   27    26     1     1     1
SMALL
USER_CHARGES


@<TRIPOS>ATOM
      1 C4         -4.5465    1.2232    0.5450 C.2        1 <1>        0.000
      2 C6         -3.4252    0.8317   -0.3018 C.2        1 <1>        0.000
      3 O3         -5.5279    1.8423    0.1609 O.2        1 <1>        0.000
      4 C8         -2.3311    0.1838    0.1177 C.2        1 <1>        0.000
      5 C11        -1.2472   -0.1969   -0.7440 C.2        1 <1>        0.000
      6 C12        -0.0906   -0.8128   -0.5000 C.2        1 <1>        0.000
      7 O6          7.2122   -0.3331   -0.9859 O.3        1 <1>        0.000
      8 C13         0.9072   -1.1624   -1.4635 C.2        1 <1>        0.000
      9 C14         2.1145   -1.6793   -1.2137 C.2        1 <1>        0.000
     10 C15         2.8196   -2.0731   -0.0252 C.2        1 <1>        0.000
     11 C16         4.1556   -2.0254    0.1005 C.2        1 <1>        0.000
     12 C18         5.1700   -1.5825   -0.8004 C.2        1 <1>        0.000
     13 C19         5.9543   -0.3572   -0.5497 C.2        1 <1>        0.000
     14 C20         5.3846   -2.0423   -2.0274 C.2        1 <1>        0.000
     15 O7          5.4738    0.6107    0.0379 O.2        1 <1>        0.000
     16 H          -4.5063    0.9431    1.5976 H.spc      1 <1>        0.000
     17 H          -3.4825    1.0868   -1.3600 H.spc      1 <1>        0.000
     18 H          -2.2589   -0.0696    1.1754 H.spc      1 <1>        0.000
     19 H          -1.3982    0.0664   -1.7909 H.spc      1 <1>        0.000
     20 H           0.1155   -1.0764    0.5374 H.spc      1 <1>        0.000
     21 H           7.4162   -1.1661   -1.4172 H.spc      1 <1>        0.000
     22 H           0.6571   -0.9893   -2.5102 H.spc      1 <1>        0.000
     23 H           2.6984   -1.8387   -2.1202 H.spc      1 <1>        0.000
     24 H           2.2364   -2.4312    0.8232 H.spc      1 <1>        0.000
     25 H           4.5308   -2.3882    1.0574 H.spc      1 <1>        0.000
     26 H           4.7528   -2.8334   -2.4312 H.spc      1 <1>        0.000
     27 H           6.1926   -1.6286   -2.6309 H.spc      1 <1>        0.000
@<TRIPOS>BOND
     1    1    2 1  
     2   13   15 2  
     3    9   10 1  
     4    2    4 2  
     5   10   11 2  
     6    6    8 1  
     7    1    3 2  
     8    8    9 2  
     9   12   14 2  
    10    4    5 1  
    11    5    6 2  
    12   11   12 1  
    13   12   13 1  
    14   13    7 1  
    15    1   16 1  
    16    2   17 1  
    17    4   18 1  
    18    5   19 1  
    19    6   20 1  
    20    7   21 1  
    21    8   22 1  
    22    9   23 1  
    23   10   24 1  
    24   11   25 1  
    25   14   26 1  
    26   14   27 1  
# Name:          frag3-281-3/96164 -- energy: -2.541455
# Creation time: Sat Jun  5 12:53:27 2010


@<TRIPOS>MOLECULE
frag3-281-3/96164 -- energy: -2.541455
   27    26     1     1     1
SMALL
USER_CHARGES


@<TRIPOS>ATOM
      1 C4         -4.1686   -0.8022    0.1781 C.2        1 <1>        0.000
      2 C6         -2.7993   -0.7506   -0.3295 C.2        1 <1>        0.000
      3 O3         -4.8799    0.1114    0.5636 O.2        1 <1>        0.000
      4 C8         -2.0729    0.3754   -0.3124 C.2        1 <1>        0.000
      5 C11        -0.7352    0.5545   -0.7584 C.2        1 <1>        0.000
      6 C12         0.1377    1.5705   -0.6739 C.2        1 <1>        0.000
      7 O6          5.9077   -2.2413    0.7568 O.3        1 <1>        0.000
      8 C13         1.4808    1.5734   -1.1552 C.2        1 <1>        0.000
      9 C14         2.3784    0.6168   -0.8915 C.2        1 <1>        0.000
     10 C15         2.3190   -0.5911   -0.1269 C.2        1 <1>        0.000
     11 C16         3.1999   -1.5916   -0.1827 C.2        1 <1>        0.000
     12 C18         4.3813   -1.7461   -0.9538 C.2        1 <1>        0.000
     13 C19         5.7570   -1.6920   -0.4446 C.2        1 <1>        0.000
     14 C20         4.4244   -1.7904   -2.2913 C.2        1 <1>        0.000
     15 O7          6.6931   -1.1698   -1.0278 O.2        1 <1>        0.000
     16 H          -4.6171   -1.7949    0.2180 H.spc      1 <1>        0.000
     17 H          -2.3537   -1.6586   -0.7358 H.spc      1 <1>        0.000
     18 H          -2.5667    1.2592    0.0916 H.spc      1 <1>        0.000
     19 H          -0.3342   -0.3158   -1.2780 H.spc      1 <1>        0.000
     20 H          -0.2137    2.4821   -0.1905 H.spc      1 <1>        0.000
     21 H           5.0669   -2.5985    1.0519 H.spc      1 <1>        0.000
     22 H           1.7964    2.4099   -1.7787 H.spc      1 <1>        0.000
     23 H           3.3505    0.7932   -1.3518 H.spc      1 <1>        0.000
     24 H           1.4811   -0.7037    0.5611 H.spc      1 <1>        0.000
     25 H           2.9743   -2.4315    0.4744 H.spc      1 <1>        0.000
     26 H           3.5043   -1.7049   -2.8694 H.spc      1 <1>        0.000
     27 H           5.3796   -1.9120   -2.8021 H.spc      1 <1>        0.000
@<TRIPOS>BOND
     1    1    2 1  
     2   13   15 2  
     3    9   10 1  
     4    2    4 2  
     5   10   11 2  
     6    6    8 1  
     7    1    3 2  
     8    8    9 2  
     9   12   14 2  
    10    4    5 1  
    11    5    6 2  
    12   11   12 1  
    13   12   13 1  
    14   13    7 1  
    15    1   16 1  
    16    2   17 1  
    17    4   18 1  
    18    5   19 1  
    19    6   20 1  
    20    7   21 1  
    21    8   22 1  
    22    9   23 1  
    23   10   24 1  
    24   11   25 1  
    25   14   26 1  
    26   14   27 1  
# Name:          frag3-281-3/96164 -- energy: -1.628692
# Creation time: Sat Jun  5 12:53:27 2010


@<TRIPOS>MOLECULE
frag3-281-3/96164 -- energy: -1.628692
   27    26     1     1     1
SMALL
USER_CHARGES


@<TRIPOS>ATOM
      1 C4         -3.9861    0.0167   -1.4861 C.2        1 <1>        0.000
      2 C6         -2.8947   -0.2241   -0.5425 C.2        1 <1>        0.000
      3 O3         -5.1591   -0.2819   -1.3216 O.2        1 <1>        0.000
      4 C8         -1.6231    0.1674   -0.7052 C.2        1 <1>        0.000
      5 C11        -0.5692   -0.0479    0.2462 C.2        1 <1>        0.000
      6 C12         0.7033    0.3569    0.3044 C.2        1 <1>        0.000
      7 O6          3.9233   -1.1467   -2.8473 O.3        1 <1>        0.000
      8 C13         1.6771    0.1034    1.3378 C.2        1 <1>        0.000
      9 C14         2.9857    0.3954    1.3630 C.2        1 <1>        0.000
     10 C15         3.8775    1.0066    0.4152 C.2        1 <1>        0.000
     11 C16         4.6251    0.2734   -0.4233 C.2        1 <1>        0.000
     12 C18         4.7167   -1.1589   -0.6137 C.2        1 <1>        0.000
     13 C19         4.3094   -1.8926   -1.8077 C.2        1 <1>        0.000
     14 C20         5.1392   -2.0301    0.3151 C.2        1 <1>        0.000
     15 O7          4.2982   -3.1106   -1.8841 O.2        1 <1>        0.000
     16 H          -3.7286    0.5087   -2.4240 H.spc      1 <1>        0.000
     17 H          -3.1360   -0.7682    0.3707 H.spc      1 <1>        0.000
     18 H          -1.3701    0.6881   -1.6287 H.spc      1 <1>        0.000
     19 H          -0.8674   -0.6669    1.0924 H.spc      1 <1>        0.000
     20 H           1.0499    0.9559   -0.5378 H.spc      1 <1>        0.000
     21 H           3.9941   -0.2175   -2.6168 H.spc      1 <1>        0.000
     22 H           1.2940   -0.3979    2.2266 H.spc      1 <1>        0.000
     23 H           3.4743    0.1104    2.2947 H.spc      1 <1>        0.000
     24 H           3.9479    2.0936    0.3770 H.spc      1 <1>        0.000
     25 H           5.2764    0.8570   -1.0739 H.spc      1 <1>        0.000
     26 H           5.4449   -1.6728    1.2984 H.spc      1 <1>        0.000
     27 H           5.1767   -3.0952    0.0863 H.spc      1 <1>        0.000
@<TRIPOS>BOND
     1    1    2 1  
     2   13   15 2  
     3    9   10 1  
     4    2    4 2  
     5   10   11 2  
     6    6    8 1  
     7    1    3 2  
     8    8    9 2  
     9   12   14 2  
    10    4    5 1  
    11    5    6 2  
    12   11   12 1  
    13   12   13 1  
    14   13    7 1  
    15    1   16 1  
    16    2   17 1  
    17    4   18 1  
    18    5   19 1  
    19    6   20 1  
    20    7   21 1  
    21    8   22 1  
    22    9   23 1  
    23   10   24 1  
    24   11   25 1  
    25   14   26 1  
    26   14   27 1  
# Name:          frag3-281-3/96164 -- energy: -1.521321
# Creation time: Sat Jun  5 12:53:27 2010


@<TRIPOS>MOLECULE
frag3-281-3/96164 -- energy: -1.521321
   27    26     1     1     1
SMALL
USER_CHARGES


@<TRIPOS>ATOM
      1 C4         -4.4442   -0.6312   -0.1263 C.2        1 <1>        0.000
      2 C6         -3.2052   -0.0603   -0.6490 C.2        1 <1>        0.000
      3 O3         -5.5052   -0.7151   -0.7261 O.2        1 <1>        0.000
      4 C8         -2.0576    0.0630    0.0312 C.2        1 <1>        0.000
      5 C11        -0.8497    0.6286   -0.4909 C.2        1 <1>        0.000
      6 C12         0.4124    0.6308   -0.0570 C.2        1 <1>        0.000
      7 O6          4.3370   -3.2546   -0.2571 O.3        1 <1>        0.000
      8 C13         1.5616    1.2448   -0.6651 C.2        1 <1>        0.000
      9 C14         2.8477    1.1420   -0.3123 C.2        1 <1>        0.000
     10 C15         3.5411    0.4609    0.7466 C.2        1 <1>        0.000
     11 C16         4.4833   -0.4649    0.5242 C.2        1 <1>        0.000
     12 C18         5.0195   -1.0289   -0.6938 C.2        1 <1>        0.000
     13 C19         4.9404   -2.4288   -1.1150 C.2        1 <1>        0.000
     14 C20         5.5708   -0.3070   -1.6825 C.2        1 <1>        0.000
     15 O7          5.3714   -2.8526   -2.1766 O.2        1 <1>        0.000
     16 H          -4.4197   -1.0179    0.8925 H.spc      1 <1>        0.000
     17 H          -3.2153    0.2953   -1.6793 H.spc      1 <1>        0.000
     18 H          -2.0419   -0.2945    1.0608 H.spc      1 <1>        0.000
     19 H          -0.9891    1.1641   -1.4300 H.spc      1 <1>        0.000
     20 H           0.5953    0.0996    0.8771 H.spc      1 <1>        0.000
     21 H           4.0616   -2.7620    0.5195 H.spc      1 <1>        0.000
     22 H           1.3576    1.8783   -1.5284 H.spc      1 <1>        0.000
     23 H           3.5159    1.6957   -0.9719 H.spc      1 <1>        0.000
     24 H           3.2887    0.7090    1.7775 H.spc      1 <1>        0.000
     25 H           4.9297   -0.8690    1.4328 H.spc      1 <1>        0.000
     26 H           5.6349    0.7776   -1.5949 H.spc      1 <1>        0.000
     27 H           5.9542   -0.8055   -2.5728 H.spc      1 <1>        0.000
@<TRIPOS>BOND
     1    1    2 1  
     2   13   15 2  
     3    9   10 1  
     4    2    4 2  
     5   10   11 2  
     6    6    8 1  
     7    1    3 2  
     8    8    9 2  
     9   12   14 2  
    10    4    5 1  
    11    5    6 2  
    12   11   12 1  
    13   12   13 1  
    14   13    7 1  
    15    1   16 1  
    16    2   17 1  
    17    4   18 1  
    18    5   19 1  
    19    6   20 1  
    20    7   21 1  
    21    8   22 1  
    22    9   23 1  
    23   10   24 1  
    24   11   25 1  
    25   14   26 1  
    26   14   27 1  
# Name:          frag3-281-3/96164 -- energy: -1.718337
# Creation time: Sat Jun  5 12:53:27 2010


@<TRIPOS>MOLECULE
frag3-281-3/96164 -- energy: -1.718337
   27    26     1     1     1
SMALL
USER_CHARGES


@<TRIPOS>ATOM
      1 C4         -4.4296   -0.3335   -0.5977 C.2        1 <1>        0.000
      2 C6         -3.2099    0.3828   -0.9483 C.2        1 <1>        0.000
      3 O3         -4.5984   -1.2601    0.1750 O.2        1 <1>        0.000
      4 C8         -2.0282    0.1059   -0.3852 C.2        1 <1>        0.000
      5 C11        -0.7828    0.7405   -0.6485 C.2        1 <1>        0.000
      6 C12         0.4597    0.5316   -0.2174 C.2        1 <1>        0.000
      7 O6          6.4564   -1.7325   -0.3176 O.3        1 <1>        0.000
      8 C13         1.6425    1.2727   -0.5503 C.2        1 <1>        0.000
      9 C14         2.8702    1.1431   -0.0392 C.2        1 <1>        0.000
     10 C15         3.3471    0.2249    0.9508 C.2        1 <1>        0.000
     11 C16         3.8751   -0.9652    0.6302 C.2        1 <1>        0.000
     12 C18         4.1161   -1.5926   -0.6399 C.2        1 <1>        0.000
     13 C19         5.4473   -1.9166   -1.1713 C.2        1 <1>        0.000
     14 C20         3.1976   -1.8664   -1.5803 C.2        1 <1>        0.000
     15 O7          5.6603   -2.3078   -2.3102 O.2        1 <1>        0.000
     16 H          -5.3298    0.0133   -1.1051 H.spc      1 <1>        0.000
     17 H          -3.2622    1.1733   -1.6969 H.spc      1 <1>        0.000
     18 H          -2.0189   -0.6931    0.3561 H.spc      1 <1>        0.000
     19 H          -0.8620    1.5714   -1.3496 H.spc      1 <1>        0.000
     20 H           0.5945   -0.3026    0.4711 H.spc      1 <1>        0.000
     21 H           6.1104   -1.4259    0.5237 H.spc      1 <1>        0.000
     22 H           1.5245    2.0383   -1.3172 H.spc      1 <1>        0.000
     23 H           3.6152    1.8351   -0.4319 H.spc      1 <1>        0.000
     24 H           3.2784    0.5033    2.0024 H.spc      1 <1>        0.000
     25 H           4.1761   -1.5656    1.4887 H.spc      1 <1>        0.000
     26 H           2.1522   -1.6074   -1.4128 H.spc      1 <1>        0.000
     27 H           3.4974   -2.3477   -2.5112 H.spc      1 <1>        0.000
@<TRIPOS>BOND
     1    1    2 1  
     2   13   15 2  
     3    9   10 1  
     4    2    4 2  
     5   10   11 2  
     6    6    8 1  
     7    1    3 2  
     8    8    9 2  
     9   12   14 2  
    10    4    5 1  
    11    5    6 2  
    12   11   12 1  
    13   12   13 1  
    14   13    7 1  
    15    1   16 1  
    16    2   17 1  
    17    4   18 1  
    18    5   19 1  
    19    6   20 1  
    20    7   21 1  
    21    8   22 1  
    22    9   23 1  
    23   10   24 1  
    24   11   25 1  
    25   14   26 1  
    26   14   27 1  
# Name:          frag3-281-3/96164 -- energy: -2.383016
# Creation time: Sat Jun  5 12:53:27 2010


@<TRIPOS>MOLECULE
frag3-281-3/96164 -- energy: -2.383016
   27    26     1     1     1
SMALL
USER_CHARGES


@<TRIPOS>ATOM
      1 C4         -4.1841    0.6078    0.7540 C.2        1 <1>        0.000
      2 C6         -2.9776    0.3594   -0.0343 C.2        1 <1>        0.000
      3 O3         -4.9016   -0.2447    1.2585 O.2        1 <1>        0.000
      4 C8         -2.2001    1.2931   -0.6001 C.2        1 <1>        0.000
      5 C11        -1.0389    1.0622   -1.3928 C.2        1 <1>        0.000
      6 C12        -0.0205    0.2333   -1.1393 C.2        1 <1>        0.000
      7 O6          5.1348    0.0570    0.6876 O.3        1 <1>        0.000
      8 C13         1.1348   -0.0697   -1.9142 C.2        1 <1>        0.000
      9 C14         2.0903   -0.9627   -1.6597 C.2        1 <1>        0.000
     10 C15         2.3618   -1.9015   -0.6145 C.2        1 <1>        0.000
     11 C16         3.5930   -2.2654   -0.2355 C.2        1 <1>        0.000
     12 C18         4.8773   -1.8375   -0.6989 C.2        1 <1>        0.000
     13 C19         5.7605   -0.8684   -0.0422 C.2        1 <1>        0.000
     14 C20         5.4148   -2.1447   -1.8893 C.2        1 <1>        0.000
     15 O7          6.9789   -0.8915   -0.1289 O.2        1 <1>        0.000
     16 H          -4.4703    1.6485    0.9060 H.spc      1 <1>        0.000
     17 H          -2.6836   -0.6808   -0.1746 H.spc      1 <1>        0.000
     18 H          -2.4845    2.3327   -0.4376 H.spc      1 <1>        0.000
     19 H          -0.9724    1.6313   -2.3201 H.spc      1 <1>        0.000
     20 H          -0.0853   -0.2944   -0.1878 H.spc      1 <1>        0.000
     21 H           4.1866   -0.0837    0.6360 H.spc      1 <1>        0.000
     22 H           1.2528    0.5027   -2.8343 H.spc      1 <1>        0.000
     23 H           2.8522   -0.9831   -2.4389 H.spc      1 <1>        0.000
     24 H           1.5139   -2.3478   -0.0949 H.spc      1 <1>        0.000
     25 H           3.6220   -3.0119    0.5582 H.spc      1 <1>        0.000
     26 H           4.8626   -2.7688   -2.5919 H.spc      1 <1>        0.000
     27 H           6.4037   -1.7702   -2.1537 H.spc      1 <1>        0.000
@<TRIPOS>BOND
     1    1    2 1  
     2   13   15 2  
     3    9   10 1  
     4    2    4 2  
     5   10   11 2  
     6    6    8 1  
     7    1    3 2  
     8    8    9 2  
     9   12   14 2  
    10    4    5 1  
    11    5    6 2  
    12   11   12 1  
    13   12   13 1  
    14   13    7 1  
    15    1   16 1  
    16    2   17 1  
    17    4   18 1  
    18    5   19 1  
    19    6   20 1  
    20    7   21 1  
    21    8   22 1  
    22    9   23 1  
    23   10   24 1  
    24   11   25 1  
    25   14   26 1  
    26   14   27 1  
# Name:          frag3-281-3/96164 -- energy: -3.396050
# Creation time: Sat Jun  5 12:53:27 2010


@<TRIPOS>MOLECULE
frag3-281-3/96164 -- energy: -3.396050
   27    26     1     1     1
SMALL
USER_CHARGES


@<TRIPOS>ATOM
      1 C4         -3.7872   -0.5761   -0.6831 C.2        1 <1>        0.000
      2 C6         -2.5070    0.0999   -0.9012 C.2        1 <1>        0.000
      3 O3         -4.8001   -0.4599   -1.3581 O.2        1 <1>        0.000
      4 C8         -1.4063   -0.0696   -0.1579 C.2        1 <1>        0.000
      5 C11        -0.1408    0.5719   -0.3122 C.2        1 <1>        0.000
      6 C12         1.0553    0.4611    0.2699 C.2        1 <1>        0.000
      7 O6          5.2707   -0.5533   -1.6756 O.3        1 <1>        0.000
      8 C13         2.2880    1.1703    0.0719 C.2        1 <1>        0.000
      9 C14         3.5139    0.8836    0.5374 C.2        1 <1>        0.000
     10 C15         3.9894   -0.2122    1.3318 C.2        1 <1>        0.000
     11 C16         4.0811   -1.4672    0.8608 C.2        1 <1>        0.000
     12 C18         3.7809   -1.9347   -0.4634 C.2        1 <1>        0.000
     13 C19         4.1046   -1.2109   -1.7110 C.2        1 <1>        0.000
     14 C20         3.2062   -3.1012   -0.7685 C.2        1 <1>        0.000
     15 O7          3.3746   -1.1750   -2.6905 O.2        1 <1>        0.000
     16 H          -3.8432   -1.2531    0.1693 H.spc      1 <1>        0.000
     17 H          -2.4449    0.7977   -1.7363 H.spc      1 <1>        0.000
     18 H          -1.4863   -0.7824    0.6628 H.spc      1 <1>        0.000
     19 H          -0.1542    1.3342   -1.0912 H.spc      1 <1>        0.000
     20 H           1.1056   -0.3108    1.0379 H.spc      1 <1>        0.000
     21 H           5.6960   -0.7036   -0.8282 H.spc      1 <1>        0.000
     22 H           2.2185    2.0677   -0.5429 H.spc      1 <1>        0.000
     23 H           4.2806    1.6087    0.2647 H.spc      1 <1>        0.000
     24 H           4.2892   -0.0184    2.3617 H.spc      1 <1>        0.000
     25 H           4.4247   -2.2212    1.5690 H.spc      1 <1>        0.000
     26 H           2.9221   -3.7928    0.0247 H.spc      1 <1>        0.000
     27 H           3.0213   -3.3616   -1.8107 H.spc      1 <1>        0.000
@<TRIPOS>BOND
     1    1    2 1  
     2   13   15 2  
     3    9   10 1  
     4    2    4 2  
     5   10   11 2  
     6    6    8 1  
     7    1    3 2  
     8    8    9 2  
     9   12   14 2  
    10    4    5 1  
    11    5    6 2  
    12   11   12 1  
    13   12   13 1  
    14   13    7 1  
    15    1   16 1  
    16    2   17 1  
    17    4   18 1  
    18    5   19 1  
    19    6   20 1  
    20    7   21 1  
    21    8   22 1  
    22    9   23 1  
    23   10   24 1  
    24   11   25 1  
    25   14   26 1  
    26   14   27 1  
# Name:          frag3-281-3/96164 -- energy: -2.604965
# Creation time: Sat Jun  5 12:53:27 2010


@<TRIPOS>MOLECULE
frag3-281-3/96164 -- energy: -2.604965
   27    26     1     1     1
SMALL
USER_CHARGES


@<TRIPOS>ATOM
      1 C4         -3.9492   -0.3439   -0.8649 C.2        1 <1>        0.000
      2 C6         -2.5848   -0.0232   -0.4565 C.2        1 <1>        0.000
      3 O3         -4.9364   -0.3741   -0.1425 O.2        1 <1>        0.000
      4 C8         -1.5227   -0.0140   -1.2705 C.2        1 <1>        0.000
      5 C11        -0.1677    0.2572   -0.9256 C.2        1 <1>        0.000
      6 C12         0.3321    1.2133   -0.1344 C.2        1 <1>        0.000
      7 O6          3.8100   -2.0424   -2.4124 O.3        1 <1>        0.000
      8 C13         1.6609    1.4980    0.2863 C.2        1 <1>        0.000
      9 C14         2.5342    0.5742    0.6941 C.2        1 <1>        0.000
     10 C15         2.4420   -0.8468    0.8369 C.2        1 <1>        0.000
     11 C16         3.3480   -1.7415    0.4399 C.2        1 <1>        0.000
     12 C18         4.5951   -1.5555   -0.2253 C.2        1 <1>        0.000
     13 C19         4.8559   -1.6580   -1.6776 C.2        1 <1>        0.000
     14 C20         5.6811   -1.1142    0.4266 C.2        1 <1>        0.000
     15 O7          5.9249   -1.4025   -2.2237 O.2        1 <1>        0.000
     16 H          -4.1039   -0.5798   -1.9178 H.spc      1 <1>        0.000
     17 H          -2.4186    0.2278    0.5911 H.spc      1 <1>        0.000
     18 H          -1.7171   -0.2403   -2.3189 H.spc      1 <1>        0.000
     19 H           0.5691   -0.4113   -1.3709 H.spc      1 <1>        0.000
     20 H          -0.4164    1.9004    0.2604 H.spc      1 <1>        0.000
     21 H           3.0579   -2.2020   -1.8376 H.spc      1 <1>        0.000
     22 H           1.9872    2.5379    0.2750 H.spc      1 <1>        0.000
     23 H           3.5063    0.9813    0.9723 H.spc      1 <1>        0.000
     24 H           1.5440   -1.2358    1.3168 H.spc      1 <1>        0.000
     25 H           3.0949   -2.7789    0.6586 H.spc      1 <1>        0.000
     26 H           5.6233   -0.8883    1.4914 H.spc      1 <1>        0.000
     27 H           6.6215   -0.9815   -0.1084 H.spc      1 <1>        0.000
@<TRIPOS>BOND
     1    1    2 1  
     2   13   15 2  
     3    9   10 1  
     4    2    4 2  
     5   10   11 2  
     6    6    8 1  
     7    1    3 2  
     8    8    9 2  
     9   12   14 2  
    10    4    5 1  
    11    5    6 2  
    12   11   12 1  
    13   12   13 1  
    14   13    7 1  
    15    1   16 1  
    16    2   17 1  
    17    4   18 1  
    18    5   19 1  
    19    6   20 1  
    20    7   21 1  
    21    8   22 1  
    22    9   23 1  
    23   10   24 1  
    24   11   25 1  
    25   14   26 1  
    26   14   27 1  
# Name:          frag3-281-3/96164 -- energy: -1.735017
# Creation time: Sat Jun  5 12:53:27 2010


@<TRIPOS>MOLECULE
frag3-281-3/96164 -- energy: -1.735017
   27    26     1     1     1
SMALL
USER_CHARGES


@<TRIPOS>ATOM
      1 C4         -4.4675    0.2262   -0.5091 C.2        1 <1>        0.000
      2 C6         -3.0416    0.3231   -0.1945 C.2        1 <1>        0.000
      3 O3         -5.1642   -0.7724   -0.3929 O.2        1 <1>        0.000
      4 C8         -2.2391    1.3482   -0.5113 C.2        1 <1>        0.000
      5 C11        -0.8528    1.4914   -0.2123 C.2        1 <1>        0.000
      6 C12         0.1005    0.5570   -0.2877 C.2        1 <1>        0.000
      7 O6          4.9632   -0.4570   -2.1641 O.3        1 <1>        0.000
      8 C13         1.4844    0.6046    0.0283 C.2        1 <1>        0.000
      9 C14         2.4028   -0.3486   -0.1079 C.2        1 <1>        0.000
     10 C15         2.4245   -1.6963   -0.5879 C.2        1 <1>        0.000
     11 C16         3.5161   -2.4597   -0.7239 C.2        1 <1>        0.000
     12 C18         4.8762   -2.1013   -0.4643 C.2        1 <1>        0.000
     13 C19         5.6394   -1.0480   -1.1760 C.2        1 <1>        0.000
     14 C20         5.6011   -2.5447    0.5720 C.2        1 <1>        0.000
     15 O7          6.7803   -0.6955   -0.9181 O.2        1 <1>        0.000
     16 H          -4.9539    1.1277   -0.8816 H.spc      1 <1>        0.000
     17 H          -2.5933   -0.5115    0.3446 H.spc      1 <1>        0.000
     18 H          -2.7001    2.1682   -1.0619 H.spc      1 <1>        0.000
     19 H          -0.5319    2.4797    0.1168 H.spc      1 <1>        0.000
     20 H          -0.2443   -0.4093   -0.6557 H.spc      1 <1>        0.000
     21 H           4.0901   -0.8501   -2.2326 H.spc      1 <1>        0.000
     22 H           1.8424    1.5493    0.4375 H.spc      1 <1>        0.000
     23 H           3.3852   -0.0203    0.2314 H.spc      1 <1>        0.000
     24 H           1.4690   -2.1403   -0.8672 H.spc      1 <1>        0.000
     25 H           3.3478   -3.4778   -1.0750 H.spc      1 <1>        0.000
     26 H           5.1576   -3.2310    1.2934 H.spc      1 <1>        0.000
     27 H           6.6342   -2.2190    0.6935 H.spc      1 <1>        0.000
@<TRIPOS>BOND
     1    1    2 1  
     2   13   15 2  
     3    9   10 1  
     4    2    4 2  
     5   10   11 2  
     6    6    8 1  
     7    1    3 2  
     8    8    9 2  
     9   12   14 2  
    10    4    5 1  
    11    5    6 2  
    12   11   12 1  
    13   12   13 1  
    14   13    7 1  
    15    1   16 1  
    16    2   17 1  
    17    4   18 1  
    18    5   19 1  
    19    6   20 1  
    20    7   21 1  
    21    8   22 1  
    22    9   23 1  
    23   10   24 1  
    24   11   25 1  
    25   14   26 1  
    26   14   27 1  
# Name:          frag3-281-3/96164 -- energy: 0.043771
# Creation time: Sat Jun  5 12:53:27 2010


@<TRIPOS>MOLECULE
frag3-281-3/96164 -- energy: 0.043771
   27    26     1     1     1
SMALL
USER_CHARGES


@<TRIPOS>ATOM
      1 C4         -4.5299   -0.0584    0.3502 C.2        1 <1>        0.000
      2 C6         -3.1608    0.2632   -0.0549 C.2        1 <1>        0.000
      3 O3         -5.0196    0.1065    1.4589 O.2        1 <1>        0.000
      4 C8         -2.6537    0.1191   -1.2861 C.2        1 <1>        0.000
      5 C11        -1.3288    0.4697   -1.6971 C.2        1 <1>        0.000
      6 C12        -0.1681    0.0715   -1.1673 C.2        1 <1>        0.000
      7 O6          6.4343   -1.8211   -1.9429 O.3        1 <1>        0.000
      8 C13         1.1564    0.4417   -1.5412 C.2        1 <1>        0.000
      9 C14         2.2919    0.1254   -0.9221 C.2        1 <1>        0.000
     10 C15         2.6448   -0.6235    0.2569 C.2        1 <1>        0.000
     11 C16         3.8955   -1.0194    0.5465 C.2        1 <1>        0.000
     12 C18         5.1162   -0.8573   -0.1897 C.2        1 <1>        0.000
     13 C19         5.8316   -2.0010   -0.7676 C.2        1 <1>        0.000
     14 C20         5.6978    0.3069   -0.4735 C.2        1 <1>        0.000
     15 O7          5.8157   -3.0965   -0.2198 O.2        1 <1>        0.000
     16 H          -5.1786   -0.4882   -0.4130 H.spc      1 <1>        0.000
     17 H          -2.4946    0.6548    0.7138 H.spc      1 <1>        0.000
     18 H          -3.3112   -0.3045   -2.0453 H.spc      1 <1>        0.000
     19 H          -1.2571    1.1461   -2.5488 H.spc      1 <1>        0.000
     20 H          -0.2449   -0.6310   -0.3375 H.spc      1 <1>        0.000
     21 H           6.3424   -0.9040   -2.2113 H.spc      1 <1>        0.000
     22 H           1.2507    1.0546   -2.4376 H.spc      1 <1>        0.000
     23 H           3.1664    0.5315   -1.4305 H.spc      1 <1>        0.000
     24 H           1.8498   -0.8844    0.9555 H.spc      1 <1>        0.000
     25 H           3.9996   -1.5491    1.4934 H.spc      1 <1>        0.000
     26 H           5.2433    1.2392   -0.1383 H.spc      1 <1>        0.000
     27 H           6.6282    0.3273   -1.0410 H.spc      1 <1>        0.000
@<TRIPOS>BOND
     1    1    2 1  
     2   13   15 2  
     3    9   10 1  
     4    2    4 2  
     5   10   11 2  
     6    6    8 1  
     7    1    3 2  
     8    8    9 2  
     9   12   14 2  
    10    4    5 1  
    11    5    6 2  
    12   11   12 1  
    13   12   13 1  
    14   13    7 1  
    15    1   16 1  
    16    2   17 1  
    17    4   18 1  
    18    5   19 1  
    19    6   20 1  
    20    7   21 1  
    21    8   22 1  
    22    9   23 1  
    23   10   24 1  
    24   11   25 1  
    25   14   26 1  
    26   14   27 1  
# Name:          frag3-281-3/96164 -- energy: -3.212454
# Creation time: Sat Jun  5 12:53:27 2010


@<TRIPOS>MOLECULE
frag3-281-3/96164 -- energy: -3.212454
   27    26     1     1     1
SMALL
USER_CHARGES


@<TRIPOS>ATOM
      1 C4         -4.2429    0.0086   -0.8604 C.2        1 <1>        0.000
      2 C6         -2.8239    0.1852   -0.5670 C.2        1 <1>        0.000
      3 O3         -4.9474    0.7756   -1.5000 O.2        1 <1>        0.000
      4 C8         -2.0791   -0.5700    0.2453 C.2        1 <1>        0.000
      5 C11        -0.6959   -0.4191    0.5260 C.2        1 <1>        0.000
      6 C12         0.0001    0.7017    0.7334 C.2        1 <1>        0.000
      7 O6          5.9818   -1.9558   -2.5611 O.3        1 <1>        0.000
      8 C13         1.3863    0.8938    0.9597 C.2        1 <1>        0.000
      9 C14         2.3332    0.3451    0.2001 C.2        1 <1>        0.000
     10 C15         2.2645   -0.5222   -0.9386 C.2        1 <1>        0.000
     11 C16         3.2207   -1.3592   -1.3423 C.2        1 <1>        0.000
     12 C18         4.4889   -1.6340   -0.7607 C.2        1 <1>        0.000
     13 C19         5.7860   -1.3575   -1.3895 C.2        1 <1>        0.000
     14 C20         4.7202   -2.0418    0.4990 C.2        1 <1>        0.000
     15 O7          6.6309   -0.6239   -0.8935 O.2        1 <1>        0.000
     16 H          -4.7189   -0.8920   -0.4726 H.spc      1 <1>        0.000
     17 H          -2.3213    1.0171   -1.0604 H.spc      1 <1>        0.000
     18 H          -2.5894   -1.3919    0.7474 H.spc      1 <1>        0.000
     19 H          -0.1232   -1.3450    0.5796 H.spc      1 <1>        0.000
     20 H          -0.5933    1.6160    0.7278 H.spc      1 <1>        0.000
     21 H           5.2121   -2.4857   -2.7811 H.spc      1 <1>        0.000
     22 H           1.6925    1.5215    1.7966 H.spc      1 <1>        0.000
     23 H           3.3486    0.6038    0.5004 H.spc      1 <1>        0.000
     24 H           1.3479   -0.4952   -1.5279 H.spc      1 <1>        0.000
     25 H           2.9972   -1.9151   -2.2529 H.spc      1 <1>        0.000
     26 H           3.8865   -2.1923    1.1849 H.spc      1 <1>        0.000
     27 H           5.7415   -2.2220    0.8347 H.spc      1 <1>        0.000
@<TRIPOS>BOND
     1    1    2 1  
     2   13   15 2  
     3    9   10 1  
     4    2    4 2  
     5   10   11 2  
     6    6    8 1  
     7    1    3 2  
     8    8    9 2  
     9   12   14 2  
    10    4    5 1  
    11    5    6 2  
    12   11   12 1  
    13   12   13 1  
    14   13    7 1  
    15    1   16 1  
    16    2   17 1  
    17    4   18 1  
    18    5   19 1  
    19    6   20 1  
    20    7   21 1  
    21    8   22 1  
    22    9   23 1  
    23   10   24 1  
    24   11   25 1  
    25   14   26 1  
    26   14   27 1  
# Name:          frag3-281-3/96164 -- energy: -2.285057
# Creation time: Sat Jun  5 12:53:27 2010


@<TRIPOS>MOLECULE
frag3-281-3/96164 -- energy: -2.285057
   27    26     1     1     1
SMALL
USER_CHARGES


@<TRIPOS>ATOM
      1 C4         -4.5822   -0.1459   -0.3122 C.2        1 <1>        0.000
      2 C6         -3.1908    0.2823   -0.3379 C.2        1 <1>        0.000
      3 O3         -5.3703    0.1048    0.5869 O.2        1 <1>        0.000
      4 C8         -2.3042    0.0242   -1.3052 C.2        1 <1>        0.000
      5 C11        -0.9471    0.4473   -1.3497 C.2        1 <1>        0.000
      6 C12        -0.1007    0.5819   -0.3216 C.2        1 <1>        0.000
      7 O6          5.2044   -2.2407   -2.3052 O.3        1 <1>        0.000
      8 C13         1.2460    1.0223   -0.3291 C.2        1 <1>        0.000
      9 C14         2.3120    0.2557   -0.1181 C.2        1 <1>        0.000
     10 C15         2.5138   -1.1260    0.1897 C.2        1 <1>        0.000
     11 C16         3.6986   -1.7421    0.1691 C.2        1 <1>        0.000
     12 C18         5.0033   -1.2745   -0.1668 C.2        1 <1>        0.000
     13 C19         5.8575   -1.7734   -1.2416 C.2        1 <1>        0.000
     14 C20         5.6090   -0.2077    0.3787 C.2        1 <1>        0.000
     15 O7          7.0741   -1.7813   -1.1866 O.2        1 <1>        0.000
     16 H          -4.9468   -0.7322   -1.1557 H.spc      1 <1>        0.000
     17 H          -2.8387    0.8683    0.5111 H.spc      1 <1>        0.000
     18 H          -2.6582   -0.5719   -2.1463 H.spc      1 <1>        0.000
     19 H          -0.5502    0.6901   -2.3354 H.spc      1 <1>        0.000
     20 H          -0.5028    0.3161    0.6560 H.spc      1 <1>        0.000
     21 H           4.2591   -2.1506   -2.1639 H.spc      1 <1>        0.000
     22 H           1.4234    2.0799   -0.5245 H.spc      1 <1>        0.000
     23 H           3.2481    0.8083   -0.1983 H.spc      1 <1>        0.000
     24 H           1.6394   -1.7179    0.4601 H.spc      1 <1>        0.000
     25 H           3.6617   -2.7914    0.4618 H.spc      1 <1>        0.000
     26 H           5.0983    0.3769    1.1439 H.spc      1 <1>        0.000
     27 H           6.6115    0.0738    0.0564 H.spc      1 <1>        0.000
@<TRIPOS>BOND
     1    1    2 1  
     2   13   15 2  
     3    9   10 1  
     4    2    4 2  
     5   10   11 2  
     6    6    8 1  
     7    1    3 2  
     8    8    9 2  
     9   12   14 2  
    10    4    5 1  
    11    5    6 2  
    12   11   12 1  
    13   12   13 1  
    14   13    7 1  
    15    1   16 1  
    16    2   17 1  
    17    4   18 1  
    18    5   19 1  
    19    6   20 1  
    20    7   21 1  
    21    8   22 1  
    22    9   23 1  
    23   10   24 1  
    24   11   25 1  
    25   14   26 1  
    26   14   27 1  
# Name:          frag3-281-3/96164 -- energy: -1.715564
# Creation time: Sat Jun  5 12:53:27 2010


@<TRIPOS>MOLECULE
frag3-281-3/96164 -- energy: -1.715564
   27    26     1     1     1
SMALL
USER_CHARGES


@<TRIPOS>ATOM
      1 C4         -4.2558   -0.0101   -0.6292 C.2        1 <1>        0.000
      2 C6         -2.8533   -0.0947   -0.2173 C.2        1 <1>        0.000
      3 O3         -5.1111   -0.8721   -0.4837 O.2        1 <1>        0.000
      4 C8         -1.9220    0.8315   -0.4899 C.2        1 <1>        0.000
      5 C11        -0.5546    0.7854   -0.0961 C.2        1 <1>        0.000
      6 C12         0.5151    1.5643   -0.2991 C.2        1 <1>        0.000
      7 O6          4.9284   -0.5455   -2.1837 O.3        1 <1>        0.000
      8 C13         1.8515    1.3164    0.1589 C.2        1 <1>        0.000
      9 C14         2.5090    0.1525    0.0445 C.2        1 <1>        0.000
     10 C15         2.2037   -1.1357   -0.5255 C.2        1 <1>        0.000
     11 C16         3.0595   -2.1393   -0.7549 C.2        1 <1>        0.000
     12 C18         4.4725   -2.1427   -0.5183 C.2        1 <1>        0.000
     13 C19         5.4548   -1.2847   -1.2069 C.2        1 <1>        0.000
     14 C20         5.0846   -2.7924    0.4829 C.2        1 <1>        0.000
     15 O7          6.6413   -1.2063   -0.9312 O.2        1 <1>        0.000
     16 H          -4.5692    0.9143   -1.1144 H.spc      1 <1>        0.000
     17 H          -2.5442   -0.9721    0.3508 H.spc      1 <1>        0.000
     18 H          -2.2417    1.6997   -1.0662 H.spc      1 <1>        0.000
     19 H          -0.3249   -0.0887    0.5133 H.spc      1 <1>        0.000
     20 H           0.3543    2.4789   -0.8699 H.spc      1 <1>        0.000
     21 H           3.9907   -0.7370   -2.2586 H.spc      1 <1>        0.000
     22 H           2.3764    2.1419    0.6397 H.spc      1 <1>        0.000
     23 H           3.5054    0.1897    0.4848 H.spc      1 <1>        0.000
     24 H           1.1635   -1.3118   -0.7994 H.spc      1 <1>        0.000
     25 H           2.6345   -3.0545   -1.1670 H.spc      1 <1>        0.000
     26 H           4.4982   -3.3746    1.1938 H.spc      1 <1>        0.000
     27 H           6.1684   -2.7382    0.5856 H.spc      1 <1>        0.000
@<TRIPOS>BOND
     1    1    2 1  
     2   13   15 2  
     3    9   10 1  
     4    2    4 2  
     5   10   11 2  
     6    6    8 1  
     7    1    3 2  
     8    8    9 2  
     9   12   14 2  
    10    4    5 1  
    11    5    6 2  
    12   11   12 1  
    13   12   13 1  
    14   13    7 1  
    15    1   16 1  
    16    2   17 1  
    17    4   18 1  
    18    5   19 1  
    19    6   20 1  
    20    7   21 1  
    21    8   22 1  
    22    9   23 1  
    23   10   24 1  
    24   11   25 1  
    25   14   26 1  
    26   14   27 1  
# Name:          frag3-281-3/96164 -- energy: -2.126842
# Creation time: Sat Jun  5 12:53:27 2010


@<TRIPOS>MOLECULE
frag3-281-3/96164 -- energy: -2.126842
   27    26     1     1     1
SMALL
USER_CHARGES


@<TRIPOS>ATOM
      1 C4         -4.3842    0.0925   -0.5838 C.2        1 <1>        0.000
      2 C6         -2.9349    0.2786   -0.6496 C.2        1 <1>        0.000
      3 O3         -5.0335   -0.7670   -1.1634 O.2        1 <1>        0.000
      4 C8         -2.2614    1.2096    0.0450 C.2        1 <1>        0.000
      5 C11        -0.8577    1.4781    0.0370 C.2        1 <1>        0.000
      6 C12         0.1454    0.5971    0.0972 C.2        1 <1>        0.000
      7 O6          4.3465   -0.9894   -2.4412 O.3        1 <1>        0.000
      8 C13         1.5559    0.7310    0.0467 C.2        1 <1>        0.000
      9 C14         2.4917   -0.2155    0.0709 C.2        1 <1>        0.000
     10 C15         2.5504   -1.6420    0.1638 C.2        1 <1>        0.000
     11 C16         3.6409   -2.3956   -0.0301 C.2        1 <1>        0.000
     12 C18         4.9649   -1.9704   -0.3632 C.2        1 <1>        0.000
     13 C19         5.3364   -1.1563   -1.5535 C.2        1 <1>        0.000
     14 C20         6.0338   -2.1834    0.4176 C.2        1 <1>        0.000
     15 O7          6.4293   -0.6405   -1.7433 O.2        1 <1>        0.000
     16 H          -4.9407    0.7886    0.0438 H.spc      1 <1>        0.000
     17 H          -2.3651   -0.3807   -1.3044 H.spc      1 <1>        0.000
     18 H          -2.8623    1.8417    0.6988 H.spc      1 <1>        0.000
     19 H          -0.5707    2.5278   -0.0258 H.spc      1 <1>        0.000
     20 H          -0.1890   -0.4345    0.2076 H.spc      1 <1>        0.000
     21 H           3.5649   -1.4578   -2.1391 H.spc      1 <1>        0.000
     22 H           1.9266    1.7538   -0.0216 H.spc      1 <1>        0.000
     23 H           3.4902    0.2160    0.0004 H.spc      1 <1>        0.000
     24 H           1.6257   -2.1618    0.4146 H.spc      1 <1>        0.000
     25 H           3.5010   -3.4709    0.0802 H.spc      1 <1>        0.000
     26 H           5.9198   -2.7076    1.3664 H.spc      1 <1>        0.000
     27 H           7.0168   -1.8323    0.1035 H.spc      1 <1>        0.000
@<TRIPOS>BOND
     1    1    2 1  
     2   13   15 2  
     3    9   10 1  
     4    2    4 2  
     5   10   11 2  
     6    6    8 1  
     7    1    3 2  
     8    8    9 2  
     9   12   14 2  
    10    4    5 1  
    11    5    6 2  
    12   11   12 1  
    13   12   13 1  
    14   13    7 1  
    15    1   16 1  
    16    2   17 1  
    17    4   18 1  
    18    5   19 1  
    19    6   20 1  
    20    7   21 1  
    21    8   22 1  
    22    9   23 1  
    23   10   24 1  
    24   11   25 1  
    25   14   26 1  
    26   14   27 1  
# Name:          frag3-281-3/96164 -- energy: -2.083943
# Creation time: Sat Jun  5 12:53:27 2010


@<TRIPOS>MOLECULE
frag3-281-3/96164 -- energy: -2.083943
   27    26     1     1     1
SMALL
USER_CHARGES


@<TRIPOS>ATOM
      1 C4         -3.8969   -0.7610   -0.4881 C.2        1 <1>        0.000
      2 C6         -2.5981   -0.1046   -0.3364 C.2        1 <1>        0.000
      3 O3         -4.6307   -0.6846   -1.4638 O.2        1 <1>        0.000
      4 C8         -1.8434   -0.0685    0.7705 C.2        1 <1>        0.000
      5 C11        -0.5939    0.6032    0.9205 C.2        1 <1>        0.000
      6 C12         0.4703    0.5960    0.1114 C.2        1 <1>        0.000
      7 O6          6.1044   -1.6952   -1.7577 O.3        1 <1>        0.000
      8 C13         1.7134    1.2914    0.1948 C.2        1 <1>        0.000
      9 C14         2.7320    1.2808   -0.6701 C.2        1 <1>        0.000
     10 C15         2.8996    0.5613   -1.8862 C.2        1 <1>        0.000
     11 C16         3.4215   -0.6700   -1.9234 C.2        1 <1>        0.000
     12 C18         3.9243   -1.5020   -0.8686 C.2        1 <1>        0.000
     13 C19         5.3146   -1.9770   -0.7224 C.2        1 <1>        0.000
     14 C20         3.2364   -1.8836    0.2180 C.2        1 <1>        0.000
     15 O7          5.7697   -2.5594    0.2518 O.2        1 <1>        0.000
     16 H          -4.2421   -1.3741    0.3444 H.spc      1 <1>        0.000
     17 H          -2.2038    0.4078   -1.2139 H.spc      1 <1>        0.000
     18 H          -2.2212   -0.6047    1.6411 H.spc      1 <1>        0.000
     19 H          -0.4925    1.2076    1.8219 H.spc      1 <1>        0.000
     20 H           0.3716   -0.0511   -0.7602 H.spc      1 <1>        0.000
     21 H           5.5953   -1.2404   -2.4326 H.spc      1 <1>        0.000
     22 H           1.8501    1.9127    1.0799 H.spc      1 <1>        0.000
     23 H           3.5680    1.9264   -0.4010 H.spc      1 <1>        0.000
     24 H           2.5918    1.0301   -2.8209 H.spc      1 <1>        0.000
     25 H           3.4731   -1.1135   -2.9178 H.spc      1 <1>        0.000
     26 H           2.2050   -1.5576    0.3524 H.spc      1 <1>        0.000
     27 H           3.7089   -2.5196    0.9666 H.spc      1 <1>        0.000
@<TRIPOS>BOND
     1    1    2 1  
     2   13   15 2  
     3    9   10 1  
     4    2    4 2  
     5   10   11 2  
     6    6    8 1  
     7    1    3 2  
     8    8    9 2  
     9   12   14 2  
    10    4    5 1  
    11    5    6 2  
    12   11   12 1  
    13   12   13 1  
    14   13    7 1  
    15    1   16 1  
    16    2   17 1  
    17    4   18 1  
    18    5   19 1  
    19    6   20 1  
    20    7   21 1  
    21    8   22 1  
    22    9   23 1  
    23   10   24 1  
    24   11   25 1  
    25   14   26 1  
    26   14   27 1  
# Name:          frag3-281-3/96164 -- energy: -3.047213
# Creation time: Sat Jun  5 12:53:27 2010


@<TRIPOS>MOLECULE
frag3-281-3/96164 -- energy: -3.047213
   27    26     1     1     1
SMALL
USER_CHARGES


@<TRIPOS>ATOM
      1 C4         -4.2237    0.2963    0.7511 C.2        1 <1>        0.000
      2 C6         -2.9740    0.4588    0.0154 C.2        1 <1>        0.000
      3 O3         -5.0064    1.1858    1.0468 O.2        1 <1>        0.000
      4 C8         -2.1053   -0.5203   -0.2485 C.2        1 <1>        0.000
      5 C11        -0.8855   -0.4416   -0.9704 C.2        1 <1>        0.000
      6 C12         0.0285    0.5345   -0.9799 C.2        1 <1>        0.000
      7 O6          5.6344   -1.6817    1.2528 O.3        1 <1>        0.000
      8 C13         1.2481    0.6579   -1.6952 C.2        1 <1>        0.000
      9 C14         2.2077   -0.2649   -1.7502 C.2        1 <1>        0.000
     10 C15         2.3629   -1.5646   -1.1701 C.2        1 <1>        0.000
     11 C16         3.5251   -2.1366   -0.8489 C.2        1 <1>        0.000
     12 C18         4.8424   -1.6179   -0.9793 C.2        1 <1>        0.000
     13 C19         5.6380   -1.0184    0.0968 C.2        1 <1>        0.000
     14 C20         5.4884   -1.4973   -2.1449 C.2        1 <1>        0.000
     15 O7          6.2427    0.0367   -0.0253 O.2        1 <1>        0.000
     16 H          -4.4830   -0.7144    1.0664 H.spc      1 <1>        0.000
     17 H          -2.7306    1.4575   -0.3471 H.spc      1 <1>        0.000
     18 H          -2.3658   -1.5050    0.1396 H.spc      1 <1>        0.000
     19 H          -0.6624   -1.2978   -1.6069 H.spc      1 <1>        0.000
     20 H          -0.2020    1.3775   -0.3285 H.spc      1 <1>        0.000
     21 H           5.1114   -2.4814    1.1600 H.spc      1 <1>        0.000
     22 H           1.4135    1.5844   -2.2451 H.spc      1 <1>        0.000
     23 H           3.0546    0.0331   -2.3683 H.spc      1 <1>        0.000
     24 H           1.4551   -2.1352   -0.9742 H.spc      1 <1>        0.000
     25 H           3.4547   -3.1398   -0.4286 H.spc      1 <1>        0.000
     26 H           5.0039   -1.8064   -3.0711 H.spc      1 <1>        0.000
     27 H           6.4992   -1.0900   -2.1682 H.spc      1 <1>        0.000
@<TRIPOS>BOND
     1    1    2 1  
     2   13   15 2  
     3    9   10 1  
     4    2    4 2  
     5   10   11 2  
     6    6    8 1  
     7    1    3 2  
     8    8    9 2  
     9   12   14 2  
    10    4    5 1  
    11    5    6 2  
    12   11   12 1  
    13   12   13 1  
    14   13    7 1  
    15    1   16 1  
    16    2   17 1  
    17    4   18 1  
    18    5   19 1  
    19    6   20 1  
    20    7   21 1  
    21    8   22 1  
    22    9   23 1  
    23   10   24 1  
    24   11   25 1  
    25   14   26 1  
    26   14   27 1  
# Name:          frag3-281-3/96164 -- energy: -0.902683
# Creation time: Sat Jun  5 12:53:27 2010


@<TRIPOS>MOLECULE
frag3-281-3/96164 -- energy: -0.902683
   27    26     1     1     1
SMALL
USER_CHARGES


@<TRIPOS>ATOM
      1 C4         -4.3823   -0.0641   -0.0959 C.2        1 <1>        0.000
      2 C6         -2.9774    0.0826   -0.4749 C.2        1 <1>        0.000
      3 O3         -5.0042   -1.1147   -0.0469 O.2        1 <1>        0.000
      4 C8         -2.2845    1.2302   -0.4660 C.2        1 <1>        0.000
      5 C11        -0.9175    1.3895   -0.8561 C.2        1 <1>        0.000
      6 C12         0.1405    0.6912   -0.4258 C.2        1 <1>        0.000
      7 O6          5.8803   -0.8098   -2.1575 O.3        1 <1>        0.000
      8 C13         1.5107    0.7921   -0.8154 C.2        1 <1>        0.000
      9 C14         2.5377    0.0516   -0.3934 C.2        1 <1>        0.000
     10 C15         2.7225   -1.0497    0.5341 C.2        1 <1>        0.000
     11 C16         3.8646   -1.7480    0.6988 C.2        1 <1>        0.000
     12 C18         5.0852   -1.5638   -0.0374 C.2        1 <1>        0.000
     13 C19         5.1282   -1.6857   -1.4981 C.2        1 <1>        0.000
     14 C20         6.2864   -1.2644    0.4615 C.2        1 <1>        0.000
     15 O7          4.4330   -2.5103   -2.0766 O.2        1 <1>        0.000
     16 H          -4.9230    0.8453    0.1664 H.spc      1 <1>        0.000
     17 H          -2.4492   -0.8169   -0.7912 H.spc      1 <1>        0.000
     18 H          -2.8110    2.1238   -0.1308 H.spc      1 <1>        0.000
     19 H          -0.7136    2.1702   -1.5889 H.spc      1 <1>        0.000
     20 H          -0.0749   -0.0631    0.3310 H.spc      1 <1>        0.000
     21 H           6.3468   -0.2535   -1.5294 H.spc      1 <1>        0.000
     22 H           1.7460    1.5669   -1.5450 H.spc      1 <1>        0.000
     23 H           3.4747    0.3490   -0.8643 H.spc      1 <1>        0.000
     24 H           1.8683   -1.3357    1.1477 H.spc      1 <1>        0.000
     25 H           3.8616   -2.5257    1.4625 H.spc      1 <1>        0.000
     26 H           6.4131   -1.1341    1.5362 H.spc      1 <1>        0.000
     27 H           7.1407   -1.1502   -0.2058 H.spc      1 <1>        0.000
@<TRIPOS>BOND
     1    1    2 1  
     2   13   15 2  
     3    9   10 1  
     4    2    4 2  
     5   10   11 2  
     6    6    8 1  
     7    1    3 2  
     8    8    9 2  
     9   12   14 2  
    10    4    5 1  
    11    5    6 2  
    12   11   12 1  
    13   12   13 1  
    14   13    7 1  
    15    1   16 1  
    16    2   17 1  
    17    4   18 1  
    18    5   19 1  
    19    6   20 1  
    20    7   21 1  
    21    8   22 1  
    22    9   23 1  
    23   10   24 1  
    24   11   25 1  
    25   14   26 1  
    26   14   27 1  
# Name:          frag3-281-3/96164 -- energy: -2.060010
# Creation time: Sat Jun  5 12:53:27 2010


@<TRIPOS>MOLECULE
frag3-281-3/96164 -- energy: -2.060010
   27    26     1     1     1
SMALL
USER_CHARGES


@<TRIPOS>ATOM
      1 C4         -4.2017    0.2078   -0.8881 C.2        1 <1>        0.000
      2 C6         -2.7933    0.5318   -0.6749 C.2        1 <1>        0.000
      3 O3         -4.7969   -0.8380   -0.6946 O.2        1 <1>        0.000
      4 C8         -1.9648   -0.2735   -0.0016 C.2        1 <1>        0.000
      5 C11        -0.5807   -0.0990    0.2576 C.2        1 <1>        0.000
      6 C12         0.0970    1.0392    0.4510 C.2        1 <1>        0.000
      7 O6          5.8565   -1.4510   -2.4293 O.3        1 <1>        0.000
      8 C13         1.4809    1.2655    0.6618 C.2        1 <1>        0.000
      9 C14         2.4298    0.7106   -0.0899 C.2        1 <1>        0.000
     10 C15         2.3581   -0.1726   -1.2100 C.2        1 <1>        0.000
     11 C16         3.1872   -1.1943   -1.4249 C.2        1 <1>        0.000
     12 C18         4.3081   -1.6617   -0.6741 C.2        1 <1>        0.000
     13 C19         5.7094   -1.7028   -1.1269 C.2        1 <1>        0.000
     14 C20         4.2496   -2.0329    0.6192 C.2        1 <1>        0.000
     15 O7          6.6841   -1.9022   -0.4249 O.2        1 <1>        0.000
     16 H          -4.8111    1.0229   -1.2784 H.spc      1 <1>        0.000
     17 H          -2.4029    1.4654   -1.0800 H.spc      1 <1>        0.000
     18 H          -2.4111   -1.1829    0.4007 H.spc      1 <1>        0.000
     19 H           0.0097   -1.0140    0.3057 H.spc      1 <1>        0.000
     20 H          -0.5160    1.9405    0.4455 H.spc      1 <1>        0.000
     21 H           4.9933   -1.3190   -2.8281 H.spc      1 <1>        0.000
     22 H           1.7818    1.9240    1.4766 H.spc      1 <1>        0.000
     23 H           3.4449    0.9790    0.2026 H.spc      1 <1>        0.000
     24 H           1.5690    0.0011   -1.9416 H.spc      1 <1>        0.000
     25 H           2.9733   -1.7698   -2.3256 H.spc      1 <1>        0.000
     26 H           3.3029   -1.9862    1.1573 H.spc      1 <1>        0.000
     27 H           5.1490   -2.3801    1.1278 H.spc      1 <1>        0.000
@<TRIPOS>BOND
     1    1    2 1  
     2   13   15 2  
     3    9   10 1  
     4    2    4 2  
     5   10   11 2  
     6    6    8 1  
     7    1    3 2  
     8    8    9 2  
     9   12   14 2  
    10    4    5 1  
    11    5    6 2  
    12   11   12 1  
    13   12   13 1  
    14   13    7 1  
    15    1   16 1  
    16    2   17 1  
    17    4   18 1  
    18    5   19 1  
    19    6   20 1  
    20    7   21 1  
    21    8   22 1  
    22    9   23 1  
    23   10   24 1  
    24   11   25 1  
    25   14   26 1  
    26   14   27 1  
# Name:          frag3-281-3/96164 -- energy: -2.318521
# Creation time: Sat Jun  5 12:53:27 2010


@<TRIPOS>MOLECULE
frag3-281-3/96164 -- energy: -2.318521
   27    26     1     1     1
SMALL
USER_CHARGES


@<TRIPOS>ATOM
      1 C4         -4.3945    0.1313    0.0657 C.2        1 <1>        0.000
      2 C6         -3.0311    0.3921   -0.3932 C.2        1 <1>        0.000
      3 O3         -5.2864    0.9577    0.1921 O.2        1 <1>        0.000
      4 C8         -2.0585   -0.5276   -0.3792 C.2        1 <1>        0.000
      5 C11        -0.6958   -0.4052   -0.7780 C.2        1 <1>        0.000
      6 C12         0.0865    0.6838   -0.7213 C.2        1 <1>        0.000
      7 O6          5.7248    0.0474   -0.1166 O.3        1 <1>        0.000
      8 C13         1.4419    0.8946   -1.0903 C.2        1 <1>        0.000
      9 C14         2.4913    0.2255   -0.6135 C.2        1 <1>        0.000
     10 C15         2.6255   -0.8216    0.3522 C.2        1 <1>        0.000
     11 C16         3.5545   -1.7776    0.3568 C.2        1 <1>        0.000
     12 C18         4.6204   -1.9938   -0.5653 C.2        1 <1>        0.000
     13 C19         5.7270   -1.0586   -0.8727 C.2        1 <1>        0.000
     14 C20         4.6366   -3.0779   -1.3597 C.2        1 <1>        0.000
     15 O7          6.5810   -1.2432   -1.7266 O.2        1 <1>        0.000
     16 H          -4.6395   -0.9000    0.3198 H.spc      1 <1>        0.000
     17 H          -2.7940    1.3883   -0.7666 H.spc      1 <1>        0.000
     18 H          -2.3506   -1.5107   -0.0100 H.spc      1 <1>        0.000
     19 H          -0.2320   -1.3067   -1.1782 H.spc      1 <1>        0.000
     20 H          -0.4084    1.5676   -0.3187 H.spc      1 <1>        0.000
     21 H           4.9840    0.0154    0.4931 H.spc      1 <1>        0.000
     22 H           1.6412    1.6718   -1.8281 H.spc      1 <1>        0.000
     23 H           3.4404    0.5400   -1.0476 H.spc      1 <1>        0.000
     24 H           1.8973   -0.8394    1.1630 H.spc      1 <1>        0.000
     25 H           3.4906   -2.4917    1.1778 H.spc      1 <1>        0.000
     26 H           3.8276   -3.8063   -1.3043 H.spc      1 <1>        0.000
     27 H           5.4587   -3.2286   -2.0593 H.spc      1 <1>        0.000
@<TRIPOS>BOND
     1    1    2 1  
     2   13   15 2  
     3    9   10 1  
     4    2    4 2  
     5   10   11 2  
     6    6    8 1  
     7    1    3 2  
     8    8    9 2  
     9   12   14 2  
    10    4    5 1  
    11    5    6 2  
    12   11   12 1  
    13   12   13 1  
    14   13    7 1  
    15    1   16 1  
    16    2   17 1  
    17    4   18 1  
    18    5   19 1  
    19    6   20 1  
    20    7   21 1  
    21    8   22 1  
    22    9   23 1  
    23   10   24 1  
    24   11   25 1  
    25   14   26 1  
    26   14   27 1  
# Name:          frag3-281-3/96164 -- energy: -2.799501
# Creation time: Sat Jun  5 12:53:27 2010


@<TRIPOS>MOLECULE
frag3-281-3/96164 -- energy: -2.799501
   27    26     1     1     1
SMALL
USER_CHARGES


@<TRIPOS>ATOM
      1 C4         -3.6875   -0.8420   -0.6104 C.2        1 <1>        0.000
      2 C6         -2.6040    0.0967   -0.8820 C.2        1 <1>        0.000
      3 O3         -3.6943   -1.8700    0.0426 O.2        1 <1>        0.000
      4 C8         -1.3577   -0.1085   -0.4445 C.2        1 <1>        0.000
      5 C11        -0.2282    0.7361   -0.6352 C.2        1 <1>        0.000
      6 C12         1.0432    0.6860   -0.2298 C.2        1 <1>        0.000
      7 O6          3.3549   -3.1664    0.0454 O.3        1 <1>        0.000
      8 C13         2.0915    1.6352   -0.4757 C.2        1 <1>        0.000
      9 C14         3.3455    1.6598   -0.0048 C.2        1 <1>        0.000
     10 C15         4.0629    0.7732    0.8667 C.2        1 <1>        0.000
     11 C16         4.4408   -0.4523    0.4704 C.2        1 <1>        0.000
     12 C18         4.2417   -1.1154   -0.7849 C.2        1 <1>        0.000
     13 C19         3.4457   -2.3293   -0.9943 C.2        1 <1>        0.000
     14 C20         4.7081   -0.7048   -1.9752 C.2        1 <1>        0.000
     15 O7          2.8606   -2.5714   -2.0379 O.2        1 <1>        0.000
     16 H          -4.6436   -0.5816   -1.0645 H.spc      1 <1>        0.000
     17 H          -2.8180    0.9951   -1.4609 H.spc      1 <1>        0.000
     18 H          -1.1876   -1.0245    0.1212 H.spc      1 <1>        0.000
     19 H          -0.4485    1.6133   -1.2435 H.spc      1 <1>        0.000
     20 H           1.3199   -0.1860    0.3628 H.spc      1 <1>        0.000
     21 H           3.8733   -2.8235    0.7771 H.spc      1 <1>        0.000
     22 H           1.8289    2.4560   -1.1431 H.spc      1 <1>        0.000
     23 H           3.9307    2.5131   -0.3478 H.spc      1 <1>        0.000
     24 H           4.3071    1.1036    1.8763 H.spc      1 <1>        0.000
     25 H           4.9822   -1.0323    1.2178 H.spc      1 <1>        0.000
     26 H           5.2967    0.2100   -2.0438 H.spc      1 <1>        0.000
     27 H           4.4981   -1.2863   -2.8729 H.spc      1 <1>        0.000
@<TRIPOS>BOND
     1    1    2 1  
     2   13   15 2  
     3    9   10 1  
     4    2    4 2  
     5   10   11 2  
     6    6    8 1  
     7    1    3 2  
     8    8    9 2  
     9   12   14 2  
    10    4    5 1  
    11    5    6 2  
    12   11   12 1  
    13   12   13 1  
    14   13    7 1  
    15    1   16 1  
    16    2   17 1  
    17    4   18 1  
    18    5   19 1  
    19    6   20 1  
    20    7   21 1  
    21    8   22 1  
    22    9   23 1  
    23   10   24 1  
    24   11   25 1  
    25   14   26 1  
    26   14   27 1  
# Name:          frag3-281-3/96164 -- energy: -1.648732
# Creation time: Sat Jun  5 12:53:27 2010


@<TRIPOS>MOLECULE
frag3-281-3/96164 -- energy: -1.648732
   27    26     1     1     1
SMALL
USER_CHARGES


@<TRIPOS>ATOM
      1 C4         -4.3674    0.0254   -0.3856 C.2        1 <1>        0.000
      2 C6         -2.9174    0.1385   -0.1973 C.2        1 <1>        0.000
      3 O3         -4.9668   -0.9887   -0.7194 O.2        1 <1>        0.000
      4 C8         -2.2634    1.2476    0.1806 C.2        1 <1>        0.000
      5 C11        -0.8592    1.4149    0.3874 C.2        1 <1>        0.000
      6 C12         0.1323    0.7572   -0.2303 C.2        1 <1>        0.000
      7 O6          5.6086   -0.3127   -1.7677 O.3        1 <1>        0.000
      8 C13         1.5487    0.8429   -0.0685 C.2        1 <1>        0.000
      9 C14         2.4823    0.0487   -0.5983 C.2        1 <1>        0.000
     10 C15         2.4538   -1.0998   -1.4714 C.2        1 <1>        0.000
     11 C16         3.3854   -2.0623   -1.4969 C.2        1 <1>        0.000
     12 C18         4.5853   -2.1477   -0.7158 C.2        1 <1>        0.000
     13 C19         5.7305   -1.2183   -0.8034 C.2        1 <1>        0.000
     14 C20         4.7602   -2.9864    0.3126 C.2        1 <1>        0.000
     15 O7          6.7104   -1.2325   -0.0755 O.2        1 <1>        0.000
     16 H          -4.9631    0.9218   -0.2135 H.spc      1 <1>        0.000
     17 H          -2.3199   -0.7547   -0.3799 H.spc      1 <1>        0.000
     18 H          -2.8796    2.1305    0.3510 H.spc      1 <1>        0.000
     19 H          -0.5622    2.1578    1.1276 H.spc      1 <1>        0.000
     20 H          -0.1971    0.0380   -0.9802 H.spc      1 <1>        0.000
     21 H           4.7816   -0.4533   -2.2345 H.spc      1 <1>        0.000
     22 H           1.9111    1.6539    0.5632 H.spc      1 <1>        0.000
     23 H           3.4934    0.3316   -0.3053 H.spc      1 <1>        0.000
     24 H           1.6137   -1.1909   -2.1599 H.spc      1 <1>        0.000
     25 H           3.2102   -2.8798   -2.1962 H.spc      1 <1>        0.000
     26 H           3.9587   -3.6648    0.6050 H.spc      1 <1>        0.000
     27 H           5.7041   -2.9909    0.8577 H.spc      1 <1>        0.000
@<TRIPOS>BOND
     1    1    2 1  
     2   13   15 2  
     3    9   10 1  
     4    2    4 2  
     5   10   11 2  
     6    6    8 1  
     7    1    3 2  
     8    8    9 2  
     9   12   14 2  
    10    4    5 1  
    11    5    6 2  
    12   11   12 1  
    13   12   13 1  
    14   13    7 1  
    15    1   16 1  
    16    2   17 1  
    17    4   18 1  
    18    5   19 1  
    19    6   20 1  
    20    7   21 1  
    21    8   22 1  
    22    9   23 1  
    23   10   24 1  
    24   11   25 1  
    25   14   26 1  
    26   14   27 1  
# Name:          frag3-281-3/96164 -- energy: -3.144428
# Creation time: Sat Jun  5 12:53:27 2010


@<TRIPOS>MOLECULE
frag3-281-3/96164 -- energy: -3.144428
   27    26     1     1     1
SMALL
USER_CHARGES


@<TRIPOS>ATOM
      1 C4         -4.2679   -0.0023   -0.1901 C.2        1 <1>        0.000
      2 C6         -2.8368    0.2840   -0.3496 C.2        1 <1>        0.000
      3 O3         -5.1905    0.5312   -0.7906 O.2        1 <1>        0.000
      4 C8         -1.8763   -0.3130    0.3761 C.2        1 <1>        0.000
      5 C11        -0.4661   -0.1647    0.3099 C.2        1 <1>        0.000
      6 C12         0.2526    0.9145   -0.0076 C.2        1 <1>        0.000
      7 O6          5.7242   -0.4278   -1.8943 O.3        1 <1>        0.000
      8 C13         1.6466    1.1546   -0.1453 C.2        1 <1>        0.000
      9 C14         2.5080    0.3445   -0.7704 C.2        1 <1>        0.000
     10 C15         2.3509   -0.9021   -1.4510 C.2        1 <1>        0.000
     11 C16         3.2049   -1.9279   -1.4580 C.2        1 <1>        0.000
     12 C18         4.4585   -2.0678   -0.7837 C.2        1 <1>        0.000
     13 C19         5.5336   -1.0595   -0.7277 C.2        1 <1>        0.000
     14 C20         4.7966   -3.1431   -0.0401 C.2        1 <1>        0.000
     15 O7          6.1850   -0.7939    0.2728 O.2        1 <1>        0.000
     16 H          -4.5356   -0.7684    0.5376 H.spc      1 <1>        0.000
     17 H          -2.5376    1.0197   -1.0961 H.spc      1 <1>        0.000
     18 H          -2.2335   -1.0165    1.1282 H.spc      1 <1>        0.000
     19 H           0.1108   -1.0572    0.5523 H.spc      1 <1>        0.000
     20 H          -0.3576    1.7965   -0.2020 H.spc      1 <1>        0.000
     21 H           5.1179   -0.7796   -2.5502 H.spc      1 <1>        0.000
     22 H           2.0447    2.0700    0.2925 H.spc      1 <1>        0.000
     23 H           3.5355    0.7080   -0.7582 H.spc      1 <1>        0.000
     24 H           1.4342   -1.0291   -2.0269 H.spc      1 <1>        0.000
     25 H           2.9036   -2.7818   -2.0648 H.spc      1 <1>        0.000
     26 H           4.0954   -3.9700    0.0728 H.spc      1 <1>        0.000
     27 H           5.7707   -3.1842    0.4473 H.spc      1 <1>        0.000
@<TRIPOS>BOND
     1    1    2 1  
     2   13   15 2  
     3    9   10 1  
     4    2    4 2  
     5   10   11 2  
     6    6    8 1  
     7    1    3 2  
     8    8    9 2  
     9   12   14 2  
    10    4    5 1  
    11    5    6 2  
    12   11   12 1  
    13   12   13 1  
    14   13    7 1  
    15    1   16 1  
    16    2   17 1  
    17    4   18 1  
    18    5   19 1  
    19    6   20 1  
    20    7   21 1  
    21    8   22 1  
    22    9   23 1  
    23   10   24 1  
    24   11   25 1  
    25   14   26 1  
    26   14   27 1  
# Name:          frag3-281-3/96164 -- energy: -1.839780
# Creation time: Sat Jun  5 12:53:27 2010


@<TRIPOS>MOLECULE
frag3-281-3/96164 -- energy: -1.839780
   27    26     1     1     1
SMALL
USER_CHARGES


@<TRIPOS>ATOM
      1 C4         -4.2508   -0.0325    0.6283 C.2        1 <1>        0.000
      2 C6         -2.9300   -0.1221    0.0075 C.2        1 <1>        0.000
      3 O3         -4.9167    0.9565    0.8771 O.2        1 <1>        0.000
      4 C8         -2.3044    0.9373   -0.5252 C.2        1 <1>        0.000
      5 C11        -1.0374    1.0092   -1.1759 C.2        1 <1>        0.000
      6 C12         0.0177    0.2120   -0.9751 C.2        1 <1>        0.000
      7 O6          4.9358   -0.1775    0.8006 O.3        1 <1>        0.000
      8 C13         1.2996    0.1836   -1.5911 C.2        1 <1>        0.000
      9 C14         2.2703   -0.7064   -1.4161 C.2        1 <1>        0.000
     10 C15         2.4520   -1.8942   -0.6412 C.2        1 <1>        0.000
     11 C16         3.6409   -2.4466   -0.3645 C.2        1 <1>        0.000
     12 C18         4.9452   -1.9820   -0.7214 C.2        1 <1>        0.000
     13 C19         5.5837   -0.7463   -0.2188 C.2        1 <1>        0.000
     14 C20         5.7133   -2.5201   -1.6779 C.2        1 <1>        0.000
     15 O7          6.6041   -0.2441   -0.6561 O.2        1 <1>        0.000
     16 H          -4.7028   -0.9842    0.9076 H.spc      1 <1>        0.000
     17 H          -2.4328   -1.0916   -0.0235 H.spc      1 <1>        0.000
     18 H          -2.8430    1.8819   -0.4499 H.spc      1 <1>        0.000
     19 H          -0.9157    1.7992   -1.9170 H.spc      1 <1>        0.000
     20 H          -0.1303   -0.5469   -0.2068 H.spc      1 <1>        0.000
     21 H           4.1596   -0.6996    1.0162 H.spc      1 <1>        0.000
     22 H           1.5113    0.9907   -2.2924 H.spc      1 <1>        0.000
     23 H           3.1507   -0.4718   -2.0145 H.spc      1 <1>        0.000
     24 H           1.5613   -2.3844   -0.2482 H.spc      1 <1>        0.000
     25 H           3.6097   -3.3731    0.2088 H.spc      1 <1>        0.000
     26 H           5.3534   -3.3761   -2.2486 H.spc      1 <1>        0.000
     27 H           6.6982   -2.1019   -1.8855 H.spc      1 <1>        0.000
@<TRIPOS>BOND
     1    1    2 1  
     2   13   15 2  
     3    9   10 1  
     4    2    4 2  
     5   10   11 2  
     6    6    8 1  
     7    1    3 2  
     8    8    9 2  
     9   12   14 2  
    10    4    5 1  
    11    5    6 2  
    12   11   12 1  
    13   12   13 1  
    14   13    7 1  
    15    1   16 1  
    16    2   17 1  
    17    4   18 1  
    18    5   19 1  
    19    6   20 1  
    20    7   21 1  
    21    8   22 1  
    22    9   23 1  
    23   10   24 1  
    24   11   25 1  
    25   14   26 1  
    26   14   27 1  
# Name:          frag3-281-3/96164 -- energy: -3.447413
# Creation time: Sat Jun  5 12:53:27 2010


@<TRIPOS>MOLECULE
frag3-281-3/96164 -- energy: -3.447413
   27    26     1     1     1
SMALL
USER_CHARGES


@<TRIPOS>ATOM
      1 C4         -3.0437   -0.9411   -0.6705 C.2        1 <1>        0.000
      2 C6         -1.6635   -0.4579   -0.6151 C.2        1 <1>        0.000
      3 O3         -3.5072   -1.7046   -1.5063 O.2        1 <1>        0.000
      4 C8         -1.1938    0.4771    0.2180 C.2        1 <1>        0.000
      5 C11         0.1387    0.9695    0.3249 C.2        1 <1>        0.000
      6 C12         1.0581    1.1738   -0.6307 C.2        1 <1>        0.000
      7 O6          5.2429   -1.1339   -0.8992 O.3        1 <1>        0.000
      8 C13         2.4086    1.6260   -0.5087 C.2        1 <1>        0.000
      9 C14         3.2996    1.0912    0.3337 C.2        1 <1>        0.000
     10 C15         3.1378   -0.0112    1.2440 C.2        1 <1>        0.000
     11 C16         2.9840   -1.2878    0.8460 C.2        1 <1>        0.000
     12 C18         3.0093   -1.7920   -0.5011 C.2        1 <1>        0.000
     13 C19         4.0961   -1.5136   -1.4709 C.2        1 <1>        0.000
     14 C20         2.0434   -2.4838   -1.1261 C.2        1 <1>        0.000
     15 O7          4.0131   -1.5851   -2.6878 O.2        1 <1>        0.000
     16 H          -3.7223   -0.5875    0.1057 H.spc      1 <1>        0.000
     17 H          -0.9547   -0.8996   -1.3156 H.spc      1 <1>        0.000
     18 H          -1.9212    0.9172    0.9001 H.spc      1 <1>        0.000
     19 H           0.4601    1.2180    1.3364 H.spc      1 <1>        0.000
     20 H           0.7271    0.9645   -1.6479 H.spc      1 <1>        0.000
     21 H           5.1378   -1.1310    0.0550 H.spc      1 <1>        0.000
     22 H           2.7312    2.4549   -1.1388 H.spc      1 <1>        0.000
     23 H           4.2858    1.5554    0.3299 H.spc      1 <1>        0.000
     24 H           3.1399    0.1987    2.3136 H.spc      1 <1>        0.000
     25 H           2.8218   -2.0232    1.6340 H.spc      1 <1>        0.000
     26 H           1.1158   -2.7181   -0.6038 H.spc      1 <1>        0.000
     27 H           2.1867   -2.8112   -2.1559 H.spc      1 <1>        0.000
@<TRIPOS>BOND
     1    1    2 1  
     2   13   15 2  
     3    9   10 1  
     4    2    4 2  
     5   10   11 2  
     6    6    8 1  
     7    1    3 2  
     8    8    9 2  
     9   12   14 2  
    10    4    5 1  
    11    5    6 2  
    12   11   12 1  
    13   12   13 1  
    14   13    7 1  
    15    1   16 1  
    16    2   17 1  
    17    4   18 1  
    18    5   19 1  
    19    6   20 1  
    20    7   21 1  
    21    8   22 1  
    22    9   23 1  
    23   10   24 1  
    24   11   25 1  
    25   14   26 1  
    26   14   27 1  
# Name:          frag3-281-3/96164 -- energy: -2.165725
# Creation time: Sat Jun  5 12:53:27 2010


@<TRIPOS>MOLECULE
frag3-281-3/96164 -- energy: -2.165725
   27    26     1     1     1
SMALL
USER_CHARGES


@<TRIPOS>ATOM
      1 C4         -3.5365   -1.2097    0.4340 C.2        1 <1>        0.000
      2 C6         -2.1112   -0.9398    0.2822 C.2        1 <1>        0.000
      3 O3         -4.4882   -0.4674    0.2688 O.2        1 <1>        0.000
      4 C8         -1.6496    0.2490   -0.1207 C.2        1 <1>        0.000
      5 C11        -0.2959    0.6413   -0.3139 C.2        1 <1>        0.000
      6 C12         0.2841    1.7217   -0.8441 C.2        1 <1>        0.000
      7 O6          3.7608   -3.1386    0.3021 O.3        1 <1>        0.000
      8 C13         1.6891    1.9480   -1.0007 C.2        1 <1>        0.000
      9 C14         2.5531    1.0764   -1.5327 C.2        1 <1>        0.000
     10 C15         2.4256   -0.2432   -2.0945 C.2        1 <1>        0.000
     11 C16         3.2751   -1.2536   -1.8756 C.2        1 <1>        0.000
     12 C18         4.4565   -1.3273   -1.0665 C.2        1 <1>        0.000
     13 C19         4.6283   -2.1381    0.1467 C.2        1 <1>        0.000
     14 C20         5.5489   -0.5622   -1.2304 C.2        1 <1>        0.000
     15 O7          5.4833   -1.9298    0.9955 O.2        1 <1>        0.000
     16 H          -3.7870   -2.2253    0.7404 H.spc      1 <1>        0.000
     17 H          -1.3982   -1.7337    0.5046 H.spc      1 <1>        0.000
     18 H          -2.4024    1.0101   -0.3261 H.spc      1 <1>        0.000
     19 H           0.4204   -0.0965    0.0475 H.spc      1 <1>        0.000
     20 H          -0.3805    2.5119   -1.1933 H.spc      1 <1>        0.000
     21 H           3.1631   -3.1619   -0.4488 H.spc      1 <1>        0.000
     22 H           2.0854    2.9046   -0.6600 H.spc      1 <1>        0.000
     23 H           3.5784    1.4461   -1.5432 H.spc      1 <1>        0.000
     24 H           1.5733   -0.4333   -2.7469 H.spc      1 <1>        0.000
     25 H           3.0272   -2.1760   -2.4008 H.spc      1 <1>        0.000
     26 H           5.5787    0.1818   -2.0264 H.spc      1 <1>        0.000
     27 H           6.4052   -0.6856   -0.5674 H.spc      1 <1>        0.000
@<TRIPOS>BOND
     1    1    2 1  
     2   13   15 2  
     3    9   10 1  
     4    2    4 2  
     5   10   11 2  
     6    6    8 1  
     7    1    3 2  
     8    8    9 2  
     9   12   14 2  
    10    4    5 1  
    11    5    6 2  
    12   11   12 1  
    13   12   13 1  
    14   13    7 1  
    15    1   16 1  
    16    2   17 1  
    17    4   18 1  
    18    5   19 1  
    19    6   20 1  
    20    7   21 1  
    21    8   22 1  
    22    9   23 1  
    23   10   24 1  
    24   11   25 1  
    25   14   26 1  
    26   14   27 1  
# Name:          frag3-281-3/96164 -- energy: -2.030496
# Creation time: Sat Jun  5 12:53:27 2010


@<TRIPOS>MOLECULE
frag3-281-3/96164 -- energy: -2.030496
   27    26     1     1     1
SMALL
USER_CHARGES


@<TRIPOS>ATOM
      1 C4         -3.8308   -0.0855    0.7704 C.2        1 <1>        0.000
      2 C6         -2.4883    0.1129    0.2385 C.2        1 <1>        0.000
      3 O3         -4.1676    0.0876    1.9357 O.2        1 <1>        0.000
      4 C8         -2.0944   -0.1061   -1.0230 C.2        1 <1>        0.000
      5 C11        -0.7825    0.0837   -1.5346 C.2        1 <1>        0.000
      6 C12         0.1029    1.0512   -1.2777 C.2        1 <1>        0.000
      7 O6          4.4057   -1.5459    1.4378 O.3        1 <1>        0.000
      8 C13         1.4340    1.1987   -1.7655 C.2        1 <1>        0.000
      9 C14         2.2974    0.1835   -1.8474 C.2        1 <1>        0.000
     10 C15         2.2289   -1.2221   -1.5480 C.2        1 <1>        0.000
     11 C16         3.2455   -1.9892   -1.1592 C.2        1 <1>        0.000
     12 C18         4.6075   -1.6315   -0.9368 C.2        1 <1>        0.000
     13 C19         5.2110   -1.3769    0.3906 C.2        1 <1>        0.000
     14 C20         5.4860   -1.3135   -1.8940 C.2        1 <1>        0.000
     15 O7          6.3681   -1.0203    0.5635 O.2        1 <1>        0.000
     16 H          -4.6002   -0.4158    0.0725 H.spc      1 <1>        0.000
     17 H          -1.7315    0.4745    0.9347 H.spc      1 <1>        0.000
     18 H          -2.8507   -0.4631   -1.7220 H.spc      1 <1>        0.000
     19 H          -0.4479   -0.6738   -2.2433 H.spc      1 <1>        0.000
     20 H          -0.2400    1.8351   -0.6024 H.spc      1 <1>        0.000
     21 H           3.5394   -1.8248    1.1322 H.spc      1 <1>        0.000
     22 H           1.7627    2.1870   -2.0869 H.spc      1 <1>        0.000
     23 H           3.2731    0.4879   -2.2261 H.spc      1 <1>        0.000
     24 H           1.2559   -1.7030   -1.6486 H.spc      1 <1>        0.000
     25 H           3.0022   -3.0376   -0.9868 H.spc      1 <1>        0.000
     26 H           5.1775   -1.3156   -2.9394 H.spc      1 <1>        0.000
     27 H           6.5104   -1.0522   -1.6286 H.spc      1 <1>        0.000
@<TRIPOS>BOND
     1    1    2 1  
     2   13   15 2  
     3    9   10 1  
     4    2    4 2  
     5   10   11 2  
     6    6    8 1  
     7    1    3 2  
     8    8    9 2  
     9   12   14 2  
    10    4    5 1  
    11    5    6 2  
    12   11   12 1  
    13   12   13 1  
    14   13    7 1  
    15    1   16 1  
    16    2   17 1  
    17    4   18 1  
    18    5   19 1  
    19    6   20 1  
    20    7   21 1  
    21    8   22 1  
    22    9   23 1  
    23   10   24 1  
    24   11   25 1  
    25   14   26 1  
    26   14   27 1  
# Name:          frag3-281-3/96164 -- energy: -2.305471
# Creation time: Sat Jun  5 12:53:27 2010


@<TRIPOS>MOLECULE
frag3-281-3/96164 -- energy: -2.305471
   27    26     1     1     1
SMALL
USER_CHARGES


@<TRIPOS>ATOM
      1 C4         -3.5542   -0.5312    0.4502 C.2        1 <1>        0.000
      2 C6         -2.1140   -0.3842    0.2265 C.2        1 <1>        0.000
      3 O3         -4.1132   -1.4956    0.9506 O.2        1 <1>        0.000
      4 C8         -1.5161    0.6717   -0.3424 C.2        1 <1>        0.000
      5 C11        -0.1163    0.8340   -0.5597 C.2        1 <1>        0.000
      6 C12         0.6523    1.7930   -1.0927 C.2        1 <1>        0.000
      7 O6          3.0901   -1.3052    0.9278 O.3        1 <1>        0.000
      8 C13         2.0734    1.7731   -1.2734 C.2        1 <1>        0.000
      9 C14         2.7925    0.7396   -1.7417 C.2        1 <1>        0.000
     10 C15         2.4427   -0.5748   -2.2196 C.2        1 <1>        0.000
     11 C16         3.1116   -1.6968   -1.9282 C.2        1 <1>        0.000
     12 C18         4.2549   -1.8506   -1.0682 C.2        1 <1>        0.000
     13 C19         4.2650   -1.6574    0.3959 C.2        1 <1>        0.000
     14 C20         5.5162   -2.0698   -1.4847 C.2        1 <1>        0.000
     15 O7          5.2385   -1.8189    1.1100 O.2        1 <1>        0.000
     16 H          -4.1881    0.2996    0.1405 H.spc      1 <1>        0.000
     17 H          -1.4734   -1.2043    0.5507 H.spc      1 <1>        0.000
     18 H          -2.1627    1.4854   -0.6709 H.spc      1 <1>        0.000
     19 H           0.4631   -0.0209   -0.2111 H.spc      1 <1>        0.000
     20 H           0.1366    2.6929   -1.4278 H.spc      1 <1>        0.000
     21 H           2.4364   -1.2214    0.2298 H.spc      1 <1>        0.000
     22 H           2.6201    2.6777   -1.0070 H.spc      1 <1>        0.000
     23 H           3.8644    0.9358   -1.7653 H.spc      1 <1>        0.000
     24 H           1.5692   -0.6611   -2.8658 H.spc      1 <1>        0.000
     25 H           2.7445   -2.6076   -2.4013 H.spc      1 <1>        0.000
     26 H           5.7332   -2.1436   -2.5503 H.spc      1 <1>        0.000
     27 H           6.3204   -2.1735   -0.7563 H.spc      1 <1>        0.000
@<TRIPOS>BOND
     1    1    2 1  
     2   13   15 2  
     3    9   10 1  
     4    2    4 2  
     5   10   11 2  
     6    6    8 1  
     7    1    3 2  
     8    8    9 2  
     9   12   14 2  
    10    4    5 1  
    11    5    6 2  
    12   11   12 1  
    13   12   13 1  
    14   13    7 1  
    15    1   16 1  
    16    2   17 1  
    17    4   18 1  
    18    5   19 1  
    19    6   20 1  
    20    7   21 1  
    21    8   22 1  
    22    9   23 1  
    23   10   24 1  
    24   11   25 1  
    25   14   26 1  
    26   14   27 1  
# Name:          frag3-281-3/96164 -- energy: -3.034774
# Creation time: Sat Jun  5 12:53:27 2010


@<TRIPOS>MOLECULE
frag3-281-3/96164 -- energy: -3.034774
   27    26     1     1     1
SMALL
USER_CHARGES


@<TRIPOS>ATOM
      1 C4         -4.2992    0.1767   -0.5442 C.2        1 <1>        0.000
      2 C6         -2.8644    0.4481   -0.5161 C.2        1 <1>        0.000
      3 O3         -5.1885    0.9884   -0.3213 O.2        1 <1>        0.000
      4 C8         -1.8864   -0.4383   -0.7304 C.2        1 <1>        0.000
      5 C11        -0.4878   -0.1904   -0.7115 C.2        1 <1>        0.000
      6 C12         0.2065    0.6134    0.1057 C.2        1 <1>        0.000
      7 O6          4.3323   -0.9168   -2.4787 O.3        1 <1>        0.000
      8 C13         1.5996    0.8731    0.1384 C.2        1 <1>        0.000
      9 C14         2.5399   -0.0674    0.1809 C.2        1 <1>        0.000
     10 C15         2.5101   -1.5006    0.2358 C.2        1 <1>        0.000
     11 C16         3.5349   -2.3268   -0.0045 C.2        1 <1>        0.000
     12 C18         4.8510   -1.9407   -0.4034 C.2        1 <1>        0.000
     13 C19         5.1406   -0.9014   -1.4170 C.2        1 <1>        0.000
     14 C20         6.0210   -2.3359    0.1210 C.2        1 <1>        0.000
     15 O7          6.0137   -0.0545   -1.3045 O.2        1 <1>        0.000
     16 H          -4.6063   -0.8409   -0.7855 H.spc      1 <1>        0.000
     17 H          -2.5614    1.4725   -0.2994 H.spc      1 <1>        0.000
     18 H          -2.1958   -1.4617   -0.9425 H.spc      1 <1>        0.000
     19 H           0.0977   -0.7242   -1.4601 H.spc      1 <1>        0.000
     20 H          -0.3849    1.1435    0.8523 H.spc      1 <1>        0.000
     21 H           3.7134   -1.6462   -2.3977 H.spc      1 <1>        0.000
     22 H           1.9226    1.9141    0.1280 H.spc      1 <1>        0.000
     23 H           3.5513    0.3389    0.1721 H.spc      1 <1>        0.000
     24 H           1.5585   -1.9623    0.4993 H.spc      1 <1>        0.000
     25 H           3.3479   -3.3939    0.1153 H.spc      1 <1>        0.000
     26 H           6.0351   -3.0366    0.9558 H.spc      1 <1>        0.000
     27 H           6.9574   -1.9562   -0.2878 H.spc      1 <1>        0.000
@<TRIPOS>BOND
     1    1    2 1  
     2   13   15 2  
     3    9   10 1  
     4    2    4 2  
     5   10   11 2  
     6    6    8 1  
     7    1    3 2  
     8    8    9 2  
     9   12   14 2  
    10    4    5 1  
    11    5    6 2  
    12   11   12 1  
    13   12   13 1  
    14   13    7 1  
    15    1   16 1  
    16    2   17 1  
    17    4   18 1  
    18    5   19 1  
    19    6   20 1  
    20    7   21 1  
    21    8   22 1  
    22    9   23 1  
    23   10   24 1  
    24   11   25 1  
    25   14   26 1  
    26   14   27 1  
# Name:          frag3-281-3/96164 -- energy: -1.890521
# Creation time: Sat Jun  5 12:53:27 2010


@<TRIPOS>MOLECULE
frag3-281-3/96164 -- energy: -1.890521
   27    26     1     1     1
SMALL
USER_CHARGES


@<TRIPOS>ATOM
      1 C4         -4.4107    0.4948   -0.4010 C.2        1 <1>        0.000
      2 C6         -3.0089    0.7254   -0.0741 C.2        1 <1>        0.000
      3 O3         -4.9738   -0.5133   -0.7929 O.2        1 <1>        0.000
      4 C8         -2.0606   -0.1873   -0.3017 C.2        1 <1>        0.000
      5 C11        -0.6737   -0.0991   -0.0245 C.2        1 <1>        0.000
      6 C12         0.1106    0.9864   -0.0268 C.2        1 <1>        0.000
      7 O6          5.7062   -0.7328   -2.2438 O.3        1 <1>        0.000
      8 C13         1.4936    1.1057    0.2551 C.2        1 <1>        0.000
      9 C14         2.4223    0.2898   -0.2396 C.2        1 <1>        0.000
     10 C15         2.3374   -0.8312   -1.1253 C.2        1 <1>        0.000
     11 C16         3.2576   -1.7887   -1.2531 C.2        1 <1>        0.000
     12 C18         4.5103   -1.9185   -0.5812 C.2        1 <1>        0.000
     13 C19         5.7758   -1.3279   -1.0535 C.2        1 <1>        0.000
     14 C20         4.7013   -2.4291    0.6520 C.2        1 <1>        0.000
     15 O7          6.8359   -1.3476   -0.4394 O.2        1 <1>        0.000
     16 H          -5.0590    1.3619   -0.2750 H.spc      1 <1>        0.000
     17 H          -2.7240    1.6780    0.3726 H.spc      1 <1>        0.000
     18 H          -2.3962   -1.1182   -0.7587 H.spc      1 <1>        0.000
     19 H          -0.1801   -1.0388    0.2233 H.spc      1 <1>        0.000
     20 H          -0.3911    1.9191   -0.2846 H.spc      1 <1>        0.000
     21 H           4.8122   -0.8071   -2.5857 H.spc      1 <1>        0.000
     22 H           1.8160    1.9114    0.9146 H.spc      1 <1>        0.000
     23 H           3.4354    0.5180    0.0915 H.spc      1 <1>        0.000
     24 H           1.4460   -0.9092   -1.7477 H.spc      1 <1>        0.000
     25 H           3.0210   -2.5781   -1.9666 H.spc      1 <1>        0.000
     26 H           3.8507   -2.7900    1.2302 H.spc      1 <1>        0.000
     27 H           5.7063   -2.4810    1.0707 H.spc      1 <1>        0.000
@<TRIPOS>BOND
     1    1    2 1  
     2   13   15 2  
     3    9   10 1  
     4    2    4 2  
     5   10   11 2  
     6    6    8 1  
     7    1    3 2  
     8    8    9 2  
     9   12   14 2  
    10    4    5 1  
    11    5    6 2  
    12   11   12 1  
    13   12   13 1  
    14   13    7 1  
    15    1   16 1  
    16    2   17 1  
    17    4   18 1  
    18    5   19 1  
    19    6   20 1  
    20    7   21 1  
    21    8   22 1  
    22    9   23 1  
    23   10   24 1  
    24   11   25 1  
    25   14   26 1  
    26   14   27 1  
# Name:          frag3-281-3/96164 -- energy: -1.516834
# Creation time: Sat Jun  5 12:53:27 2010


@<TRIPOS>MOLECULE
frag3-281-3/96164 -- energy: -1.516834
   27    26     1     1     1
SMALL
USER_CHARGES


@<TRIPOS>ATOM
      1 C4         -4.6816    0.2085    0.3578 C.2        1 <1>        0.000
      2 C6         -3.4155    0.1093   -0.3665 C.2        1 <1>        0.000
      3 O3         -5.7740   -0.1462   -0.0610 O.2        1 <1>        0.000
      4 C8         -2.2385    0.6105    0.0294 C.2        1 <1>        0.000
      5 C11        -1.0065    0.5229   -0.6834 C.2        1 <1>        0.000
      6 C12         0.2181    1.0034   -0.4595 C.2        1 <1>        0.000
      7 O6          6.3375   -0.6511    0.4528 O.3        1 <1>        0.000
      8 C13         1.3908    0.8133   -1.2518 C.2        1 <1>        0.000
      9 C14         2.3862   -0.0328   -0.9813 C.2        1 <1>        0.000
     10 C15         2.6487   -0.9435    0.0924 C.2        1 <1>        0.000
     11 C16         3.6873   -1.7828    0.1596 C.2        1 <1>        0.000
     12 C18         4.7702   -1.9661   -0.7681 C.2        1 <1>        0.000
     13 C19         6.0796   -1.3094   -0.6755 C.2        1 <1>        0.000
     14 C20         4.7050   -2.6513   -1.9295 C.2        1 <1>        0.000
     15 O7          6.9162   -1.3579   -1.5650 O.2        1 <1>        0.000
     16 H          -4.6486    0.6365    1.3597 H.spc      1 <1>        0.000
     17 H          -3.4310   -0.4224   -1.3179 H.spc      1 <1>        0.000
     18 H          -2.2205    1.1340    0.9853 H.spc      1 <1>        0.000
     19 H          -1.0806   -0.0577   -1.6029 H.spc      1 <1>        0.000
     20 H           0.3376    1.6142    0.4354 H.spc      1 <1>        0.000
     21 H           5.5794   -0.7129    1.0385 H.spc      1 <1>        0.000
     22 H           1.4806    1.4126   -2.1578 H.spc      1 <1>        0.000
     23 H           3.1679   -0.0305   -1.7409 H.spc      1 <1>        0.000
     24 H           1.9435   -0.9532    0.9235 H.spc      1 <1>        0.000
     25 H           3.7173   -2.4190    1.0442 H.spc      1 <1>        0.000
     26 H           3.7704   -3.1239   -2.2317 H.spc      1 <1>        0.000
     27 H           5.5869   -2.7319   -2.5650 H.spc      1 <1>        0.000
@<TRIPOS>BOND
     1    1    2 1  
     2   13   15 2  
     3    9   10 1  
     4    2    4 2  
     5   10   11 2  
     6    6    8 1  
     7    1    3 2  
     8    8    9 2  
     9   12   14 2  
    10    4    5 1  
    11    5    6 2  
    12   11   12 1  
    13   12   13 1  
    14   13    7 1  
    15    1   16 1  
    16    2   17 1  
    17    4   18 1  
    18    5   19 1  
    19    6   20 1  
    20    7   21 1  
    21    8   22 1  
    22    9   23 1  
    23   10   24 1  
    24   11   25 1  
    25   14   26 1  
    26   14   27 1  
# Name:          frag3-281-3/96164 -- energy: -2.211335
# Creation time: Sat Jun  5 12:53:27 2010


@<TRIPOS>MOLECULE
frag3-281-3/96164 -- energy: -2.211335
   27    26     1     1     1
SMALL
USER_CHARGES


@<TRIPOS>ATOM
      1 C4         -2.7338   -1.6877   -0.2093 C.2        1 <1>        0.000
      2 C6         -1.4864   -0.9752   -0.4613 C.2        1 <1>        0.000
      3 O3         -3.8832   -1.2802   -0.2169 O.2        1 <1>        0.000
      4 C8         -1.4358    0.3437   -0.6789 C.2        1 <1>        0.000
      5 C11        -0.3016    1.1661   -0.9395 C.2        1 <1>        0.000
      6 C12         0.9431    1.0276   -0.4680 C.2        1 <1>        0.000
      7 O6          2.4308   -2.4632   -1.9081 O.3        1 <1>        0.000
      8 C13         2.1147    1.8103   -0.7207 C.2        1 <1>        0.000
      9 C14         3.3253    1.7199   -0.1619 C.2        1 <1>        0.000
     10 C15         3.8877    0.8342    0.8173 C.2        1 <1>        0.000
     11 C16         4.1919   -0.4388    0.5404 C.2        1 <1>        0.000
     12 C18         4.0521   -1.1848   -0.6731 C.2        1 <1>        0.000
     13 C19         3.1906   -2.3600   -0.8067 C.2        1 <1>        0.000
     14 C20         4.6258   -0.9047   -1.8546 C.2        1 <1>        0.000
     15 O7          3.1021   -3.1803    0.0916 O.2        1 <1>        0.000
     16 H          -2.6215   -2.7471    0.0212 H.spc      1 <1>        0.000
     17 H          -0.5553   -1.5418   -0.4728 H.spc      1 <1>        0.000
     18 H          -2.3949    0.8609   -0.6533 H.spc      1 <1>        0.000
     19 H          -0.4686    2.0128   -1.6053 H.spc      1 <1>        0.000
     20 H           1.0871    0.1894    0.2137 H.spc      1 <1>        0.000
     21 H           2.6320   -1.7375   -2.5034 H.spc      1 <1>        0.000
     22 H           2.0039    2.5895   -1.4748 H.spc      1 <1>        0.000
     23 H           4.0278    2.4710   -0.5230 H.spc      1 <1>        0.000
     24 H           4.0737    1.2122    1.8226 H.spc      1 <1>        0.000
     25 H           4.6149   -0.9988    1.3744 H.spc      1 <1>        0.000
     26 H           5.2723   -0.0327   -1.9534 H.spc      1 <1>        0.000
     27 H           4.4450   -1.5494   -2.7147 H.spc      1 <1>        0.000
@<TRIPOS>BOND
     1    1    2 1  
     2   13   15 2  
     3    9   10 1  
     4    2    4 2  
     5   10   11 2  
     6    6    8 1  
     7    1    3 2  
     8    8    9 2  
     9   12   14 2  
    10    4    5 1  
    11    5    6 2  
    12   11   12 1  
    13   12   13 1  
    14   13    7 1  
    15    1   16 1  
    16    2   17 1  
    17    4   18 1  
    18    5   19 1  
    19    6   20 1  
    20    7   21 1  
    21    8   22 1  
    22    9   23 1  
    23   10   24 1  
    24   11   25 1  
    25   14   26 1  
    26   14   27 1  
# Name:          frag3-281-3/96164 -- energy: -1.646785
# Creation time: Sat Jun  5 12:53:27 2010


@<TRIPOS>MOLECULE
frag3-281-3/96164 -- energy: -1.646785
   27    26     1     1     1
SMALL
USER_CHARGES


@<TRIPOS>ATOM
      1 C4         -4.4238   -0.2420    0.0011 C.2        1 <1>        0.000
      2 C6         -3.1039   -0.3646   -0.6209 C.2        1 <1>        0.000
      3 O3         -4.7836    0.5450    0.8600 O.2        1 <1>        0.000
      4 C8         -2.0837    0.4507   -0.3193 C.2        1 <1>        0.000
      5 C11        -0.7629    0.4305   -0.8442 C.2        1 <1>        0.000
      6 C12         0.3043    1.2121   -0.6531 C.2        1 <1>        0.000
      7 O6          5.3418   -0.0746    0.2263 O.3        1 <1>        0.000
      8 C13         1.5911    1.0286   -1.2374 C.2        1 <1>        0.000
      9 C14         2.4141    0.0092   -0.9866 C.2        1 <1>        0.000
     10 C15         2.3608   -1.1341   -0.1262 C.2        1 <1>        0.000
     11 C16         3.3120   -2.0650    0.0079 C.2        1 <1>        0.000
     12 C18         4.5845   -2.1181   -0.6481 C.2        1 <1>        0.000
     13 C19         5.6456   -1.0960   -0.5681 C.2        1 <1>        0.000
     14 C20         4.9266   -3.0469   -1.5617 C.2        1 <1>        0.000
     15 O7          6.7004   -1.1081   -1.1794 O.2        1 <1>        0.000
     16 H          -5.1812   -0.9437   -0.3483 H.spc      1 <1>        0.000
     17 H          -2.9446   -1.1507   -1.3590 H.spc      1 <1>        0.000
     18 H          -2.2926    1.2245    0.4194 H.spc      1 <1>        0.000
     19 H          -0.5845   -0.3867   -1.5431 H.spc      1 <1>        0.000
     20 H           0.1790    2.0680    0.0102 H.spc      1 <1>        0.000
     21 H           4.4824   -0.2263    0.6262 H.spc      1 <1>        0.000
     22 H           1.9306    1.7829   -1.9473 H.spc      1 <1>        0.000
     23 H           3.3350    0.0574   -1.5678 H.spc      1 <1>        0.000
     24 H           1.4607   -1.2575    0.4760 H.spc      1 <1>        0.000
     25 H           3.0930   -2.8797    0.6981 H.spc      1 <1>        0.000
     26 H           4.2143   -3.8223   -1.8436 H.spc      1 <1>        0.000
     27 H           5.9157   -3.0231   -2.0191 H.spc      1 <1>        0.000
@<TRIPOS>BOND
     1    1    2 1  
     2   13   15 2  
     3    9   10 1  
     4    2    4 2  
     5   10   11 2  
     6    6    8 1  
     7    1    3 2  
     8    8    9 2  
     9   12   14 2  
    10    4    5 1  
    11    5    6 2  
    12   11   12 1  
    13   12   13 1  
    14   13    7 1  
    15    1   16 1  
    16    2   17 1  
    17    4   18 1  
    18    5   19 1  
    19    6   20 1  
    20    7   21 1  
    21    8   22 1  
    22    9   23 1  
    23   10   24 1  
    24   11   25 1  
    25   14   26 1  
    26   14   27 1  
# Name:          frag3-281-3/96164 -- energy: -1.446355
# Creation time: Sat Jun  5 12:53:27 2010


@<TRIPOS>MOLECULE
frag3-281-3/96164 -- energy: -1.446355
   27    26     1     1     1
SMALL
USER_CHARGES


@<TRIPOS>ATOM
      1 C4         -4.7719    0.4182   -0.4296 C.2        1 <1>        0.000
      2 C6         -3.4421    0.7339   -0.9293 C.2        1 <1>        0.000
      3 O3         -5.1081   -0.3533    0.4509 O.2        1 <1>        0.000
      4 C8         -2.3297    0.2211   -0.3931 C.2        1 <1>        0.000
      5 C11        -0.9926    0.4757   -0.8189 C.2        1 <1>        0.000
      6 C12         0.1793    0.0391   -0.3518 C.2        1 <1>        0.000
      7 O6          5.6038   -0.8488   -2.4086 O.3        1 <1>        0.000
      8 C13         1.4809    0.3690   -0.8472 C.2        1 <1>        0.000
      9 C14         2.6651    0.0295   -0.3371 C.2        1 <1>        0.000
     10 C15         3.1176   -0.7287    0.8085 C.2        1 <1>        0.000
     11 C16         4.3201   -1.3234    0.9222 C.2        1 <1>        0.000
     12 C18         5.3424   -1.3481   -0.0863 C.2        1 <1>        0.000
     13 C19         5.0554   -1.6490   -1.4949 C.2        1 <1>        0.000
     14 C20         6.6434   -1.0783    0.0614 C.2        1 <1>        0.000
     15 O7          4.2596   -2.5302   -1.7960 O.2        1 <1>        0.000
     16 H          -5.5888    0.9516   -0.9157 H.spc      1 <1>        0.000
     17 H          -3.3491    1.4158   -1.7746 H.spc      1 <1>        0.000
     18 H          -2.4571   -0.4569    0.4508 H.spc      1 <1>        0.000
     19 H          -0.9137    1.1441   -1.6763 H.spc      1 <1>        0.000
     20 H           0.1407   -0.6419    0.4984 H.spc      1 <1>        0.000
     21 H           6.1958   -0.2292   -1.9758 H.spc      1 <1>        0.000
     22 H           1.5074    0.9729   -1.7543 H.spc      1 <1>        0.000
     23 H           3.4947    0.4183   -0.9276 H.spc      1 <1>        0.000
     24 H           2.4292   -0.8265    1.6479 H.spc      1 <1>        0.000
     25 H           4.5369   -1.8307    1.8623 H.spc      1 <1>        0.000
     26 H           7.0347   -0.8005    1.0401 H.spc      1 <1>        0.000
     27 H           7.3128   -1.1361   -0.7969 H.spc      1 <1>        0.000
@<TRIPOS>BOND
     1    1    2 1  
     2   13   15 2  
     3    9   10 1  
     4    2    4 2  
     5   10   11 2  
     6    6    8 1  
     7    1    3 2  
     8    8    9 2  
     9   12   14 2  
    10    4    5 1  
    11    5    6 2  
    12   11   12 1  
    13   12   13 1  
    14   13    7 1  
    15    1   16 1  
    16    2   17 1  
    17    4   18 1  
    18    5   19 1  
    19    6   20 1  
    20    7   21 1  
    21    8   22 1  
    22    9   23 1  
    23   10   24 1  
    24   11   25 1  
    25   14   26 1  
    26   14   27 1  
# Name:          frag3-281-3/96164 -- energy: -3.327378
# Creation time: Sat Jun  5 12:53:27 2010


@<TRIPOS>MOLECULE
frag3-281-3/96164 -- energy: -3.327378
   27    26     1     1     1
SMALL
USER_CHARGES


@<TRIPOS>ATOM
      1 C4         -3.8383   -0.6245    0.3928 C.2        1 <1>        0.000
      2 C6         -2.3997   -0.3897    0.2939 C.2        1 <1>        0.000
      3 O3         -4.3730   -1.5519    0.9790 O.2        1 <1>        0.000
      4 C8         -1.8070    0.5981   -0.3880 C.2        1 <1>        0.000
      5 C11        -0.4024    0.8368   -0.4686 C.2        1 <1>        0.000
      6 C12         0.3484    1.8087   -1.0004 C.2        1 <1>        0.000
      7 O6          5.4482   -3.1702    0.2396 O.3        1 <1>        0.000
      8 C13         1.7763    1.8905   -1.0177 C.2        1 <1>        0.000
      9 C14         2.5955    0.9076   -1.4096 C.2        1 <1>        0.000
     10 C15         2.3793   -0.4199   -1.9301 C.2        1 <1>        0.000
     11 C16         3.2398   -1.4423   -1.8279 C.2        1 <1>        0.000
     12 C18         4.5100   -1.4909   -1.1865 C.2        1 <1>        0.000
     13 C19         4.7166   -2.0616    0.1448 C.2        1 <1>        0.000
     14 C20         5.6411   -0.9116   -1.5943 C.2        1 <1>        0.000
     15 O7          4.1886   -1.5522    1.1234 O.2        1 <1>        0.000
     16 H          -4.4930    0.0932   -0.1015 H.spc      1 <1>        0.000
     17 H          -1.7481   -1.0836    0.8249 H.spc      1 <1>        0.000
     18 H          -2.4573    1.2833   -0.9318 H.spc      1 <1>        0.000
     19 H           0.1894    0.0553    0.0080 H.spc      1 <1>        0.000
     20 H          -0.1888    2.6306   -1.4737 H.spc      1 <1>        0.000
     21 H           5.7749   -3.4120   -0.6301 H.spc      1 <1>        0.000
     22 H           2.2315    2.8239   -0.6867 H.spc      1 <1>        0.000
     23 H           3.6505    1.1651   -1.3154 H.spc      1 <1>        0.000
     24 H           1.4392   -0.6070   -2.4490 H.spc      1 <1>        0.000
     25 H           2.9216   -2.3697   -2.3041 H.spc      1 <1>        0.000
     26 H           5.6524   -0.3244   -2.5126 H.spc      1 <1>        0.000
     27 H           6.5536   -1.0257   -1.0091 H.spc      1 <1>        0.000
@<TRIPOS>BOND
     1    1    2 1  
     2   13   15 2  
     3    9   10 1  
     4    2    4 2  
     5   10   11 2  
     6    6    8 1  
     7    1    3 2  
     8    8    9 2  
     9   12   14 2  
    10    4    5 1  
    11    5    6 2  
    12   11   12 1  
    13   12   13 1  
    14   13    7 1  
    15    1   16 1  
    16    2   17 1  
    17    4   18 1  
    18    5   19 1  
    19    6   20 1  
    20    7   21 1  
    21    8   22 1  
    22    9   23 1  
    23   10   24 1  
    24   11   25 1  
    25   14   26 1  
    26   14   27 1  
# Name:          frag3-281-3/96164 -- energy: -2.009797
# Creation time: Sat Jun  5 12:53:27 2010


@<TRIPOS>MOLECULE
frag3-281-3/96164 -- energy: -2.009797
   27    26     1     1     1
SMALL
USER_CHARGES


@<TRIPOS>ATOM
      1 C4         -3.9868   -0.7532   -0.0003 C.2        1 <1>        0.000
      2 C6         -2.7590   -0.1556    0.5116 C.2        1 <1>        0.000
      3 O3         -4.2004   -1.2939   -1.0710 O.2        1 <1>        0.000
      4 C8         -1.6425   -0.0568   -0.2151 C.2        1 <1>        0.000
      5 C11        -0.4071    0.5281    0.1843 C.2        1 <1>        0.000
      6 C12         0.7231    0.8182   -0.4701 C.2        1 <1>        0.000
      7 O6          6.0378   -1.7113   -0.8309 O.3        1 <1>        0.000
      8 C13         1.9195    1.4277    0.0376 C.2        1 <1>        0.000
      9 C14         3.1246    1.4994   -0.5433 C.2        1 <1>        0.000
     10 C15         3.5598    0.9573   -1.7936 C.2        1 <1>        0.000
     11 C16         3.7913   -0.3556   -1.9835 C.2        1 <1>        0.000
     12 C18         3.6977   -1.4602   -1.0544 C.2        1 <1>        0.000
     13 C19         4.8389   -2.1052   -0.3910 C.2        1 <1>        0.000
     14 C20         2.5724   -1.9848   -0.5367 C.2        1 <1>        0.000
     15 O7          4.7537   -2.9275    0.5068 O.2        1 <1>        0.000
     16 H          -4.8407   -0.7096    0.6758 H.spc      1 <1>        0.000
     17 H          -2.7520    0.2273    1.5321 H.spc      1 <1>        0.000
     18 H          -1.6813   -0.4687   -1.2235 H.spc      1 <1>        0.000
     19 H          -0.3759    0.7943    1.2408 H.spc      1 <1>        0.000
     20 H           0.7374    0.5574   -1.5283 H.spc      1 <1>        0.000
     21 H           5.9238   -1.0667   -1.5331 H.spc      1 <1>        0.000
     22 H           1.8370    1.8911    1.0207 H.spc      1 <1>        0.000
     23 H           3.8813    2.0491    0.0165 H.spc      1 <1>        0.000
     24 H           3.7110    1.6383   -2.6311 H.spc      1 <1>        0.000
     25 H           4.0965   -0.6281   -2.9938 H.spc      1 <1>        0.000
     26 H           1.6018   -1.5724   -0.8124 H.spc      1 <1>        0.000
     27 H           2.6312   -2.8222    0.1585 H.spc      1 <1>        0.000
@<TRIPOS>BOND
     1    1    2 1  
     2   13   15 2  
     3    9   10 1  
     4    2    4 2  
     5   10   11 2  
     6    6    8 1  
     7    1    3 2  
     8    8    9 2  
     9   12   14 2  
    10    4    5 1  
    11    5    6 2  
    12   11   12 1  
    13   12   13 1  
    14   13    7 1  
    15    1   16 1  
    16    2   17 1  
    17    4   18 1  
    18    5   19 1  
    19    6   20 1  
    20    7   21 1  
    21    8   22 1  
    22    9   23 1  
    23   10   24 1  
    24   11   25 1  
    25   14   26 1  
    26   14   27 1  
# Name:          frag3-281-3/96164 -- energy: -2.082765
# Creation time: Sat Jun  5 12:53:27 2010


@<TRIPOS>MOLECULE
frag3-281-3/96164 -- energy: -2.082765
   27    26     1     1     1
SMALL
USER_CHARGES


@<TRIPOS>ATOM
      1 C4         -3.7043   -0.4007    1.0062 C.2        1 <1>        0.000
      2 C6         -2.2605   -0.2907    0.7888 C.2        1 <1>        0.000
      3 O3         -4.6281    0.0906    0.3809 O.2        1 <1>        0.000
      4 C8         -1.7564    0.3095   -0.2894 C.2        1 <1>        0.000
      5 C11        -0.3851    0.5064   -0.6238 C.2        1 <1>        0.000
      6 C12         0.2548    1.1991   -1.5682 C.2        1 <1>        0.000
      7 O6          3.8260   -1.0228    1.1426 O.3        1 <1>        0.000
      8 C13         1.6693    1.2665   -1.7653 C.2        1 <1>        0.000
      9 C14         2.4826    0.2134   -1.8593 C.2        1 <1>        0.000
     10 C15         2.2889   -1.2075   -1.8086 C.2        1 <1>        0.000
     11 C16         3.1953   -2.1187   -1.4373 C.2        1 <1>        0.000
     12 C18         4.5260   -1.8886   -0.9618 C.2        1 <1>        0.000
     13 C19         4.8641   -1.2415    0.3308 C.2        1 <1>        0.000
     14 C20         5.6618   -2.0707   -1.6604 C.2        1 <1>        0.000
     15 O7          5.9889   -0.9176    0.6752 O.2        1 <1>        0.000
     16 H          -3.9978   -1.0157    1.8569 H.spc      1 <1>        0.000
     17 H          -1.5794   -0.7110    1.5287 H.spc      1 <1>        0.000
     18 H          -2.4827    0.6976   -1.0035 H.spc      1 <1>        0.000
     19 H           0.2932   -0.0287    0.0408 H.spc      1 <1>        0.000
     20 H          -0.3637    1.7716   -2.2594 H.spc      1 <1>        0.000
     21 H           3.0212   -1.3343    0.7221 H.spc      1 <1>        0.000
     22 H           2.1185    2.2564   -1.8450 H.spc      1 <1>        0.000
     23 H           3.5253    0.4945   -2.0074 H.spc      1 <1>        0.000
     24 H           1.3075   -1.5808   -2.1012 H.spc      1 <1>        0.000
     25 H           2.8834   -3.1609   -1.5049 H.spc      1 <1>        0.000
     26 H           5.6174   -2.4258   -2.6900 H.spc      1 <1>        0.000
     27 H           6.6261   -1.8631   -1.1966 H.spc      1 <1>        0.000
@<TRIPOS>BOND
     1    1    2 1  
     2   13   15 2  
     3    9   10 1  
     4    2    4 2  
     5   10   11 2  
     6    6    8 1  
     7    1    3 2  
     8    8    9 2  
     9   12   14 2  
    10    4    5 1  
    11    5    6 2  
    12   11   12 1  
    13   12   13 1  
    14   13    7 1  
    15    1   16 1  
    16    2   17 1  
    17    4   18 1  
    18    5   19 1  
    19    6   20 1  
    20    7   21 1  
    21    8   22 1  
    22    9   23 1  
    23   10   24 1  
    24   11   25 1  
    25   14   26 1  
    26   14   27 1  
# Name:          frag3-281-3/96164 -- energy: -1.946379
# Creation time: Sat Jun  5 12:53:27 2010


@<TRIPOS>MOLECULE
frag3-281-3/96164 -- energy: -1.946379
   27    26     1     1     1
SMALL
USER_CHARGES


@<TRIPOS>ATOM
      1 C4         -3.8552   -0.7338    0.3277 C.2        1 <1>        0.000
      2 C6         -2.5604   -0.0662    0.2090 C.2        1 <1>        0.000
      3 O3         -4.6435   -1.0791   -0.5362 O.2        1 <1>        0.000
      4 C8         -1.9815    0.1800   -0.9713 C.2        1 <1>        0.000
      5 C11        -0.7533    0.8439   -1.2361 C.2        1 <1>        0.000
      6 C12         0.4036    0.7617   -0.5767 C.2        1 <1>        0.000
      7 O6          6.2703   -1.6872   -0.1693 O.3        1 <1>        0.000
      8 C13         1.6452    1.4314   -0.7621 C.2        1 <1>        0.000
      9 C14         2.7927    1.2387   -0.1136 C.2        1 <1>        0.000
     10 C15         3.1381    0.3055    0.9040 C.2        1 <1>        0.000
     11 C16         3.6265   -0.9095    0.6329 C.2        1 <1>        0.000
     12 C18         3.9551   -1.5565   -0.6067 C.2        1 <1>        0.000
     13 C19         5.2988   -1.9961   -1.0299 C.2        1 <1>        0.000
     14 C20         3.1179   -1.7420   -1.6438 C.2        1 <1>        0.000
     15 O7          5.5689   -2.5641   -2.0777 O.2        1 <1>        0.000
     16 H          -4.1647   -0.9582    1.3485 H.spc      1 <1>        0.000
     17 H          -2.0460    0.2434    1.1188 H.spc      1 <1>        0.000
     18 H          -2.5242   -0.1761   -1.8469 H.spc      1 <1>        0.000
     19 H          -0.7569    1.5127   -2.0968 H.spc      1 <1>        0.000
     20 H           0.3963    0.0547    0.2529 H.spc      1 <1>        0.000
     21 H           5.8910   -1.2484    0.5957 H.spc      1 <1>        0.000
     22 H           1.6592    2.2010   -1.5339 H.spc      1 <1>        0.000
     23 H           3.6011    1.9063   -0.4117 H.spc      1 <1>        0.000
     24 H           2.9989    0.5927    1.9462 H.spc      1 <1>        0.000
     25 H           3.8090   -1.5221    1.5158 H.spc      1 <1>        0.000
     26 H           2.0892   -1.3867   -1.5840 H.spc      1 <1>        0.000
     27 H           3.4685   -2.2475   -2.5436 H.spc      1 <1>        0.000
@<TRIPOS>BOND
     1    1    2 1  
     2   13   15 2  
     3    9   10 1  
     4    2    4 2  
     5   10   11 2  
     6    6    8 1  
     7    1    3 2  
     8    8    9 2  
     9   12   14 2  
    10    4    5 1  
    11    5    6 2  
    12   11   12 1  
    13   12   13 1  
    14   13    7 1  
    15    1   16 1  
    16    2   17 1  
    17    4   18 1  
    18    5   19 1  
    19    6   20 1  
    20    7   21 1  
    21    8   22 1  
    22    9   23 1  
    23   10   24 1  
    24   11   25 1  
    25   14   26 1  
    26   14   27 1  
# Name:          frag3-281-3/96164 -- energy: -3.472440
# Creation time: Sat Jun  5 12:53:27 2010


@<TRIPOS>MOLECULE
frag3-281-3/96164 -- energy: -3.472440
   27    26     1     1     1
SMALL
USER_CHARGES


@<TRIPOS>ATOM
      1 C4         -3.1495   -1.0595   -0.4963 C.2        1 <1>        0.000
      2 C6         -1.9263   -0.4868    0.0699 C.2        1 <1>        0.000
      3 O3         -3.4721   -1.0942   -1.6700 O.2        1 <1>        0.000
      4 C8         -0.9848    0.1186   -0.6764 C.2        1 <1>        0.000
      5 C11         0.2281    0.7071   -0.1929 C.2        1 <1>        0.000
      6 C12         1.3240    1.1721   -0.8218 C.2        1 <1>        0.000
      7 O6          1.9512   -2.2137   -1.4575 O.3        1 <1>        0.000
      8 C13         2.4848    1.7152   -0.1510 C.2        1 <1>        0.000
      9 C14         3.1929    1.1465    0.8400 C.2        1 <1>        0.000
     10 C15         3.0538   -0.1369    1.4861 C.2        1 <1>        0.000
     11 C16         3.4036   -1.3062    0.9143 C.2        1 <1>        0.000
     12 C18         3.9328   -1.5261   -0.3989 C.2        1 <1>        0.000
     13 C19         3.1694   -1.7263   -1.6369 C.2        1 <1>        0.000
     14 C20         5.2385   -1.4363   -0.7049 C.2        1 <1>        0.000
     15 O7          3.5768   -1.4467   -2.7535 O.2        1 <1>        0.000
     16 H          -3.8489   -1.5041    0.2116 H.spc      1 <1>        0.000
     17 H          -1.7714   -0.5542    1.1467 H.spc      1 <1>        0.000
     18 H          -1.1619    0.1657   -1.7509 H.spc      1 <1>        0.000
     19 H           0.2725    0.7955    0.8926 H.spc      1 <1>        0.000
     20 H           1.3374    1.1369   -1.9111 H.spc      1 <1>        0.000
     21 H           1.8059   -2.3727   -0.5220 H.spc      1 <1>        0.000
     22 H           2.8232    2.6954   -0.4867 H.spc      1 <1>        0.000
     23 H           4.0110    1.7582    1.2203 H.spc      1 <1>        0.000
     24 H           2.6420   -0.1618    2.4950 H.spc      1 <1>        0.000
     25 H           3.2667   -2.1965    1.5281 H.spc      1 <1>        0.000
     26 H           5.9634   -1.1831    0.0687 H.spc      1 <1>        0.000
     27 H           5.5725   -1.6167   -1.7267 H.spc      1 <1>        0.000
@<TRIPOS>BOND
     1    1    2 1  
     2   13   15 2  
     3    9   10 1  
     4    2    4 2  
     5   10   11 2  
     6    6    8 1  
     7    1    3 2  
     8    8    9 2  
     9   12   14 2  
    10    4    5 1  
    11    5    6 2  
    12   11   12 1  
    13   12   13 1  
    14   13    7 1  
    15    1   16 1  
    16    2   17 1  
    17    4   18 1  
    18    5   19 1  
    19    6   20 1  
    20    7   21 1  
    21    8   22 1  
    22    9   23 1  
    23   10   24 1  
    24   11   25 1  
    25   14   26 1  
    26   14   27 1  
# Name:          frag3-281-3/96164 -- energy: -2.021904
# Creation time: Sat Jun  5 12:53:27 2010


@<TRIPOS>MOLECULE
frag3-281-3/96164 -- energy: -2.021904
   27    26     1     1     1
SMALL
USER_CHARGES


@<TRIPOS>ATOM
      1 C4         -4.3189   -0.1420    0.2913 C.2        1 <1>        0.000
      2 C6         -2.9874    0.1030   -0.2632 C.2        1 <1>        0.000
      3 O3         -5.3470    0.4574   -0.0040 O.2        1 <1>        0.000
      4 C8         -1.8547   -0.5414    0.0405 C.2        1 <1>        0.000
      5 C11        -0.5585   -0.3070   -0.5061 C.2        1 <1>        0.000
      6 C12        -0.0321    0.8445   -0.9489 C.2        1 <1>        0.000
      7 O6          6.3648   -0.9984    0.4577 O.3        1 <1>        0.000
      8 C13         1.2581    1.1195   -1.4880 C.2        1 <1>        0.000
      9 C14         2.3923    0.6606   -0.9622 C.2        1 <1>        0.000
     10 C15         2.6224   -0.1460    0.2007 C.2        1 <1>        0.000
     11 C16         3.4988   -1.1450    0.2579 C.2        1 <1>        0.000
     12 C18         4.4103   -1.6493   -0.7193 C.2        1 <1>        0.000
     13 C19         5.8784   -1.6164   -0.6220 C.2        1 <1>        0.000
     14 C20         4.0646   -2.1178   -1.9357 C.2        1 <1>        0.000
     15 O7          6.6323   -2.0949   -1.4484 O.2        1 <1>        0.000
     16 H          -4.4051   -0.9320    1.0374 H.spc      1 <1>        0.000
     17 H          -2.9095    0.8977   -1.0052 H.spc      1 <1>        0.000
     18 H          -1.9310   -1.3318    0.7872 H.spc      1 <1>        0.000
     19 H           0.0909   -1.1799   -0.5729 H.spc      1 <1>        0.000
     20 H          -0.6964    1.7064   -0.8865 H.spc      1 <1>        0.000
     21 H           5.6376   -0.6835    0.9996 H.spc      1 <1>        0.000
     22 H           1.3201    1.7407   -2.3815 H.spc      1 <1>        0.000
     23 H           3.2938    0.9449   -1.5050 H.spc      1 <1>        0.000
     24 H           2.0413    0.0738    1.0963 H.spc      1 <1>        0.000
     25 H           3.5260   -1.6681    1.2138 H.spc      1 <1>        0.000
     26 H           3.0172   -2.1305   -2.2374 H.spc      1 <1>        0.000
     27 H           4.8325   -2.4837   -2.6172 H.spc      1 <1>        0.000
@<TRIPOS>BOND
     1    1    2 1  
     2   13   15 2  
     3    9   10 1  
     4    2    4 2  
     5   10   11 2  
     6    6    8 1  
     7    1    3 2  
     8    8    9 2  
     9   12   14 2  
    10    4    5 1  
    11    5    6 2  
    12   11   12 1  
    13   12   13 1  
    14   13    7 1  
    15    1   16 1  
    16    2   17 1  
    17    4   18 1  
    18    5   19 1  
    19    6   20 1  
    20    7   21 1  
    21    8   22 1  
    22    9   23 1  
    23   10   24 1  
    24   11   25 1  
    25   14   26 1  
    26   14   27 1  
# Name:          frag3-281-3/96164 -- energy: -2.183667
# Creation time: Sat Jun  5 12:53:27 2010


@<TRIPOS>MOLECULE
frag3-281-3/96164 -- energy: -2.183667
   27    26     1     1     1
SMALL
USER_CHARGES


@<TRIPOS>ATOM
      1 C4         -3.8909   -0.4838   -1.0141 C.2        1 <1>        0.000
      2 C6         -2.5760    0.1487   -1.0689 C.2        1 <1>        0.000
      3 O3         -4.3938   -1.0963   -0.0879 O.2        1 <1>        0.000
      4 C8         -1.6915    0.0705   -0.0625 C.2        1 <1>        0.000
      5 C11        -0.3892    0.6550   -0.0025 C.2        1 <1>        0.000
      6 C12         0.6317    0.5737    0.8665 C.2        1 <1>        0.000
      7 O6          5.8077   -1.3194   -1.9902 O.3        1 <1>        0.000
      8 C13         1.9033    1.2288    0.7260 C.2        1 <1>        0.000
      9 C14         2.6982    1.1372   -0.3498 C.2        1 <1>        0.000
     10 C15         2.5221    0.3688   -1.5443 C.2        1 <1>        0.000
     11 C16         3.0097   -0.8651   -1.7104 C.2        1 <1>        0.000
     12 C18         3.8129   -1.6494   -0.8185 C.2        1 <1>        0.000
     13 C19         5.2732   -1.7869   -0.8616 C.2        1 <1>        0.000
     14 C20         3.3298   -2.2987    0.2486 C.2        1 <1>        0.000
     15 O7          5.9759   -2.2564    0.0198 O.2        1 <1>        0.000
     16 H          -4.4992   -0.3974   -1.9145 H.spc      1 <1>        0.000
     17 H          -2.3015    0.7072   -1.9638 H.spc      1 <1>        0.000
     18 H          -2.0025   -0.5051    0.8093 H.spc      1 <1>        0.000
     19 H          -0.1778    1.3107   -0.8472 H.spc      1 <1>        0.000
     20 H           0.4832   -0.0415    1.7539 H.spc      1 <1>        0.000
     21 H           5.1095   -0.9922   -2.5621 H.spc      1 <1>        0.000
     22 H           2.2470    1.8461    1.5560 H.spc      1 <1>        0.000
     23 H           3.6096    1.7337   -0.3088 H.spc      1 <1>        0.000
     24 H           1.9591    0.8143   -2.3644 H.spc      1 <1>        0.000
     25 H           2.7613   -1.3424   -2.6583 H.spc      1 <1>        0.000
     26 H           2.2662   -2.2486    0.4815 H.spc      1 <1>        0.000
     27 H           4.0003   -2.8772    0.8841 H.spc      1 <1>        0.000
@<TRIPOS>BOND
     1    1    2 1  
     2   13   15 2  
     3    9   10 1  
     4    2    4 2  
     5   10   11 2  
     6    6    8 1  
     7    1    3 2  
     8    8    9 2  
     9   12   14 2  
    10    4    5 1  
    11    5    6 2  
    12   11   12 1  
    13   12   13 1  
    14   13    7 1  
    15    1   16 1  
    16    2   17 1  
    17    4   18 1  
    18    5   19 1  
    19    6   20 1  
    20    7   21 1  
    21    8   22 1  
    22    9   23 1  
    23   10   24 1  
    24   11   25 1  
    25   14   26 1  
    26   14   27 1  
# Name:          frag3-281-3/96164 -- energy: -1.615615
# Creation time: Sat Jun  5 12:53:27 2010


@<TRIPOS>MOLECULE
frag3-281-3/96164 -- energy: -1.615615
   27    26     1     1     1
SMALL
USER_CHARGES


@<TRIPOS>ATOM
      1 C4         -4.2815   -0.1105   -0.0139 C.2        1 <1>        0.000
      2 C6         -2.8787    0.0604   -0.3892 C.2        1 <1>        0.000
      3 O3         -4.8258   -1.1725    0.2613 O.2        1 <1>        0.000
      4 C8         -2.2623    1.2205   -0.6565 C.2        1 <1>        0.000
      5 C11        -0.8993    1.4083   -1.0253 C.2        1 <1>        0.000
      6 C12         0.1904    0.8633   -0.4787 C.2        1 <1>        0.000
      7 O6          5.8428   -0.3270   -0.0635 O.3        1 <1>        0.000
      8 C13         1.5642    0.9825   -0.8296 C.2        1 <1>        0.000
      9 C14         2.5873    0.2614   -0.3820 C.2        1 <1>        0.000
     10 C15         2.6958   -0.8200    0.5527 C.2        1 <1>        0.000
     11 C16         3.5026   -1.8805    0.4105 C.2        1 <1>        0.000
     12 C18         4.4313   -2.1467   -0.6446 C.2        1 <1>        0.000
     13 C19         5.6387   -1.3288   -0.9270 C.2        1 <1>        0.000
     14 C20         4.3068   -3.0745   -1.6148 C.2        1 <1>        0.000
     15 O7          6.4109   -1.5091   -1.8491 O.2        1 <1>        0.000
     16 H          -4.8979    0.7876    0.0244 H.spc      1 <1>        0.000
     17 H          -2.2748   -0.8443   -0.4584 H.spc      1 <1>        0.000
     18 H          -2.8724    2.1208   -0.5834 H.spc      1 <1>        0.000
     19 H          -0.7230    2.0843   -1.8619 H.spc      1 <1>        0.000
     20 H          -0.0051    0.2199    0.3792 H.spc      1 <1>        0.000
     21 H           5.1456   -0.3278    0.5964 H.spc      1 <1>        0.000
     22 H           1.8073    1.7600   -1.5538 H.spc      1 <1>        0.000
     23 H           3.5434    0.5534   -0.8164 H.spc      1 <1>        0.000
     24 H           2.0747   -0.7764    1.4474 H.spc      1 <1>        0.000
     25 H           3.4440   -2.6337    1.1962 H.spc      1 <1>        0.000
     26 H           3.4261   -3.7160   -1.6456 H.spc      1 <1>        0.000
     27 H           5.0868   -3.1831   -2.3684 H.spc      1 <1>        0.000
@<TRIPOS>BOND
     1    1    2 1  
     2   13   15 2  
     3    9   10 1  
     4    2    4 2  
     5   10   11 2  
     6    6    8 1  
     7    1    3 2  
     8    8    9 2  
     9   12   14 2  
    10    4    5 1  
    11    5    6 2  
    12   11   12 1  
    13   12   13 1  
    14   13    7 1  
    15    1   16 1  
    16    2   17 1  
    17    4   18 1  
    18    5   19 1  
    19    6   20 1  
    20    7   21 1  
    21    8   22 1  
    22    9   23 1  
    23   10   24 1  
    24   11   25 1  
    25   14   26 1  
    26   14   27 1  
# Name:          frag3-281-3/96164 -- energy: -2.793273
# Creation time: Sat Jun  5 12:53:27 2010


@<TRIPOS>MOLECULE
frag3-281-3/96164 -- energy: -2.793273
   27    26     1     1     1
SMALL
USER_CHARGES


@<TRIPOS>ATOM
      1 C4         -3.3483   -1.1185   -0.4156 C.2        1 <1>        0.000
      2 C6         -2.1166   -0.3522   -0.5801 C.2        1 <1>        0.000
      3 O3         -4.1498   -1.3875   -1.2990 O.2        1 <1>        0.000
      4 C8         -1.2442   -0.0456    0.3841 C.2        1 <1>        0.000
      5 C11        -0.0395    0.7087    0.3067 C.2        1 <1>        0.000
      6 C12         0.7194    1.0121   -0.7519 C.2        1 <1>        0.000
      7 O6          2.6362   -2.8541   -0.6087 O.3        1 <1>        0.000
      8 C13         1.9094    1.7841   -0.8605 C.2        1 <1>        0.000
      9 C14         3.0160    1.6267   -0.1320 C.2        1 <1>        0.000
     10 C15         3.3259    0.6842    0.8934 C.2        1 <1>        0.000
     11 C16         3.8616   -0.5161    0.6547 C.2        1 <1>        0.000
     12 C18         4.2728   -1.1493   -0.5615 C.2        1 <1>        0.000
     13 C19         3.7520   -2.3896   -1.1736 C.2        1 <1>        0.000
     14 C20         5.1833   -0.5972   -1.3810 C.2        1 <1>        0.000
     15 O7          4.2451   -2.9789   -2.1246 O.2        1 <1>        0.000
     16 H          -3.5740   -1.4842    0.5861 H.spc      1 <1>        0.000
     17 H          -1.8871    0.0034   -1.5846 H.spc      1 <1>        0.000
     18 H          -1.4908   -0.4289    1.3743 H.spc      1 <1>        0.000
     19 H           0.3205    1.0999    1.2583 H.spc      1 <1>        0.000
     20 H           0.3647    0.5958   -1.6948 H.spc      1 <1>        0.000
     21 H           2.3840   -2.2801    0.1183 H.spc      1 <1>        0.000
     22 H           1.9179    2.5775   -1.6079 H.spc      1 <1>        0.000
     23 H           3.8142    2.3341   -0.3571 H.spc      1 <1>        0.000
     24 H           3.1142    0.9582    1.9269 H.spc      1 <1>        0.000
     25 H           4.0129   -1.1230    1.5474 H.spc      1 <1>        0.000
     26 H           5.6335    0.3626   -1.1277 H.spc      1 <1>        0.000
     27 H           5.4717   -1.1092   -2.2991 H.spc      1 <1>        0.000
@<TRIPOS>BOND
     1    1    2 1  
     2   13   15 2  
     3    9   10 1  
     4    2    4 2  
     5   10   11 2  
     6    6    8 1  
     7    1    3 2  
     8    8    9 2  
     9   12   14 2  
    10    4    5 1  
    11    5    6 2  
    12   11   12 1  
    13   12   13 1  
    14   13    7 1  
    15    1   16 1  
    16    2   17 1  
    17    4   18 1  
    18    5   19 1  
    19    6   20 1  
    20    7   21 1  
    21    8   22 1  
    22    9   23 1  
    23   10   24 1  
    24   11   25 1  
    25   14   26 1  
    26   14   27 1  
# Name:          frag3-281-3/96164 -- energy: -2.681805
# Creation time: Sat Jun  5 12:53:27 2010


@<TRIPOS>MOLECULE
frag3-281-3/96164 -- energy: -2.681805
   27    26     1     1     1
SMALL
USER_CHARGES


@<TRIPOS>ATOM
      1 C4         -3.8317   -0.8158   -0.4234 C.2        1 <1>        0.000
      2 C6         -2.6139   -0.0698   -0.7340 C.2        1 <1>        0.000
      3 O3         -4.9276   -0.6458   -0.9398 O.2        1 <1>        0.000
      4 C8         -1.4150   -0.2199   -0.1557 C.2        1 <1>        0.000
      5 C11        -0.2362    0.5205   -0.4685 C.2        1 <1>        0.000
      6 C12         1.0084    0.5388    0.0155 C.2        1 <1>        0.000
      7 O6          2.4720   -2.2755   -0.4555 O.3        1 <1>        0.000
      8 C13         2.1263    1.3495   -0.3709 C.2        1 <1>        0.000
      9 C14         3.3918    1.3073    0.0540 C.2        1 <1>        0.000
     10 C15         4.0826    0.4680    0.9910 C.2        1 <1>        0.000
     11 C16         4.6466   -0.7018    0.6585 C.2        1 <1>        0.000
     12 C18         4.6637   -1.3409   -0.6268 C.2        1 <1>        0.000
     13 C19         3.5076   -2.0159   -1.2599 C.2        1 <1>        0.000
     14 C20         5.6881   -1.3340   -1.4981 C.2        1 <1>        0.000
     15 O7          3.4605   -2.3382   -2.4361 O.2        1 <1>        0.000
     16 H          -3.7568   -1.5935    0.3366 H.spc      1 <1>        0.000
     17 H          -2.6889    0.6858   -1.5160 H.spc      1 <1>        0.000
     18 H          -1.3325   -0.9764    0.6247 H.spc      1 <1>        0.000
     19 H          -0.3844    1.2287   -1.2838 H.spc      1 <1>        0.000
     20 H           1.2032   -0.1665    0.8234 H.spc      1 <1>        0.000
     21 H           2.6689   -1.9604    0.4297 H.spc      1 <1>        0.000
     22 H           1.9120    2.1112   -1.1206 H.spc      1 <1>        0.000
     23 H           4.0292    2.0638   -0.4038 H.spc      1 <1>        0.000
     24 H           4.1523    0.7990    2.0272 H.spc      1 <1>        0.000
     25 H           5.1548   -1.2331    1.4632 H.spc      1 <1>        0.000
     26 H           6.6105   -0.8087   -1.2506 H.spc      1 <1>        0.000
     27 H           5.5960   -1.8538   -2.4518 H.spc      1 <1>        0.000
@<TRIPOS>BOND
     1    1    2 1  
     2   13   15 2  
     3    9   10 1  
     4    2    4 2  
     5   10   11 2  
     6    6    8 1  
     7    1    3 2  
     8    8    9 2  
     9   12   14 2  
    10    4    5 1  
    11    5    6 2  
    12   11   12 1  
    13   12   13 1  
    14   13    7 1  
    15    1   16 1  
    16    2   17 1  
    17    4   18 1  
    18    5   19 1  
    19    6   20 1  
    20    7   21 1  
    21    8   22 1  
    22    9   23 1  
    23   10   24 1  
    24   11   25 1  
    25   14   26 1  
    26   14   27 1  
# Name:          frag3-281-3/96164 -- energy: -2.484877
# Creation time: Sat Jun  5 12:53:27 2010


@<TRIPOS>MOLECULE
frag3-281-3/96164 -- energy: -2.484877
   27    26     1     1     1
SMALL
USER_CHARGES


@<TRIPOS>ATOM
      1 C4         -3.4772   -0.9096   -0.8363 C.2        1 <1>        0.000
      2 C6         -2.2437   -0.3300   -0.2973 C.2        1 <1>        0.000
      3 O3         -4.3869   -1.3974   -0.1826 O.2        1 <1>        0.000
      4 C8         -1.2455    0.1731   -1.0407 C.2        1 <1>        0.000
      5 C11        -0.0466    0.7607   -0.5199 C.2        1 <1>        0.000
      6 C12         1.0553    1.2935   -1.0688 C.2        1 <1>        0.000
      7 O6          2.7711   -2.5860   -1.6311 O.3        1 <1>        0.000
      8 C13         2.1777    1.8354   -0.3348 C.2        1 <1>        0.000
      9 C14         2.8512    1.2501    0.6692 C.2        1 <1>        0.000
     10 C15         2.7033   -0.0449    1.2755 C.2        1 <1>        0.000
     11 C16         3.3392   -1.1324    0.8141 C.2        1 <1>        0.000
     12 C18         4.2391   -1.3152   -0.2845 C.2        1 <1>        0.000
     13 C19         4.0120   -2.1070   -1.4986 C.2        1 <1>        0.000
     14 C20         5.3948   -0.6652   -0.3981 C.2        1 <1>        0.000
     15 O7          4.8794   -2.3982   -2.3160 O.2        1 <1>        0.000
     16 H          -3.5937   -0.9051   -1.9200 H.spc      1 <1>        0.000
     17 H          -2.1284   -0.3057    0.7863 H.spc      1 <1>        0.000
     18 H          -1.3554    0.1315   -2.1243 H.spc      1 <1>        0.000
     19 H          -0.0253    0.7788    0.5697 H.spc      1 <1>        0.000
     20 H           1.1093    1.3203   -2.1571 H.spc      1 <1>        0.000
     21 H           2.2254   -2.2613   -0.9111 H.spc      1 <1>        0.000
     22 H           2.5145    2.8294   -0.6292 H.spc      1 <1>        0.000
     23 H           3.6456    1.8615    1.0973 H.spc      1 <1>        0.000
     24 H           2.0503   -0.1471    2.1422 H.spc      1 <1>        0.000
     25 H           3.1334   -2.0422    1.3781 H.spc      1 <1>        0.000
     26 H           5.6967    0.0480    0.3690 H.spc      1 <1>        0.000
     27 H           6.0395   -0.8460   -1.2582 H.spc      1 <1>        0.000
@<TRIPOS>BOND
     1    1    2 1  
     2   13   15 2  
     3    9   10 1  
     4    2    4 2  
     5   10   11 2  
     6    6    8 1  
     7    1    3 2  
     8    8    9 2  
     9   12   14 2  
    10    4    5 1  
    11    5    6 2  
    12   11   12 1  
    13   12   13 1  
    14   13    7 1  
    15    1   16 1  
    16    2   17 1  
    17    4   18 1  
    18    5   19 1  
    19    6   20 1  
    20    7   21 1  
    21    8   22 1  
    22    9   23 1  
    23   10   24 1  
    24   11   25 1  
    25   14   26 1  
    26   14   27 1  
# Name:          frag3-281-3/96164 -- energy: -3.254341
# Creation time: Sat Jun  5 12:53:28 2010


@<TRIPOS>MOLECULE
frag3-281-3/96164 -- energy: -3.254341
   27    26     1     1     1
SMALL
USER_CHARGES


@<TRIPOS>ATOM
      1 C4         -3.9396    0.5527    1.1736 C.2        1 <1>        0.000
      2 C6         -2.5478    0.6915    0.7727 C.2        1 <1>        0.000
      3 O3         -4.8571   -0.0279    0.6192 O.2        1 <1>        0.000
      4 C8         -2.1000    0.2266   -0.3971 C.2        1 <1>        0.000
      5 C11        -0.7831    0.3236   -0.9097 C.2        1 <1>        0.000
      6 C12        -0.2449    0.1373   -2.1186 C.2        1 <1>        0.000
      7 O6          5.7271    0.2408    0.0085 O.3        1 <1>        0.000
      8 C13         1.1370    0.2746   -2.4496 C.2        1 <1>        0.000
      9 C14         2.1391   -0.3135   -1.7879 C.2        1 <1>        0.000
     10 C15         2.1875   -1.2029   -0.6566 C.2        1 <1>        0.000
     11 C16         3.2907   -1.7935   -0.1916 C.2        1 <1>        0.000
     12 C18         4.6399   -1.7214   -0.6486 C.2        1 <1>        0.000
     13 C19         5.7283   -1.0899    0.0644 C.2        1 <1>        0.000
     14 C20         5.1128   -2.1279   -1.8353 C.2        1 <1>        0.000
     15 O7          6.5333   -1.7431    0.7071 O.2        1 <1>        0.000
     16 H          -4.2016    1.0419    2.1117 H.spc      1 <1>        0.000
     17 H          -1.8502    1.1892    1.4463 H.spc      1 <1>        0.000
     18 H          -2.8288   -0.2839   -1.0267 H.spc      1 <1>        0.000
     19 H          -0.0510    0.6124   -0.1556 H.spc      1 <1>        0.000
     20 H          -0.9221   -0.1450   -2.9247 H.spc      1 <1>        0.000
     21 H           5.0074    0.5357   -0.5542 H.spc      1 <1>        0.000
     22 H           1.3934    0.9034   -3.3022 H.spc      1 <1>        0.000
     23 H           3.1232   -0.0690   -2.1877 H.spc      1 <1>        0.000
     24 H           1.2505   -1.4101   -0.1397 H.spc      1 <1>        0.000
     25 H           3.1355   -2.4337    0.6768 H.spc      1 <1>        0.000
     26 H           4.4378   -2.5687   -2.5689 H.spc      1 <1>        0.000
     27 H           6.1723   -2.0176   -2.0666 H.spc      1 <1>        0.000
@<TRIPOS>BOND
     1    1    2 1  
     2   13   15 2  
     3    9   10 1  
     4    2    4 2  
     5   10   11 2  
     6    6    8 1  
     7    1    3 2  
     8    8    9 2  
     9   12   14 2  
    10    4    5 1  
    11    5    6 2  
    12   11   12 1  
    13   12   13 1  
    14   13    7 1  
    15    1   16 1  
    16    2   17 1  
    17    4   18 1  
    18    5   19 1  
    19    6   20 1  
    20    7   21 1  
    21    8   22 1  
    22    9   23 1  
    23   10   24 1  
    24   11   25 1  
    25   14   26 1  
    26   14   27 1  
# Name:          frag3-281-3/96164 -- energy: -2.679363
# Creation time: Sat Jun  5 12:53:28 2010


@<TRIPOS>MOLECULE
frag3-281-3/96164 -- energy: -2.679363
   27    26     1     1     1
SMALL
USER_CHARGES


@<TRIPOS>ATOM
      1 C4         -3.5168   -0.9847   -0.4050 C.2        1 <1>        0.000
      2 C6         -2.2364   -0.3189   -0.6203 C.2        1 <1>        0.000
      3 O3         -4.6202   -0.4929   -0.6216 O.2        1 <1>        0.000
      4 C8         -1.0255   -0.7734   -0.2741 C.2        1 <1>        0.000
      5 C11         0.2284   -0.1249   -0.4799 C.2        1 <1>        0.000
      6 C12         0.5170    1.1848   -0.4307 C.2        1 <1>        0.000
      7 O6          2.9707   -2.9962   -0.5780 O.3        1 <1>        0.000
      8 C13         1.7531    1.8680   -0.6213 C.2        1 <1>        0.000
      9 C14         2.8970    1.5782    0.0017 C.2        1 <1>        0.000
     10 C15         3.2309    0.5910    0.9868 C.2        1 <1>        0.000
     11 C16         3.8779   -0.5458    0.7056 C.2        1 <1>        0.000
     12 C18         4.3739   -1.0752   -0.5262 C.2        1 <1>        0.000
     13 C19         3.9319   -2.3113   -1.2065 C.2        1 <1>        0.000
     14 C20         5.2730   -0.4543   -1.3130 C.2        1 <1>        0.000
     15 O7          4.3683   -2.7177   -2.2671 O.2        1 <1>        0.000
     16 H          -3.4912   -2.0040   -0.0196 H.spc      1 <1>        0.000
     17 H          -2.2692    0.6515   -1.1156 H.spc      1 <1>        0.000
     18 H          -0.9944   -1.7451    0.2188 H.spc      1 <1>        0.000
     19 H           1.0666   -0.7831   -0.7083 H.spc      1 <1>        0.000
     20 H          -0.3322    1.8312   -0.2089 H.spc      1 <1>        0.000
     21 H           2.7396   -2.5459    0.2377 H.spc      1 <1>        0.000
     22 H           1.7651    2.6935   -1.3330 H.spc      1 <1>        0.000
     23 H           3.7345    2.2103   -0.2935 H.spc      1 <1>        0.000
     24 H           2.9418    0.7770    2.0212 H.spc      1 <1>        0.000
     25 H           4.0594   -1.1828    1.5713 H.spc      1 <1>        0.000
     26 H           5.6712    0.5181   -1.0233 H.spc      1 <1>        0.000
     27 H           5.6027   -0.9241   -2.2397 H.spc      1 <1>        0.000
@<TRIPOS>BOND
     1    1    2 1  
     2   13   15 2  
     3    9   10 1  
     4    2    4 2  
     5   10   11 2  
     6    6    8 1  
     7    1    3 2  
     8    8    9 2  
     9   12   14 2  
    10    4    5 1  
    11    5    6 2  
    12   11   12 1  
    13   12   13 1  
    14   13    7 1  
    15    1   16 1  
    16    2   17 1  
    17    4   18 1  
    18    5   19 1  
    19    6   20 1  
    20    7   21 1  
    21    8   22 1  
    22    9   23 1  
    23   10   24 1  
    24   11   25 1  
    25   14   26 1  
    26   14   27 1  
# Name:          frag3-281-3/96164 -- energy: -1.908761
# Creation time: Sat Jun  5 12:53:28 2010


@<TRIPOS>MOLECULE
frag3-281-3/96164 -- energy: -1.908761
   27    26     1     1     1
SMALL
USER_CHARGES


@<TRIPOS>ATOM
      1 C4         -4.6445    0.3389    0.5512 C.2        1 <1>        0.000
      2 C6         -3.5110   -0.0721   -0.2744 C.2        1 <1>        0.000
      3 O3         -4.8028    1.3666    1.1928 O.2        1 <1>        0.000
      4 C8         -2.4882    0.7583   -0.5040 C.2        1 <1>        0.000
      5 C11        -1.3257    0.5209   -1.2928 C.2        1 <1>        0.000
      6 C12        -0.1641   -0.0195   -0.9581 C.2        1 <1>        0.000
      7 O6          5.9273   -0.1534    0.8557 O.3        1 <1>        0.000
      8 C13         0.9755   -0.3104   -1.7439 C.2        1 <1>        0.000
      9 C14         2.0637   -1.0001   -1.4170 C.2        1 <1>        0.000
     10 C15         2.5450   -1.6610   -0.2513 C.2        1 <1>        0.000
     11 C16         3.8216   -1.9551    0.0117 C.2        1 <1>        0.000
     12 C18         5.0205   -1.6921   -0.7169 C.2        1 <1>        0.000
     13 C19         6.1550   -0.8525   -0.2685 C.2        1 <1>        0.000
     14 C20         5.2286   -2.1106   -1.9774 C.2        1 <1>        0.000
     15 O7          7.2225   -0.7313   -0.8565 O.2        1 <1>        0.000
     16 H          -5.4674   -0.3741    0.6020 H.spc      1 <1>        0.000
     17 H          -3.4990   -1.0712   -0.7099 H.spc      1 <1>        0.000
     18 H          -2.5517    1.7374   -0.0292 H.spc      1 <1>        0.000
     19 H          -1.4049    0.8328   -2.3342 H.spc      1 <1>        0.000
     20 H          -0.0708   -0.2834    0.0954 H.spc      1 <1>        0.000
     21 H           5.0513   -0.3614    1.1887 H.spc      1 <1>        0.000
     22 H           0.9590    0.0863   -2.7590 H.spc      1 <1>        0.000
     23 H           2.7625   -1.0797   -2.2497 H.spc      1 <1>        0.000
     24 H           1.8052   -1.9535    0.4939 H.spc      1 <1>        0.000
     25 H           3.9746   -2.4907    0.9486 H.spc      1 <1>        0.000
     26 H           4.4592   -2.6829   -2.4957 H.spc      1 <1>        0.000
     27 H           6.1667   -1.8776   -2.4811 H.spc      1 <1>        0.000
@<TRIPOS>BOND
     1    1    2 1  
     2   13   15 2  
     3    9   10 1  
     4    2    4 2  
     5   10   11 2  
     6    6    8 1  
     7    1    3 2  
     8    8    9 2  
     9   12   14 2  
    10    4    5 1  
    11    5    6 2  
    12   11   12 1  
    13   12   13 1  
    14   13    7 1  
    15    1   16 1  
    16    2   17 1  
    17    4   18 1  
    18    5   19 1  
    19    6   20 1  
    20    7   21 1  
    21    8   22 1  
    22    9   23 1  
    23   10   24 1  
    24   11   25 1  
    25   14   26 1  
    26   14   27 1  
# Name:          frag3-281-3/96164 -- energy: -1.375350
# Creation time: Sat Jun  5 12:53:28 2010


@<TRIPOS>MOLECULE
frag3-281-3/96164 -- energy: -1.375350
   27    26     1     1     1
SMALL
USER_CHARGES


@<TRIPOS>ATOM
      1 C4         -4.7317    0.0502   -0.1618 C.2        1 <1>        0.000
      2 C6         -3.3990    0.4302   -0.6346 C.2        1 <1>        0.000
      3 O3         -5.8042    0.3723   -0.6547 O.2        1 <1>        0.000
      4 C8         -2.2400    0.0936   -0.0510 C.2        1 <1>        0.000
      5 C11        -0.9406    0.4659   -0.5112 C.2        1 <1>        0.000
      6 C12         0.2997    0.1402   -0.1432 C.2        1 <1>        0.000
      7 O6          6.0673   -0.0531   -0.7274 O.3        1 <1>        0.000
      8 C13         1.5472    0.5980   -0.6819 C.2        1 <1>        0.000
      9 C14         2.7736    0.3112   -0.2460 C.2        1 <1>        0.000
     10 C15         3.2288   -0.5167    0.8313 C.2        1 <1>        0.000
     11 C16         4.0830   -1.5387    0.6829 C.2        1 <1>        0.000
     12 C18         4.7227   -1.9914   -0.5301 C.2        1 <1>        0.000
     13 C19         5.7222   -1.2164   -1.2877 C.2        1 <1>        0.000
     14 C20         4.4609   -3.1312   -1.2009 C.2        1 <1>        0.000
     15 O7          6.2334   -1.5872   -2.3335 O.2        1 <1>        0.000
     16 H          -4.7726   -0.5864    0.7220 H.spc      1 <1>        0.000
     17 H          -3.3447    1.0383   -1.5376 H.spc      1 <1>        0.000
     18 H          -2.2941   -0.5158    0.8511 H.spc      1 <1>        0.000
     19 H          -0.9680    1.1687   -1.3439 H.spc      1 <1>        0.000
     20 H           0.3750   -0.5711    0.6793 H.spc      1 <1>        0.000
     21 H           5.5671    0.0716    0.0825 H.spc      1 <1>        0.000
     22 H           1.4854    1.2568   -1.5481 H.spc      1 <1>        0.000
     23 H           3.5730    0.7923   -0.8096 H.spc      1 <1>        0.000
     24 H           2.8574   -0.3020    1.8333 H.spc      1 <1>        0.000
     25 H           4.3243   -2.0961    1.5880 H.spc      1 <1>        0.000
     26 H           3.6975   -3.8169   -0.8332 H.spc      1 <1>        0.000
     27 H           5.0126   -3.3670   -2.1109 H.spc      1 <1>        0.000
@<TRIPOS>BOND
     1    1    2 1  
     2   13   15 2  
     3    9   10 1  
     4    2    4 2  
     5   10   11 2  
     6    6    8 1  
     7    1    3 2  
     8    8    9 2  
     9   12   14 2  
    10    4    5 1  
    11    5    6 2  
    12   11   12 1  
    13   12   13 1  
    14   13    7 1  
    15    1   16 1  
    16    2   17 1  
    17    4   18 1  
    18    5   19 1  
    19    6   20 1  
    20    7   21 1  
    21    8   22 1  
    22    9   23 1  
    23   10   24 1  
    24   11   25 1  
    25   14   26 1  
    26   14   27 1  
# Name:          frag3-281-3/96164 -- energy: -2.129411
# Creation time: Sat Jun  5 12:53:28 2010


@<TRIPOS>MOLECULE
frag3-281-3/96164 -- energy: -2.129411
   27    26     1     1     1
SMALL
USER_CHARGES


@<TRIPOS>ATOM
      1 C4         -3.8795   -0.5132   -0.9401 C.2        1 <1>        0.000
      2 C6         -2.5685   -0.2654   -0.3429 C.2        1 <1>        0.000
      3 O3         -4.6744   -1.3759   -0.5953 O.2        1 <1>        0.000
      4 C8         -1.6647    0.6057   -0.8152 C.2        1 <1>        0.000
      5 C11        -0.3920    0.8742   -0.2325 C.2        1 <1>        0.000
      6 C12         0.6847    1.5876   -0.5880 C.2        1 <1>        0.000
      7 O6          3.8321   -2.5658   -2.3082 O.3        1 <1>        0.000
      8 C13         1.9127    1.7002    0.1527 C.2        1 <1>        0.000
      9 C14         2.5800    0.6975    0.7465 C.2        1 <1>        0.000
     10 C15         2.3580   -0.7213    0.8308 C.2        1 <1>        0.000
     11 C16         3.2093   -1.6451    0.3722 C.2        1 <1>        0.000
     12 C18         4.4646   -1.5068   -0.2888 C.2        1 <1>        0.000
     13 C19         4.7955   -1.8999   -1.6687 C.2        1 <1>        0.000
     14 C20         5.5184   -0.8944    0.2670 C.2        1 <1>        0.000
     15 O7          5.8471   -1.6508   -2.2389 O.2        1 <1>        0.000
     16 H          -4.1756    0.1301   -1.7687 H.spc      1 <1>        0.000
     17 H          -2.3062   -0.8300    0.5519 H.spc      1 <1>        0.000
     18 H          -1.9253    1.1542   -1.7204 H.spc      1 <1>        0.000
     19 H          -0.2644    0.3820    0.7317 H.spc      1 <1>        0.000
     20 H           0.6245    2.1352   -1.5286 H.spc      1 <1>        0.000
     21 H           3.0793   -2.6775   -1.7231 H.spc      1 <1>        0.000
     22 H           2.3439    2.6974    0.2406 H.spc      1 <1>        0.000
     23 H           3.4753    1.0269    1.2738 H.spc      1 <1>        0.000
     24 H           1.4359   -1.0658    1.2989 H.spc      1 <1>        0.000
     25 H           2.8901   -2.6753    0.5302 H.spc      1 <1>        0.000
     26 H           5.4382   -0.4741    1.2695 H.spc      1 <1>        0.000
     27 H           6.4561   -0.8164   -0.2833 H.spc      1 <1>        0.000
@<TRIPOS>BOND
     1    1    2 1  
     2   13   15 2  
     3    9   10 1  
     4    2    4 2  
     5   10   11 2  
     6    6    8 1  
     7    1    3 2  
     8    8    9 2  
     9   12   14 2  
    10    4    5 1  
    11    5    6 2  
    12   11   12 1  
    13   12   13 1  
    14   13    7 1  
    15    1   16 1  
    16    2   17 1  
    17    4   18 1  
    18    5   19 1  
    19    6   20 1  
    20    7   21 1  
    21    8   22 1  
    22    9   23 1  
    23   10   24 1  
    24   11   25 1  
    25   14   26 1  
    26   14   27 1  
# Name:          frag3-281-3/96164 -- energy: -2.351975
# Creation time: Sat Jun  5 12:53:28 2010


@<TRIPOS>MOLECULE
frag3-281-3/96164 -- energy: -2.351975
   27    26     1     1     1
SMALL
USER_CHARGES


@<TRIPOS>ATOM
      1 C4         -3.7560   -0.8155   -0.6009 C.2        1 <1>        0.000
      2 C6         -2.4672   -0.1282   -0.6588 C.2        1 <1>        0.000
      3 O3         -4.6240   -0.7933   -1.4630 O.2        1 <1>        0.000
      4 C8         -1.5307   -0.1243    0.3010 C.2        1 <1>        0.000
      5 C11        -0.2800    0.5508    0.2536 C.2        1 <1>        0.000
      6 C12         0.7852    0.6607    1.0575 C.2        1 <1>        0.000
      7 O6          5.4975   -1.8624   -2.3286 O.3        1 <1>        0.000
      8 C13         1.9898    1.3983    0.7966 C.2        1 <1>        0.000
      9 C14         2.7030    1.3408   -0.3386 C.2        1 <1>        0.000
     10 C15         2.4740    0.5437   -1.5104 C.2        1 <1>        0.000
     11 C16         2.9555   -0.6984   -1.6418 C.2        1 <1>        0.000
     12 C18         3.7615   -1.4787   -0.7544 C.2        1 <1>        0.000
     13 C19         5.1281   -1.9629   -1.0491 C.2        1 <1>        0.000
     14 C20         3.4721   -1.8010    0.5092 C.2        1 <1>        0.000
     15 O7          5.9144   -2.4029   -0.2220 O.2        1 <1>        0.000
     16 H          -3.9631   -1.4026    0.2938 H.spc      1 <1>        0.000
     17 H          -2.2469    0.4334   -1.5666 H.spc      1 <1>        0.000
     18 H          -1.7492   -0.6934    1.2046 H.spc      1 <1>        0.000
     19 H          -0.1580    1.1213   -0.6671 H.spc      1 <1>        0.000
     20 H           0.7326    0.1348    2.0108 H.spc      1 <1>        0.000
     21 H           4.7713   -1.5020   -2.8428 H.spc      1 <1>        0.000
     22 H           2.3540    2.0579    1.5842 H.spc      1 <1>        0.000
     23 H           3.5780    1.9896   -0.3762 H.spc      1 <1>        0.000
     24 H           1.8853    0.9662   -2.3246 H.spc      1 <1>        0.000
     25 H           2.6908   -1.1951   -2.5752 H.spc      1 <1>        0.000
     26 H           2.5394   -1.4602    0.9586 H.spc      1 <1>        0.000
     27 H           4.1687   -2.4048    1.0909 H.spc      1 <1>        0.000
@<TRIPOS>BOND
     1    1    2 1  
     2   13   15 2  
     3    9   10 1  
     4    2    4 2  
     5   10   11 2  
     6    6    8 1  
     7    1    3 2  
     8    8    9 2  
     9   12   14 2  
    10    4    5 1  
    11    5    6 2  
    12   11   12 1  
    13   12   13 1  
    14   13    7 1  
    15    1   16 1  
    16    2   17 1  
    17    4   18 1  
    18    5   19 1  
    19    6   20 1  
    20    7   21 1  
    21    8   22 1  
    22    9   23 1  
    23   10   24 1  
    24   11   25 1  
    25   14   26 1  
    26   14   27 1  
# Name:          frag3-281-3/96164 -- energy: -2.805266
# Creation time: Sat Jun  5 12:53:28 2010


@<TRIPOS>MOLECULE
frag3-281-3/96164 -- energy: -2.805266
   27    26     1     1     1
SMALL
USER_CHARGES


@<TRIPOS>ATOM
      1 C4         -4.5247   -0.1957   -0.1319 C.2        1 <1>        0.000
      2 C6         -3.1140    0.1762   -0.1254 C.2        1 <1>        0.000
      3 O3         -5.0352   -1.1110    0.5041 O.2        1 <1>        0.000
      4 C8         -2.5072    1.0619   -0.9283 C.2        1 <1>        0.000
      5 C11        -1.1310    1.4297   -0.9047 C.2        1 <1>        0.000
      6 C12        -0.0728    0.6438   -0.7146 C.2        1 <1>        0.000
      7 O6          7.0273   -2.2657   -1.0030 O.3        1 <1>        0.000
      8 C13         1.3020    0.9890   -0.6464 C.2        1 <1>        0.000
      9 C14         2.3282    0.2010   -0.3666 C.2        1 <1>        0.000
     10 C15         2.4626   -1.1711   -0.0064 C.2        1 <1>        0.000
     11 C16         3.6289   -1.8314    0.0797 C.2        1 <1>        0.000
     12 C18         4.9553   -1.3712   -0.1608 C.2        1 <1>        0.000
     13 C19         5.7894   -1.8574   -1.2699 C.2        1 <1>        0.000
     14 C20         5.5721   -0.3402    0.4297 C.2        1 <1>        0.000
     15 O7          5.3423   -1.9311   -2.4050 O.2        1 <1>        0.000
     16 H          -5.1879    0.3967   -0.7623 H.spc      1 <1>        0.000
     17 H          -2.4845   -0.3204    0.6130 H.spc      1 <1>        0.000
     18 H          -3.1311    1.5511   -1.6763 H.spc      1 <1>        0.000
     19 H          -0.9174    2.4869   -1.0620 H.spc      1 <1>        0.000
     20 H          -0.2944   -0.4166   -0.5941 H.spc      1 <1>        0.000
     21 H           7.2115   -2.1362   -0.0698 H.spc      1 <1>        0.000
     22 H           1.5429    2.0325   -0.8496 H.spc      1 <1>        0.000
     23 H           3.2860    0.7181   -0.4249 H.spc      1 <1>        0.000
     24 H           1.5511   -1.7260    0.2158 H.spc      1 <1>        0.000
     25 H           3.5484   -2.8765    0.3785 H.spc      1 <1>        0.000
     26 H           5.0500    0.2472    1.1850 H.spc      1 <1>        0.000
     27 H           6.5964   -0.0881    0.1552 H.spc      1 <1>        0.000
@<TRIPOS>BOND
     1    1    2 1  
     2   13   15 2  
     3    9   10 1  
     4    2    4 2  
     5   10   11 2  
     6    6    8 1  
     7    1    3 2  
     8    8    9 2  
     9   12   14 2  
    10    4    5 1  
    11    5    6 2  
    12   11   12 1  
    13   12   13 1  
    14   13    7 1  
    15    1   16 1  
    16    2   17 1  
    17    4   18 1  
    18    5   19 1  
    19    6   20 1  
    20    7   21 1  
    21    8   22 1  
    22    9   23 1  
    23   10   24 1  
    24   11   25 1  
    25   14   26 1  
    26   14   27 1  
# Name:          frag3-281-3/96164 -- energy: -2.700907
# Creation time: Sat Jun  5 12:53:28 2010


@<TRIPOS>MOLECULE
frag3-281-3/96164 -- energy: -2.700907
   27    26     1     1     1
SMALL
USER_CHARGES


@<TRIPOS>ATOM
      1 C4         -3.6848   -0.7785   -0.5872 C.2        1 <1>        0.000
      2 C6         -2.3990   -0.1951   -0.2190 C.2        1 <1>        0.000
      3 O3         -4.5312   -1.1858    0.1957 O.2        1 <1>        0.000
      4 C8         -1.4355    0.2234   -1.0458 C.2        1 <1>        0.000
      5 C11        -0.1914    0.8061   -0.6757 C.2        1 <1>        0.000
      6 C12         0.6282    0.5044    0.3419 C.2        1 <1>        0.000
      7 O6          5.9658   -1.4250   -1.3339 O.3        1 <1>        0.000
      8 C13         1.8596    1.1286    0.7053 C.2        1 <1>        0.000
      9 C14         2.9003    1.2967   -0.1226 C.2        1 <1>        0.000
     10 C15         3.0347    0.8775   -1.4919 C.2        1 <1>        0.000
     11 C16         3.3377   -0.3870   -1.8295 C.2        1 <1>        0.000
     12 C18         3.6144   -1.5097   -0.9824 C.2        1 <1>        0.000
     13 C19         4.9734   -1.9558   -0.6145 C.2        1 <1>        0.000
     14 C20         2.7246   -2.2328   -0.2791 C.2        1 <1>        0.000
     15 O7          5.2264   -2.7403    0.2890 O.2        1 <1>        0.000
     16 H          -3.9100   -0.8580   -1.6507 H.spc      1 <1>        0.000
     17 H          -2.2024   -0.0888    0.8479 H.spc      1 <1>        0.000
     18 H          -1.6222    0.1062   -2.1133 H.spc      1 <1>        0.000
     19 H           0.1466    1.6208   -1.3161 H.spc      1 <1>        0.000
     20 H           0.3131   -0.3258    0.9741 H.spc      1 <1>        0.000
     21 H           5.5991   -0.8353   -1.9967 H.spc      1 <1>        0.000
     22 H           1.9606    1.4940    1.7273 H.spc      1 <1>        0.000
     23 H           3.7587    1.8207    0.2977 H.spc      1 <1>        0.000
     24 H           2.8854    1.6117   -2.2836 H.spc      1 <1>        0.000
     25 H           3.3790   -0.5878   -2.9000 H.spc      1 <1>        0.000
     26 H           1.6645   -1.9825   -0.3206 H.spc      1 <1>        0.000
     27 H           3.0636   -3.0691    0.3323 H.spc      1 <1>        0.000
@<TRIPOS>BOND
     1    1    2 1  
     2   13   15 2  
     3    9   10 1  
     4    2    4 2  
     5   10   11 2  
     6    6    8 1  
     7    1    3 2  
     8    8    9 2  
     9   12   14 2  
    10    4    5 1  
    11    5    6 2  
    12   11   12 1  
    13   12   13 1  
    14   13    7 1  
    15    1   16 1  
    16    2   17 1  
    17    4   18 1  
    18    5   19 1  
    19    6   20 1  
    20    7   21 1  
    21    8   22 1  
    22    9   23 1  
    23   10   24 1  
    24   11   25 1  
    25   14   26 1  
    26   14   27 1  
# Name:          frag3-281-3/96164 -- energy: -2.494925
# Creation time: Sat Jun  5 12:53:28 2010


@<TRIPOS>MOLECULE
frag3-281-3/96164 -- energy: -2.494925
   27    26     1     1     1
SMALL
USER_CHARGES


@<TRIPOS>ATOM
      1 C4         -3.6231   -0.9834   -1.1134 C.2        1 <1>        0.000
      2 C6         -2.1813   -0.7375   -1.1283 C.2        1 <1>        0.000
      3 O3         -4.5175   -0.3613   -0.5679 O.2        1 <1>        0.000
      4 C8         -1.6256    0.2606   -0.4280 C.2        1 <1>        0.000
      5 C11        -0.2521    0.6135   -0.3433 C.2        1 <1>        0.000
      6 C12         0.4312    1.5712    0.2903 C.2        1 <1>        0.000
      7 O6          3.3901   -2.6588   -2.0994 O.3        1 <1>        0.000
      8 C13         1.8452    1.7664    0.2915 C.2        1 <1>        0.000
      9 C14         2.7466    0.8294    0.6065 C.2        1 <1>        0.000
     10 C15         2.6390   -0.5392    1.0220 C.2        1 <1>        0.000
     11 C16         3.4250   -1.5419    0.6171 C.2        1 <1>        0.000
     12 C18         4.4967   -1.5155   -0.3244 C.2        1 <1>        0.000
     13 C19         4.3855   -1.8346   -1.7634 C.2        1 <1>        0.000
     14 C20         5.7392   -1.0529   -0.0831 C.2        1 <1>        0.000
     15 O7          5.1244   -1.3893   -2.6261 O.2        1 <1>        0.000
     16 H          -3.9474   -1.8580   -1.6772 H.spc      1 <1>        0.000
     17 H          -1.5402   -1.3850   -1.7265 H.spc      1 <1>        0.000
     18 H          -2.3133    0.8790    0.1488 H.spc      1 <1>        0.000
     19 H           0.3896   -0.0463   -0.9273 H.spc      1 <1>        0.000
     20 H          -0.1565    2.2824    0.8707 H.spc      1 <1>        0.000
     21 H           2.9081   -2.9153   -1.3098 H.spc      1 <1>        0.000
     22 H           2.2184    2.7525    0.0151 H.spc      1 <1>        0.000
     23 H           3.7765    1.1784    0.5319 H.spc      1 <1>        0.000
     24 H           1.8469   -0.7831    1.7300 H.spc      1 <1>        0.000
     25 H           3.2189   -2.5126    1.0680 H.spc      1 <1>        0.000
     26 H           5.9916   -0.6561    0.9002 H.spc      1 <1>        0.000
     27 H           6.4918   -1.0755   -0.8713 H.spc      1 <1>        0.000
@<TRIPOS>BOND
     1    1    2 1  
     2   13   15 2  
     3    9   10 1  
     4    2    4 2  
     5   10   11 2  
     6    6    8 1  
     7    1    3 2  
     8    8    9 2  
     9   12   14 2  
    10    4    5 1  
    11    5    6 2  
    12   11   12 1  
    13   12   13 1  
    14   13    7 1  
    15    1   16 1  
    16    2   17 1  
    17    4   18 1  
    18    5   19 1  
    19    6   20 1  
    20    7   21 1  
    21    8   22 1  
    22    9   23 1  
    23   10   24 1  
    24   11   25 1  
    25   14   26 1  
    26   14   27 1  
# Name:          frag3-281-3/96164 -- energy: -2.768966
# Creation time: Sat Jun  5 12:53:28 2010


@<TRIPOS>MOLECULE
frag3-281-3/96164 -- energy: -2.768966
   27    26     1     1     1
SMALL
USER_CHARGES


@<TRIPOS>ATOM
      1 C4         -4.1986    0.0746   -0.7316 C.2        1 <1>        0.000
      2 C6         -2.7943    0.2993   -0.3804 C.2        1 <1>        0.000
      3 O3         -5.0079   -0.5821   -0.0909 O.2        1 <1>        0.000
      4 C8         -1.9306    1.0616   -1.0661 C.2        1 <1>        0.000
      5 C11        -0.5665    1.3380   -0.7486 C.2        1 <1>        0.000
      6 C12         0.3483    0.4938   -0.2588 C.2        1 <1>        0.000
      7 O6          3.8701   -0.9161   -2.2560 O.3        1 <1>        0.000
      8 C13         1.7027    0.6699    0.1313 C.2        1 <1>        0.000
      9 C14         2.5955   -0.2446    0.5016 C.2        1 <1>        0.000
     10 C15         2.6216   -1.6668    0.6414 C.2        1 <1>        0.000
     11 C16         3.6427   -2.4385    0.2412 C.2        1 <1>        0.000
     12 C18         4.8463   -2.0237   -0.4186 C.2        1 <1>        0.000
     13 C19         4.9397   -0.9795   -1.4622 C.2        1 <1>        0.000
     14 C20         6.0836   -2.4587   -0.1512 C.2        1 <1>        0.000
     15 O7          5.8708   -0.2004   -1.6007 O.2        1 <1>        0.000
     16 H          -4.5567    0.5366   -1.6516 H.spc      1 <1>        0.000
     17 H          -2.4194   -0.1958    0.5154 H.spc      1 <1>        0.000
     18 H          -2.3157    1.5256   -1.9741 H.spc      1 <1>        0.000
     19 H          -0.2300    2.3594   -0.9266 H.spc      1 <1>        0.000
     20 H          -0.0159   -0.5261   -0.1352 H.spc      1 <1>        0.000
     21 H           3.2448   -1.5995   -2.0037 H.spc      1 <1>        0.000
     22 H           2.0612    1.6992    0.1267 H.spc      1 <1>        0.000
     23 H           3.5519    0.2064    0.7661 H.spc      1 <1>        0.000
     24 H           1.7607   -2.1528    1.1004 H.spc      1 <1>        0.000
     25 H           3.5465   -3.5057    0.4408 H.spc      1 <1>        0.000
     26 H           6.2436   -3.1982    0.6334 H.spc      1 <1>        0.000
     27 H           6.9311   -2.0735   -0.7181 H.spc      1 <1>        0.000
@<TRIPOS>BOND
     1    1    2 1  
     2   13   15 2  
     3    9   10 1  
     4    2    4 2  
     5   10   11 2  
     6    6    8 1  
     7    1    3 2  
     8    8    9 2  
     9   12   14 2  
    10    4    5 1  
    11    5    6 2  
    12   11   12 1  
    13   12   13 1  
    14   13    7 1  
    15    1   16 1  
    16    2   17 1  
    17    4   18 1  
    18    5   19 1  
    19    6   20 1  
    20    7   21 1  
    21    8   22 1  
    22    9   23 1  
    23   10   24 1  
    24   11   25 1  
    25   14   26 1  
    26   14   27 1  
# Name:          frag3-281-3/96164 -- energy: -2.206307
# Creation time: Sat Jun  5 12:53:28 2010


@<TRIPOS>MOLECULE
frag3-281-3/96164 -- energy: -2.206307
   27    26     1     1     1
SMALL
USER_CHARGES


@<TRIPOS>ATOM
      1 C4         -3.6866   -0.4275   -0.7567 C.2        1 <1>        0.000
      2 C6         -2.2277   -0.3077   -0.8040 C.2        1 <1>        0.000
      3 O3         -4.3560   -1.3334   -1.2329 O.2        1 <1>        0.000
      4 C8         -1.5091    0.7038   -0.2950 C.2        1 <1>        0.000
      5 C11        -0.0867    0.8252   -0.3041 C.2        1 <1>        0.000
      6 C12         0.7815    1.6934    0.2307 C.2        1 <1>        0.000
      7 O6          2.9738   -0.9492   -2.0551 O.3        1 <1>        0.000
      8 C13         2.2115    1.6530    0.1667 C.2        1 <1>        0.000
      9 C14         2.9664    0.6022    0.5189 C.2        1 <1>        0.000
     10 C15         2.6807   -0.7087    1.0556 C.2        1 <1>        0.000
     11 C16         3.2800   -1.8479    0.6701 C.2        1 <1>        0.000
     12 C18         4.2709   -2.0050   -0.3590 C.2        1 <1>        0.000
     13 C19         4.1716   -1.4461   -1.7283 C.2        1 <1>        0.000
     14 C20         5.4602   -2.6130   -0.2273 C.2        1 <1>        0.000
     15 O7          5.0928   -1.4122   -2.5293 O.2        1 <1>        0.000
     16 H          -4.2289    0.3689   -0.2471 H.spc      1 <1>        0.000
     17 H          -1.6782   -1.1105   -1.2957 H.spc      1 <1>        0.000
     18 H          -2.0673    1.5148    0.1727 H.spc      1 <1>        0.000
     19 H           0.4019    0.0346   -0.8736 H.spc      1 <1>        0.000
     20 H           0.3485    2.5296    0.7796 H.spc      1 <1>        0.000
     21 H           2.3714   -1.0567   -1.3154 H.spc      1 <1>        0.000
     22 H           2.7251    2.5435   -0.1956 H.spc      1 <1>        0.000
     23 H           4.0317    0.7752    0.3666 H.spc      1 <1>        0.000
     24 H           1.9202   -0.7788    1.8333 H.spc      1 <1>        0.000
     25 H           2.9812   -2.7542    1.1968 H.spc      1 <1>        0.000
     26 H           5.7484   -3.0447    0.7312 H.spc      1 <1>        0.000
     27 H           6.1378   -2.6751   -1.0788 H.spc      1 <1>        0.000
@<TRIPOS>BOND
     1    1    2 1  
     2   13   15 2  
     3    9   10 1  
     4    2    4 2  
     5   10   11 2  
     6    6    8 1  
     7    1    3 2  
     8    8    9 2  
     9   12   14 2  
    10    4    5 1  
    11    5    6 2  
    12   11   12 1  
    13   12   13 1  
    14   13    7 1  
    15    1   16 1  
    16    2   17 1  
    17    4   18 1  
    18    5   19 1  
    19    6   20 1  
    20    7   21 1  
    21    8   22 1  
    22    9   23 1  
    23   10   24 1  
    24   11   25 1  
    25   14   26 1  
    26   14   27 1  
# Name:          frag3-281-3/96164 -- energy: -2.768615
# Creation time: Sat Jun  5 12:53:28 2010


@<TRIPOS>MOLECULE
frag3-281-3/96164 -- energy: -2.768615
   27    26     1     1     1
SMALL
USER_CHARGES


@<TRIPOS>ATOM
      1 C4         -3.9795   -0.1707   -0.7748 C.2        1 <1>        0.000
      2 C6         -2.5436    0.1034   -0.7320 C.2        1 <1>        0.000
      3 O3         -4.4983   -1.2298   -1.1082 O.2        1 <1>        0.000
      4 C8         -1.9595    1.2430   -0.3314 C.2        1 <1>        0.000
      5 C11        -0.5642    1.5264   -0.2868 C.2        1 <1>        0.000
      6 C12         0.4251    0.7625    0.1879 C.2        1 <1>        0.000
      7 O6          3.3093   -1.3107   -2.2254 O.3        1 <1>        0.000
      8 C13         1.8315    0.9727    0.2332 C.2        1 <1>        0.000
      9 C14         2.7915    0.1126    0.5597 C.2        1 <1>        0.000
     10 C15         2.8258   -1.2551    0.9922 C.2        1 <1>        0.000
     11 C16         3.7067   -2.1748    0.5636 C.2        1 <1>        0.000
     12 C18         4.7253   -1.9860   -0.4259 C.2        1 <1>        0.000
     13 C19         4.5367   -1.2362   -1.6987 C.2        1 <1>        0.000
     14 C20         6.0148   -2.3571   -0.3629 C.2        1 <1>        0.000
     15 O7          5.4017   -0.5734   -2.2403 O.2        1 <1>        0.000
     16 H          -4.6482    0.6395   -0.4841 H.spc      1 <1>        0.000
     17 H          -1.8814   -0.6986   -1.0583 H.spc      1 <1>        0.000
     18 H          -2.6266    2.0403   -0.0038 H.spc      1 <1>        0.000
     19 H          -0.2638    2.4923   -0.6928 H.spc      1 <1>        0.000
     20 H           0.0973   -0.1857    0.6141 H.spc      1 <1>        0.000
     21 H           2.7589   -1.8711   -1.6734 H.spc      1 <1>        0.000
     22 H           2.1674    1.9741   -0.0361 H.spc      1 <1>        0.000
     23 H           3.7870    0.5494    0.4800 H.spc      1 <1>        0.000
     24 H           2.0817   -1.5717    1.7230 H.spc      1 <1>        0.000
     25 H           3.6394   -3.1649    1.0145 H.spc      1 <1>        0.000
     26 H           6.3923   -2.8680    0.5229 H.spc      1 <1>        0.000
     27 H           6.6837   -2.1474   -1.1976 H.spc      1 <1>        0.000
@<TRIPOS>BOND
     1    1    2 1  
     2   13   15 2  
     3    9   10 1  
     4    2    4 2  
     5   10   11 2  
     6    6    8 1  
     7    1    3 2  
     8    8    9 2  
     9   12   14 2  
    10    4    5 1  
    11    5    6 2  
    12   11   12 1  
    13   12   13 1  
    14   13    7 1  
    15    1   16 1  
    16    2   17 1  
    17    4   18 1  
    18    5   19 1  
    19    6   20 1  
    20    7   21 1  
    21    8   22 1  
    22    9   23 1  
    23   10   24 1  
    24   11   25 1  
    25   14   26 1  
    26   14   27 1  
# Name:          frag3-281-3/96164 -- energy: -2.686872
# Creation time: Sat Jun  5 12:53:28 2010


@<TRIPOS>MOLECULE
frag3-281-3/96164 -- energy: -2.686872
   27    26     1     1     1
SMALL
USER_CHARGES


@<TRIPOS>ATOM
      1 C4         -4.0756    0.0440   -0.0356 C.2        1 <1>        0.000
      2 C6         -2.7068    0.1472   -0.5364 C.2        1 <1>        0.000
      3 O3         -4.4800   -0.0010    1.1135 O.2        1 <1>        0.000
      4 C8         -1.6558    0.3043    0.2728 C.2        1 <1>        0.000
      5 C11        -0.2843    0.3955   -0.0817 C.2        1 <1>        0.000
      6 C12         0.2599    0.9804   -1.1502 C.2        1 <1>        0.000
      7 O6          4.2121   -0.5792    0.9517 O.3        1 <1>        0.000
      8 C13         1.6194    1.0379   -1.5508 C.2        1 <1>        0.000
      9 C14         2.4061   -0.0361   -1.6287 C.2        1 <1>        0.000
     10 C15         2.2038   -1.4429   -1.4085 C.2        1 <1>        0.000
     11 C16         3.1601   -2.3271   -1.1011 C.2        1 <1>        0.000
     12 C18         4.5500   -2.0454   -0.8910 C.2        1 <1>        0.000
     13 C19         5.0631   -0.9837    0.0102 C.2        1 <1>        0.000
     14 C20         5.5827   -2.6022   -1.5367 C.2        1 <1>        0.000
     15 O7          6.1685   -0.4651   -0.0770 O.2        1 <1>        0.000
     16 H          -4.8490    0.0009   -0.8025 H.spc      1 <1>        0.000
     17 H          -2.5368    0.0939   -1.6117 H.spc      1 <1>        0.000
     18 H          -1.8790    0.3707    1.3376 H.spc      1 <1>        0.000
     19 H           0.4158   -0.0737    0.6095 H.spc      1 <1>        0.000
     20 H          -0.4423    1.4879   -1.8115 H.spc      1 <1>        0.000
     21 H           3.3978   -1.0831    0.8833 H.spc      1 <1>        0.000
     22 H           2.0425    2.0090   -1.8080 H.spc      1 <1>        0.000
     23 H           3.4271    0.2054   -1.9243 H.spc      1 <1>        0.000
     24 H           1.1855   -1.8208   -1.4997 H.spc      1 <1>        0.000
     25 H           2.8508   -3.3674   -1.0002 H.spc      1 <1>        0.000
     26 H           5.4033   -3.3504   -2.3088 H.spc      1 <1>        0.000
     27 H           6.6026   -2.3072   -1.2901 H.spc      1 <1>        0.000
@<TRIPOS>BOND
     1    1    2 1  
     2   13   15 2  
     3    9   10 1  
     4    2    4 2  
     5   10   11 2  
     6    6    8 1  
     7    1    3 2  
     8    8    9 2  
     9   12   14 2  
    10    4    5 1  
    11    5    6 2  
    12   11   12 1  
    13   12   13 1  
    14   13    7 1  
    15    1   16 1  
    16    2   17 1  
    17    4   18 1  
    18    5   19 1  
    19    6   20 1  
    20    7   21 1  
    21    8   22 1  
    22    9   23 1  
    23   10   24 1  
    24   11   25 1  
    25   14   26 1  
    26   14   27 1  
# Name:          frag3-281-3/96164 -- energy: -3.344941
# Creation time: Sat Jun  5 12:53:28 2010


@<TRIPOS>MOLECULE
frag3-281-3/96164 -- energy: -3.344941
   27    26     1     1     1
SMALL
USER_CHARGES


@<TRIPOS>ATOM
      1 C4         -4.1503    0.1541   -0.8987 C.2        1 <1>        0.000
      2 C6         -2.7654   -0.1531   -0.5514 C.2        1 <1>        0.000
      3 O3         -4.9267   -0.5726   -1.5090 O.2        1 <1>        0.000
      4 C8         -1.9173    0.6493    0.1090 C.2        1 <1>        0.000
      5 C11        -0.5710    0.3512    0.4685 C.2        1 <1>        0.000
      6 C12         0.3700    0.9600    1.1893 C.2        1 <1>        0.000
      7 O6          6.4559   -1.9205   -2.0331 O.3        1 <1>        0.000
      8 C13         1.7136    0.5352    1.4373 C.2        1 <1>        0.000
      9 C14         2.5422    0.0730    0.4985 C.2        1 <1>        0.000
     10 C15         2.3968   -0.1092   -0.9216 C.2        1 <1>        0.000
     11 C16         3.1148   -0.9422   -1.6844 C.2        1 <1>        0.000
     12 C18         4.1851   -1.7996   -1.2876 C.2        1 <1>        0.000
     13 C19         5.5707   -1.3458   -1.2234 C.2        1 <1>        0.000
     14 C20         4.1236   -3.0276   -0.7633 C.2        1 <1>        0.000
     15 O7          5.8813   -0.4254   -0.4796 O.2        1 <1>        0.000
     16 H          -4.5315    1.1256   -0.5842 H.spc      1 <1>        0.000
     17 H          -2.3847   -1.1273   -0.8581 H.spc      1 <1>        0.000
     18 H          -2.2964    1.6289    0.4002 H.spc      1 <1>        0.000
     19 H          -0.2306   -0.5989    0.0568 H.spc      1 <1>        0.000
     20 H           0.0784    1.9040    1.6497 H.spc      1 <1>        0.000
     21 H           6.0250   -2.6173   -2.5335 H.spc      1 <1>        0.000
     22 H           2.0850    0.5928    2.4604 H.spc      1 <1>        0.000
     23 H           3.5184   -0.2241    0.8818 H.spc      1 <1>        0.000
     24 H           1.6322    0.4854   -1.4215 H.spc      1 <1>        0.000
     25 H           2.8490   -0.9694   -2.7412 H.spc      1 <1>        0.000
     26 H           3.1559   -3.4978   -0.5886 H.spc      1 <1>        0.000
     27 H           5.0412   -3.5588   -0.5104 H.spc      1 <1>        0.000
@<TRIPOS>BOND
     1    1    2 1  
     2   13   15 2  
     3    9   10 1  
     4    2    4 2  
     5   10   11 2  
     6    6    8 1  
     7    1    3 2  
     8    8    9 2  
     9   12   14 2  
    10    4    5 1  
    11    5    6 2  
    12   11   12 1  
    13   12   13 1  
    14   13    7 1  
    15    1   16 1  
    16    2   17 1  
    17    4   18 1  
    18    5   19 1  
    19    6   20 1  
    20    7   21 1  
    21    8   22 1  
    22    9   23 1  
    23   10   24 1  
    24   11   25 1  
    25   14   26 1  
    26   14   27 1  
# Name:          frag3-281-3/96164 -- energy: -2.511371
# Creation time: Sat Jun  5 12:53:28 2010


@<TRIPOS>MOLECULE
frag3-281-3/96164 -- energy: -2.511371
   27    26     1     1     1
SMALL
USER_CHARGES


@<TRIPOS>ATOM
      1 C4         -4.5759    0.0538   -0.6324 C.2        1 <1>        0.000
      2 C6         -3.1970    0.5329   -0.7420 C.2        1 <1>        0.000
      3 O3         -5.5646    0.5549   -1.1508 O.2        1 <1>        0.000
      4 C8         -2.1181   -0.0466   -0.1972 C.2        1 <1>        0.000
      5 C11        -0.7753    0.4303   -0.3024 C.2        1 <1>        0.000
      6 C12         0.3926    0.0033    0.1845 C.2        1 <1>        0.000
      7 O6          3.6052   -1.7131   -2.1092 O.3        1 <1>        0.000
      8 C13         1.6970    0.5722    0.0269 C.2        1 <1>        0.000
      9 C14         2.8719    0.0667    0.4036 C.2        1 <1>        0.000
     10 C15         3.2861   -1.1320    1.0839 C.2        1 <1>        0.000
     11 C16         4.3516   -1.8710    0.7407 C.2        1 <1>        0.000
     12 C18         5.2366   -1.6258   -0.3739 C.2        1 <1>        0.000
     13 C19         4.7900   -1.2302   -1.7308 C.2        1 <1>        0.000
     14 C20         6.5825   -1.6736   -0.3899 C.2        1 <1>        0.000
     15 O7          5.4406   -0.4950   -2.4607 O.2        1 <1>        0.000
     16 H          -4.7382   -0.8389   -0.0284 H.spc      1 <1>        0.000
     17 H          -3.0328    1.4431   -1.3187 H.spc      1 <1>        0.000
     18 H          -2.2789   -0.9601    0.3753 H.spc      1 <1>        0.000
     19 H          -0.6852    1.3325   -0.9074 H.spc      1 <1>        0.000
     20 H           0.3464   -0.9048    0.7856 H.spc      1 <1>        0.000
     21 H           3.2483   -2.2660   -1.4103 H.spc      1 <1>        0.000
     22 H           1.7344    1.5444   -0.4646 H.spc      1 <1>        0.000
     23 H           3.7110    0.7084    0.1347 H.spc      1 <1>        0.000
     24 H           2.6931   -1.4621    1.9368 H.spc      1 <1>        0.000
     25 H           4.5703   -2.7393    1.3623 H.spc      1 <1>        0.000
     26 H           7.1299   -1.9225    0.5193 H.spc      1 <1>        0.000
     27 H           7.1244   -1.4634   -1.3120 H.spc      1 <1>        0.000
@<TRIPOS>BOND
     1    1    2 1  
     2   13   15 2  
     3    9   10 1  
     4    2    4 2  
     5   10   11 2  
     6    6    8 1  
     7    1    3 2  
     8    8    9 2  
     9   12   14 2  
    10    4    5 1  
    11    5    6 2  
    12   11   12 1  
    13   12   13 1  
    14   13    7 1  
    15    1   16 1  
    16    2   17 1  
    17    4   18 1  
    18    5   19 1  
    19    6   20 1  
    20    7   21 1  
    21    8   22 1  
    22    9   23 1  
    23   10   24 1  
    24   11   25 1  
    25   14   26 1  
    26   14   27 1  
# Name:          frag3-281-3/96164 -- energy: -1.191672
# Creation time: Sat Jun  5 12:53:28 2010


@<TRIPOS>MOLECULE
frag3-281-3/96164 -- energy: -1.191672
   27    26     1     1     1
SMALL
USER_CHARGES


@<TRIPOS>ATOM
      1 C4         -4.5169   -0.0537    0.1685 C.2        1 <1>        0.000
      2 C6         -3.1843   -0.1170   -0.4190 C.2        1 <1>        0.000
      3 O3         -5.0956    0.8864    0.6842 O.2        1 <1>        0.000
      4 C8         -2.3496    0.9276   -0.3921 C.2        1 <1>        0.000
      5 C11        -1.0459    1.0123   -0.9402 C.2        1 <1>        0.000
      6 C12        -0.0452    0.1449   -0.8132 C.2        1 <1>        0.000
      7 O6          5.2836    0.3070   -0.3344 O.3        1 <1>        0.000
      8 C13         1.2530    0.1776   -1.3767 C.2        1 <1>        0.000
      9 C14         2.3237   -0.5018   -0.9852 C.2        1 <1>        0.000
     10 C15         2.5849   -1.4435    0.0566 C.2        1 <1>        0.000
     11 C16         3.7284   -2.1149    0.2186 C.2        1 <1>        0.000
     12 C18         4.9128   -2.0403   -0.5735 C.2        1 <1>        0.000
     13 C19         5.8329   -0.8790   -0.5996 C.2        1 <1>        0.000
     14 C20         5.3145   -2.9075   -1.5143 C.2        1 <1>        0.000
     15 O7          7.0270   -0.9713   -0.8293 O.2        1 <1>        0.000
     16 H          -5.0797   -0.9868    0.1426 H.spc      1 <1>        0.000
     17 H          -2.8587   -1.0425   -0.8940 H.spc      1 <1>        0.000
     18 H          -2.7165    1.8215    0.1123 H.spc      1 <1>        0.000
     19 H          -0.8369    1.8979   -1.5403 H.spc      1 <1>        0.000
     20 H          -0.2560   -0.7184   -0.1821 H.spc      1 <1>        0.000
     21 H           4.3429    0.1952   -0.1792 H.spc      1 <1>        0.000
     22 H           1.3892    0.8385   -2.2327 H.spc      1 <1>        0.000
     23 H           3.2019   -0.2944   -1.5966 H.spc      1 <1>        0.000
     24 H           1.7879   -1.6290    0.7766 H.spc      1 <1>        0.000
     25 H           3.7606   -2.8059    1.0610 H.spc      1 <1>        0.000
     26 H           4.7087   -3.7848   -1.7412 H.spc      1 <1>        0.000
     27 H           6.2468   -2.7350   -2.0521 H.spc      1 <1>        0.000
@<TRIPOS>BOND
     1    1    2 1  
     2   13   15 2  
     3    9   10 1  
     4    2    4 2  
     5   10   11 2  
     6    6    8 1  
     7    1    3 2  
     8    8    9 2  
     9   12   14 2  
    10    4    5 1  
    11    5    6 2  
    12   11   12 1  
    13   12   13 1  
    14   13    7 1  
    15    1   16 1  
    16    2   17 1  
    17    4   18 1  
    18    5   19 1  
    19    6   20 1  
    20    7   21 1  
    21    8   22 1  
    22    9   23 1  
    23   10   24 1  
    24   11   25 1  
    25   14   26 1  
    26   14   27 1  
# Name:          frag3-281-3/96164 -- energy: -2.336907
# Creation time: Sat Jun  5 12:53:28 2010


@<TRIPOS>MOLECULE
frag3-281-3/96164 -- energy: -2.336907
   27    26     1     1     1
SMALL
USER_CHARGES


@<TRIPOS>ATOM
      1 C4         -3.9626   -0.6923   -0.6312 C.2        1 <1>        0.000
      2 C6         -2.5300   -0.6185   -0.9008 C.2        1 <1>        0.000
      3 O3         -4.6643    0.0067    0.0791 O.2        1 <1>        0.000
      4 C8         -1.7653    0.3566   -0.4101 C.2        1 <1>        0.000
      5 C11        -0.3671    0.5408   -0.5809 C.2        1 <1>        0.000
      6 C12         0.4973    1.4709   -0.1610 C.2        1 <1>        0.000
      7 O6          5.5394   -0.7422   -2.0875 O.3        1 <1>        0.000
      8 C13         1.9062    1.4903   -0.3854 C.2        1 <1>        0.000
      9 C14         2.7523    0.5339    0.0006 C.2        1 <1>        0.000
     10 C15         2.6162   -0.7138    0.7360 C.2        1 <1>        0.000
     11 C16         3.4506   -1.7654    0.6691 C.2        1 <1>        0.000
     12 C18         4.6039   -1.8697   -0.1894 C.2        1 <1>        0.000
     13 C19         4.5407   -1.4811   -1.6088 C.2        1 <1>        0.000
     14 C20         5.8317   -2.3134    0.1157 C.2        1 <1>        0.000
     15 O7          3.5745   -1.7762   -2.2950 O.2        1 <1>        0.000
     16 H          -4.4866   -1.4981   -1.1452 H.spc      1 <1>        0.000
     17 H          -2.0706   -1.3859   -1.5238 H.spc      1 <1>        0.000
     18 H          -2.2754    1.1046    0.1968 H.spc      1 <1>        0.000
     19 H           0.0996   -0.2406   -1.1806 H.spc      1 <1>        0.000
     20 H           0.0825    2.3001    0.4121 H.spc      1 <1>        0.000
     21 H           6.2010   -0.6185   -1.4030 H.spc      1 <1>        0.000
     22 H           2.3219    2.3500   -0.9110 H.spc      1 <1>        0.000
     23 H           3.7797    0.7326   -0.3046 H.spc      1 <1>        0.000
     24 H           1.7586   -0.8042    1.4027 H.spc      1 <1>        0.000
     25 H           3.2367   -2.6128    1.3205 H.spc      1 <1>        0.000
     26 H           6.0523   -2.6542    1.1273 H.spc      1 <1>        0.000
     27 H           6.6093   -2.3333   -0.6478 H.spc      1 <1>        0.000
@<TRIPOS>BOND
     1    1    2 1  
     2   13   15 2  
     3    9   10 1  
     4    2    4 2  
     5   10   11 2  
     6    6    8 1  
     7    1    3 2  
     8    8    9 2  
     9   12   14 2  
    10    4    5 1  
    11    5    6 2  
    12   11   12 1  
    13   12   13 1  
    14   13    7 1  
    15    1   16 1  
    16    2   17 1  
    17    4   18 1  
    18    5   19 1  
    19    6   20 1  
    20    7   21 1  
    21    8   22 1  
    22    9   23 1  
    23   10   24 1  
    24   11   25 1  
    25   14   26 1  
    26   14   27 1  
# Name:          frag3-281-3/96164 -- energy: -2.105967
# Creation time: Sat Jun  5 12:53:28 2010


@<TRIPOS>MOLECULE
frag3-281-3/96164 -- energy: -2.105967
   27    26     1     1     1
SMALL
USER_CHARGES


@<TRIPOS>ATOM
      1 C4         -4.7576    0.7946    0.0680 C.2        1 <1>        0.000
      2 C6         -3.3549    1.1108    0.3092 C.2        1 <1>        0.000
      3 O3         -5.2490   -0.1771   -0.4801 O.2        1 <1>        0.000
      4 C8         -2.3631    0.3324   -0.1349 C.2        1 <1>        0.000
      5 C11        -0.9694    0.5543    0.0266 C.2        1 <1>        0.000
      6 C12         0.0978    0.0096   -0.5532 C.2        1 <1>        0.000
      7 O6          5.6828   -0.0241   -1.6083 O.3        1 <1>        0.000
      8 C13         1.4666    0.3236   -0.3422 C.2        1 <1>        0.000
      9 C14         2.5368   -0.2955   -0.8242 C.2        1 <1>        0.000
     10 C15         2.7423   -1.4352   -1.6630 C.2        1 <1>        0.000
     11 C16         3.8123   -2.2414   -1.6246 C.2        1 <1>        0.000
     12 C18         4.9628   -2.1122   -0.7839 C.2        1 <1>        0.000
     13 C19         5.6987   -0.8490   -0.5572 C.2        1 <1>        0.000
     14 C20         5.4778   -3.0415    0.0292 C.2        1 <1>        0.000
     15 O7          6.2394   -0.5223    0.4890 O.2        1 <1>        0.000
     16 H          -5.4708    1.5349    0.4306 H.spc      1 <1>        0.000
     17 H          -3.1068    2.0118    0.8702 H.spc      1 <1>        0.000
     18 H          -2.6543   -0.5668   -0.6778 H.spc      1 <1>        0.000
     19 H          -0.7275    1.3166    0.7672 H.spc      1 <1>        0.000
     20 H          -0.1042   -0.7760   -1.2813 H.spc      1 <1>        0.000
     21 H           5.2186   -0.4440   -2.3362 H.spc      1 <1>        0.000
     22 H           1.6634    1.1836    0.2979 H.spc      1 <1>        0.000
     23 H           3.4707    0.1702   -0.5094 H.spc      1 <1>        0.000
     24 H           1.9662   -1.6670   -2.3924 H.spc      1 <1>        0.000
     25 H           3.8052   -3.0892   -2.3096 H.spc      1 <1>        0.000
     26 H           5.0106   -4.0238    0.0992 H.spc      1 <1>        0.000
     27 H           6.3646   -2.8163    0.6216 H.spc      1 <1>        0.000
@<TRIPOS>BOND
     1    1    2 1  
     2   13   15 2  
     3    9   10 1  
     4    2    4 2  
     5   10   11 2  
     6    6    8 1  
     7    1    3 2  
     8    8    9 2  
     9   12   14 2  
    10    4    5 1  
    11    5    6 2  
    12   11   12 1  
    13   12   13 1  
    14   13    7 1  
    15    1   16 1  
    16    2   17 1  
    17    4   18 1  
    18    5   19 1  
    19    6   20 1  
    20    7   21 1  
    21    8   22 1  
    22    9   23 1  
    23   10   24 1  
    24   11   25 1  
    25   14   26 1  
    26   14   27 1  
# Name:          frag3-281-3/96164 -- energy: -2.274234
# Creation time: Sat Jun  5 12:53:28 2010


@<TRIPOS>MOLECULE
frag3-281-3/96164 -- energy: -2.274234
   27    26     1     1     1
SMALL
USER_CHARGES


@<TRIPOS>ATOM
      1 C4         -4.1327   -0.0318    0.5584 C.2        1 <1>        0.000
      2 C6         -2.7375    0.1161    0.1561 C.2        1 <1>        0.000
      3 O3         -4.5861    0.1392    1.6807 O.2        1 <1>        0.000
      4 C8         -2.2821   -0.0183   -1.0983 C.2        1 <1>        0.000
      5 C11        -0.9359    0.0880   -1.5411 C.2        1 <1>        0.000
      6 C12        -0.0333    1.0364   -1.2734 C.2        1 <1>        0.000
      7 O6          5.4960   -1.1504    1.2674 O.3        1 <1>        0.000
      8 C13         1.3276    1.1619   -1.6431 C.2        1 <1>        0.000
      9 C14         2.2614    0.2613   -1.3173 C.2        1 <1>        0.000
     10 C15         2.2286   -0.9650   -0.5809 C.2        1 <1>        0.000
     11 C16         3.2334   -1.8256   -0.3975 C.2        1 <1>        0.000
     12 C18         4.5889   -1.7709   -0.8381 C.2        1 <1>        0.000
     13 C19         5.7726   -1.3894   -0.0232 C.2        1 <1>        0.000
     14 C20         4.9158   -1.9365   -2.1291 C.2        1 <1>        0.000
     15 O7          6.9066   -1.2881   -0.4703 O.2        1 <1>        0.000
     16 H          -4.8398   -0.3234   -0.2182 H.spc      1 <1>        0.000
     17 H          -2.0112    0.3536    0.9334 H.spc      1 <1>        0.000
     18 H          -3.0279   -0.2331   -1.8636 H.spc      1 <1>        0.000
     19 H          -0.5912   -0.7170   -2.1902 H.spc      1 <1>        0.000
     20 H          -0.4110    1.8571   -0.6636 H.spc      1 <1>        0.000
     21 H           4.5578   -1.2822    1.4222 H.spc      1 <1>        0.000
     22 H           1.6292    2.0352   -2.2215 H.spc      1 <1>        0.000
     23 H           3.2538    0.5143   -1.6904 H.spc      1 <1>        0.000
     24 H           1.2771   -1.2261   -0.1177 H.spc      1 <1>        0.000
     25 H           2.9762   -2.7122    0.1820 H.spc      1 <1>        0.000
     26 H           4.1368   -2.1179   -2.8696 H.spc      1 <1>        0.000
     27 H           5.9603   -1.8896   -2.4372 H.spc      1 <1>        0.000
@<TRIPOS>BOND
     1    1    2 1  
     2   13   15 2  
     3    9   10 1  
     4    2    4 2  
     5   10   11 2  
     6    6    8 1  
     7    1    3 2  
     8    8    9 2  
     9   12   14 2  
    10    4    5 1  
    11    5    6 2  
    12   11   12 1  
    13   12   13 1  
    14   13    7 1  
    15    1   16 1  
    16    2   17 1  
    17    4   18 1  
    18    5   19 1  
    19    6   20 1  
    20    7   21 1  
    21    8   22 1  
    22    9   23 1  
    23   10   24 1  
    24   11   25 1  
    25   14   26 1  
    26   14   27 1  
# Name:          frag3-281-3/96164 -- energy: -2.664581
# Creation time: Sat Jun  5 12:53:28 2010


@<TRIPOS>MOLECULE
frag3-281-3/96164 -- energy: -2.664581
   27    26     1     1     1
SMALL
USER_CHARGES


@<TRIPOS>ATOM
      1 C4         -4.2517   -0.6361   -0.2314 C.2        1 <1>        0.000
      2 C6         -3.0122   -0.0101   -0.6916 C.2        1 <1>        0.000
      3 O3         -5.3698   -0.4394   -0.6820 O.2        1 <1>        0.000
      4 C8         -1.7948   -0.1977   -0.1599 C.2        1 <1>        0.000
      5 C11        -0.5922    0.4292   -0.6101 C.2        1 <1>        0.000
      6 C12         0.6549    0.4897   -0.1213 C.2        1 <1>        0.000
      7 O6          2.9826   -2.2674   -1.0246 O.3        1 <1>        0.000
      8 C13         1.8001    1.1811   -0.6529 C.2        1 <1>        0.000
      9 C14         3.0618    1.1833   -0.2190 C.2        1 <1>        0.000
     10 C15         3.7407    0.5264    0.8668 C.2        1 <1>        0.000
     11 C16         4.5974   -0.4863    0.6938 C.2        1 <1>        0.000
     12 C18         5.0000   -1.1576   -0.5181 C.2        1 <1>        0.000
     13 C19         4.3039   -2.2623   -1.1819 C.2        1 <1>        0.000
     14 C20         6.0202   -0.7906   -1.3076 C.2        1 <1>        0.000
     15 O7          4.8823   -3.1355   -1.8099 O.2        1 <1>        0.000
     16 H          -4.1697   -1.3456    0.5920 H.spc      1 <1>        0.000
     17 H          -3.0841    0.6686   -1.5415 H.spc      1 <1>        0.000
     18 H          -1.7168   -0.8837    0.6836 H.spc      1 <1>        0.000
     19 H          -0.7143    0.9720   -1.5474 H.spc      1 <1>        0.000
     20 H           0.8247   -0.0595    0.8048 H.spc      1 <1>        0.000
     21 H           2.7204   -1.5039   -0.5051 H.spc      1 <1>        0.000
     22 H           1.6092    1.7901   -1.5365 H.spc      1 <1>        0.000
     23 H           3.7186    1.8181   -0.8138 H.spc      1 <1>        0.000
     24 H           3.5468    0.8718    1.8823 H.spc      1 <1>        0.000
     25 H           5.0614   -0.8609    1.6062 H.spc      1 <1>        0.000
     26 H           6.6220    0.0811   -1.0505 H.spc      1 <1>        0.000
     27 H           6.2475   -1.3640   -2.2063 H.spc      1 <1>        0.000
@<TRIPOS>BOND
     1    1    2 1  
     2   13   15 2  
     3    9   10 1  
     4    2    4 2  
     5   10   11 2  
     6    6    8 1  
     7    1    3 2  
     8    8    9 2  
     9   12   14 2  
    10    4    5 1  
    11    5    6 2  
    12   11   12 1  
    13   12   13 1  
    14   13    7 1  
    15    1   16 1  
    16    2   17 1  
    17    4   18 1  
    18    5   19 1  
    19    6   20 1  
    20    7   21 1  
    21    8   22 1  
    22    9   23 1  
    23   10   24 1  
    24   11   25 1  
    25   14   26 1  
    26   14   27 1  
# Name:          frag3-281-3/96164 -- energy: -1.677837
# Creation time: Sat Jun  5 12:53:28 2010


@<TRIPOS>MOLECULE
frag3-281-3/96164 -- energy: -1.677837
   27    26     1     1     1
SMALL
USER_CHARGES


@<TRIPOS>ATOM
      1 C4         -4.5050   -0.3560   -0.6402 C.2        1 <1>        0.000
      2 C6         -3.2351   -0.0106    0.0032 C.2        1 <1>        0.000
      3 O3         -5.5916   -0.4822   -0.0930 O.2        1 <1>        0.000
      4 C8         -2.0322    0.0141   -0.5884 C.2        1 <1>        0.000
      5 C11        -0.8031    0.3802    0.0414 C.2        1 <1>        0.000
      6 C12         0.4671    0.4566   -0.3708 C.2        1 <1>        0.000
      7 O6          6.6389   -1.3779   -1.2845 O.3        1 <1>        0.000
      8 C13         1.6210    0.8772    0.3731 C.2        1 <1>        0.000
      9 C14         2.8734    1.0532   -0.0752 C.2        1 <1>        0.000
     10 C15         3.4068    0.8478   -1.3843 C.2        1 <1>        0.000
     11 C16         4.0198   -0.2930   -1.7349 C.2        1 <1>        0.000
     12 C18         4.2923   -1.4957   -0.9800 C.2        1 <1>        0.000
     13 C19         5.6365   -2.0059   -0.6712 C.2        1 <1>        0.000
     14 C20         3.3832   -2.2547   -0.3494 C.2        1 <1>        0.000
     15 O7          5.8515   -2.9265    0.1046 O.2        1 <1>        0.000
     16 H          -4.4789   -0.5172   -1.7179 H.spc      1 <1>        0.000
     17 H          -3.2715    0.2505    1.0608 H.spc      1 <1>        0.000
     18 H          -1.9882   -0.2694   -1.6400 H.spc      1 <1>        0.000
     19 H          -0.9280    0.6584    1.0879 H.spc      1 <1>        0.000
     20 H           0.6497    0.1617   -1.4041 H.spc      1 <1>        0.000
     21 H           6.2844   -0.6888   -1.8511 H.spc      1 <1>        0.000
     22 H           1.4597    1.0782    1.4322 H.spc      1 <1>        0.000
     23 H           3.5886    1.4044    0.6686 H.spc      1 <1>        0.000
     24 H           3.3127    1.6441   -2.1227 H.spc      1 <1>        0.000
     25 H           4.3730   -0.3173   -2.7658 H.spc      1 <1>        0.000
     26 H           2.3287   -1.9805   -0.3800 H.spc      1 <1>        0.000
     27 H           3.6992   -3.1455    0.1935 H.spc      1 <1>        0.000
@<TRIPOS>BOND
     1    1    2 1  
     2   13   15 2  
     3    9   10 1  
     4    2    4 2  
     5   10   11 2  
     6    6    8 1  
     7    1    3 2  
     8    8    9 2  
     9   12   14 2  
    10    4    5 1  
    11    5    6 2  
    12   11   12 1  
    13   12   13 1  
    14   13    7 1  
    15    1   16 1  
    16    2   17 1  
    17    4   18 1  
    18    5   19 1  
    19    6   20 1  
    20    7   21 1  
    21    8   22 1  
    22    9   23 1  
    23   10   24 1  
    24   11   25 1  
    25   14   26 1  
    26   14   27 1  
# Name:          frag3-281-3/96164 -- energy: -1.810440
# Creation time: Sat Jun  5 12:53:28 2010


@<TRIPOS>MOLECULE
frag3-281-3/96164 -- energy: -1.810440
   27    26     1     1     1
SMALL
USER_CHARGES


@<TRIPOS>ATOM
      1 C4         -4.2637   -0.2198   -0.3223 C.2        1 <1>        0.000
      2 C6         -2.8746    0.1172   -0.6352 C.2        1 <1>        0.000
      3 O3         -5.2001   -0.2076   -1.1091 O.2        1 <1>        0.000
      4 C8         -1.9003    0.2791    0.2718 C.2        1 <1>        0.000
      5 C11        -0.5461    0.6230   -0.0125 C.2        1 <1>        0.000
      6 C12         0.5387    0.8705    0.7317 C.2        1 <1>        0.000
      7 O6          5.3438   -0.6625   -2.2410 O.3        1 <1>        0.000
      8 C13         1.8493    1.1738    0.2312 C.2        1 <1>        0.000
      9 C14         2.5474    0.4003   -0.6079 C.2        1 <1>        0.000
     10 C15         2.2415   -0.8777   -1.1953 C.2        1 <1>        0.000
     11 C16         3.0566   -1.9412   -1.1562 C.2        1 <1>        0.000
     12 C18         4.3631   -2.0072   -0.5763 C.2        1 <1>        0.000
     13 C19         5.5495   -1.2785   -1.0767 C.2        1 <1>        0.000
     14 C20         4.6843   -2.6300    0.5677 C.2        1 <1>        0.000
     15 O7          6.6339   -1.2126   -0.5196 O.2        1 <1>        0.000
     16 H          -4.4841   -0.5080    0.7056 H.spc      1 <1>        0.000
     17 H          -2.6119    0.2464   -1.6851 H.spc      1 <1>        0.000
     18 H          -2.1671    0.1351    1.3188 H.spc      1 <1>        0.000
     19 H          -0.3488    0.7027   -1.0815 H.spc      1 <1>        0.000
     20 H           0.4158    0.8389    1.8143 H.spc      1 <1>        0.000
     21 H           4.4422   -0.8205   -2.5304 H.spc      1 <1>        0.000
     22 H           2.3108    2.1050    0.5597 H.spc      1 <1>        0.000
     23 H           3.5158    0.8087   -0.8969 H.spc      1 <1>        0.000
     24 H           1.2845   -0.9879   -1.7053 H.spc      1 <1>        0.000
     25 H           2.6833   -2.8559   -1.6166 H.spc      1 <1>        0.000
     26 H           3.9148   -3.1459    1.1420 H.spc      1 <1>        0.000
     27 H           5.7148   -2.6201    0.9229 H.spc      1 <1>        0.000
@<TRIPOS>BOND
     1    1    2 1  
     2   13   15 2  
     3    9   10 1  
     4    2    4 2  
     5   10   11 2  
     6    6    8 1  
     7    1    3 2  
     8    8    9 2  
     9   12   14 2  
    10    4    5 1  
    11    5    6 2  
    12   11   12 1  
    13   12   13 1  
    14   13    7 1  
    15    1   16 1  
    16    2   17 1  
    17    4   18 1  
    18    5   19 1  
    19    6   20 1  
    20    7   21 1  
    21    8   22 1  
    22    9   23 1  
    23   10   24 1  
    24   11   25 1  
    25   14   26 1  
    26   14   27 1  
# Name:          frag3-281-3/96164 -- energy: -2.268220
# Creation time: Sat Jun  5 12:53:28 2010


@<TRIPOS>MOLECULE
frag3-281-3/96164 -- energy: -2.268220
   27    26     1     1     1
SMALL
USER_CHARGES


@<TRIPOS>ATOM
      1 C4         -4.4528    0.5267   -0.2744 C.2        1 <1>        0.000
      2 C6         -3.0677    0.7451    0.1242 C.2        1 <1>        0.000
      3 O3         -4.9219   -0.2504   -1.0887 O.2        1 <1>        0.000
      4 C8         -2.0832   -0.0123   -0.3587 C.2        1 <1>        0.000
      5 C11        -0.7025    0.0514   -0.0662 C.2        1 <1>        0.000
      6 C12         0.2213    0.9574   -0.3957 C.2        1 <1>        0.000
      7 O6          4.8231   -0.5128   -2.2641 O.3        1 <1>        0.000
      8 C13         1.6022    1.0074   -0.0656 C.2        1 <1>        0.000
      9 C14         2.4510   -0.0236   -0.0810 C.2        1 <1>        0.000
     10 C15         2.3437   -1.4159   -0.4177 C.2        1 <1>        0.000
     11 C16         3.3553   -2.2760   -0.5558 C.2        1 <1>        0.000
     12 C18         4.7502   -2.0146   -0.4271 C.2        1 <1>        0.000
     13 C19         5.5194   -1.0605   -1.2592 C.2        1 <1>        0.000
     14 C20         5.4958   -2.5341    0.5555 C.2        1 <1>        0.000
     15 O7          6.6895   -0.7611   -1.0752 O.2        1 <1>        0.000
     16 H          -5.1828    1.1560    0.2347 H.spc      1 <1>        0.000
     17 H          -2.8331    1.5421    0.8298 H.spc      1 <1>        0.000
     18 H          -2.3820   -0.7806   -1.0718 H.spc      1 <1>        0.000
     19 H          -0.3276   -0.7806    0.5299 H.spc      1 <1>        0.000
     20 H          -0.1381    1.7827   -1.0104 H.spc      1 <1>        0.000
     21 H           3.9282   -0.8603   -2.2586 H.spc      1 <1>        0.000
     22 H           2.0061    1.9765    0.2272 H.spc      1 <1>        0.000
     23 H           3.4563    0.2557    0.2344 H.spc      1 <1>        0.000
     24 H           1.3391   -1.8081   -0.5757 H.spc      1 <1>        0.000
     25 H           3.0809   -3.3031   -0.7962 H.spc      1 <1>        0.000
     26 H           5.0390   -3.1868    1.2994 H.spc      1 <1>        0.000
     27 H           6.5599   -2.3045    0.6118 H.spc      1 <1>        0.000
@<TRIPOS>BOND
     1    1    2 1  
     2   13   15 2  
     3    9   10 1  
     4    2    4 2  
     5   10   11 2  
     6    6    8 1  
     7    1    3 2  
     8    8    9 2  
     9   12   14 2  
    10    4    5 1  
    11    5    6 2  
    12   11   12 1  
    13   12   13 1  
    14   13    7 1  
    15    1   16 1  
    16    2   17 1  
    17    4   18 1  
    18    5   19 1  
    19    6   20 1  
    20    7   21 1  
    21    8   22 1  
    22    9   23 1  
    23   10   24 1  
    24   11   25 1  
    25   14   26 1  
    26   14   27 1  
# Name:          frag3-281-3/96164 -- energy: -1.579282
# Creation time: Sat Jun  5 12:53:28 2010


@<TRIPOS>MOLECULE
frag3-281-3/96164 -- energy: -1.579282
   27    26     1     1     1
SMALL
USER_CHARGES


@<TRIPOS>ATOM
      1 C4         -4.8917    0.4315   -0.4662 C.2        1 <1>        0.000
      2 C6         -3.4871    0.8083   -0.3824 C.2        1 <1>        0.000
      3 O3         -5.8325    1.2077   -0.4077 O.2        1 <1>        0.000
      4 C8         -2.4453   -0.0278   -0.3995 C.2        1 <1>        0.000
      5 C11        -1.0779    0.3528   -0.3276 C.2        1 <1>        0.000
      6 C12         0.0647   -0.3253   -0.3226 C.2        1 <1>        0.000
      7 O6          4.8539   -0.8438   -2.3950 O.3        1 <1>        0.000
      8 C13         1.3961    0.1669   -0.2461 C.2        1 <1>        0.000
      9 C14         2.5256   -0.5289   -0.1807 C.2        1 <1>        0.000
     10 C15         2.8435   -1.9231   -0.1435 C.2        1 <1>        0.000
     11 C16         4.0756   -2.4468   -0.1449 C.2        1 <1>        0.000
     12 C18         5.3155   -1.7322   -0.2152 C.2        1 <1>        0.000
     13 C19         5.7148   -0.8869   -1.3747 C.2        1 <1>        0.000
     14 C20         6.2131   -1.5795    0.7732 C.2        1 <1>        0.000
     15 O7          6.7550   -0.2461   -1.4167 O.2        1 <1>        0.000
     16 H          -5.1210   -0.6268   -0.5910 H.spc      1 <1>        0.000
     17 H          -3.2653    1.8721   -0.2978 H.spc      1 <1>        0.000
     18 H          -2.6627   -1.0932   -0.4751 H.spc      1 <1>        0.000
     19 H          -0.9362    1.4316   -0.2627 H.spc      1 <1>        0.000
     20 H          -0.0323   -1.4091   -0.3859 H.spc      1 <1>        0.000
     21 H           4.0973   -1.4007   -2.1975 H.spc      1 <1>        0.000
     22 H           1.5036    1.2516   -0.2404 H.spc      1 <1>        0.000
     23 H           3.4108    0.1063   -0.1480 H.spc      1 <1>        0.000
     24 H           2.0075   -2.6218   -0.1111 H.spc      1 <1>        0.000
     25 H           4.1427   -3.5332   -0.0863 H.spc      1 <1>        0.000
     26 H           6.0285   -2.0251    1.7507 H.spc      1 <1>        0.000
     27 H           7.1257   -1.0100    0.5974 H.spc      1 <1>        0.000
@<TRIPOS>BOND
     1    1    2 1  
     2   13   15 2  
     3    9   10 1  
     4    2    4 2  
     5   10   11 2  
     6    6    8 1  
     7    1    3 2  
     8    8    9 2  
     9   12   14 2  
    10    4    5 1  
    11    5    6 2  
    12   11   12 1  
    13   12   13 1  
    14   13    7 1  
    15    1   16 1  
    16    2   17 1  
    17    4   18 1  
    18    5   19 1  
    19    6   20 1  
    20    7   21 1  
    21    8   22 1  
    22    9   23 1  
    23   10   24 1  
    24   11   25 1  
    25   14   26 1  
    26   14   27 1  
# Name:          frag3-281-3/96164 -- energy: -3.006585
# Creation time: Sat Jun  5 12:53:28 2010


@<TRIPOS>MOLECULE
frag3-281-3/96164 -- energy: -3.006585
   27    26     1     1     1
SMALL
USER_CHARGES


@<TRIPOS>ATOM
      1 C4         -4.0450   -0.2017   -0.6688 C.2        1 <1>        0.000
      2 C6         -2.5881   -0.0819   -0.7334 C.2        1 <1>        0.000
      3 O3         -4.7667   -0.7368   -1.4960 O.2        1 <1>        0.000
      4 C8         -1.8227    0.6208    0.1115 C.2        1 <1>        0.000
      5 C11        -0.4056    0.7532    0.0600 C.2        1 <1>        0.000
      6 C12         0.5135    1.3918    0.7822 C.2        1 <1>        0.000
      7 O6          5.6832   -1.8767   -2.6404 O.3        1 <1>        0.000
      8 C13         1.9264    1.3667    0.6004 C.2        1 <1>        0.000
      9 C14         2.6451    0.2595    0.3881 C.2        1 <1>        0.000
     10 C15         2.3166   -1.1455    0.2757 C.2        1 <1>        0.000
     11 C16         3.1255   -2.1327   -0.1203 C.2        1 <1>        0.000
     12 C18         4.4835   -2.0168   -0.5585 C.2        1 <1>        0.000
     13 C19         4.8918   -1.2672   -1.7511 C.2        1 <1>        0.000
     14 C20         5.6045   -2.3555    0.0991 C.2        1 <1>        0.000
     15 O7          4.4614   -0.1505   -1.9982 O.2        1 <1>        0.000
     16 H          -4.5348    0.2295    0.2043 H.spc      1 <1>        0.000
     17 H          -2.0812   -0.6112   -1.5402 H.spc      1 <1>        0.000
     18 H          -2.3354    1.1435    0.9190 H.spc      1 <1>        0.000
     19 H           0.0321    0.1986   -0.7700 H.spc      1 <1>        0.000
     20 H           0.1428    2.0026    1.6053 H.spc      1 <1>        0.000
     21 H           5.9363   -2.7393   -2.3035 H.spc      1 <1>        0.000
     22 H           2.4589    2.3171    0.6370 H.spc      1 <1>        0.000
     23 H           3.7108    0.4584    0.2750 H.spc      1 <1>        0.000
     24 H           1.2987   -1.4293    0.5431 H.spc      1 <1>        0.000
     25 H           2.7045   -3.1381   -0.1084 H.spc      1 <1>        0.000
     26 H           5.5415   -2.7793    1.1014 H.spc      1 <1>        0.000
     27 H           6.5773   -2.2066   -0.3695 H.spc      1 <1>        0.000
@<TRIPOS>BOND
     1    1    2 1  
     2   13   15 2  
     3    9   10 1  
     4    2    4 2  
     5   10   11 2  
     6    6    8 1  
     7    1    3 2  
     8    8    9 2  
     9   12   14 2  
    10    4    5 1  
    11    5    6 2  
    12   11   12 1  
    13   12   13 1  
    14   13    7 1  
    15    1   16 1  
    16    2   17 1  
    17    4   18 1  
    18    5   19 1  
    19    6   20 1  
    20    7   21 1  
    21    8   22 1  
    22    9   23 1  
    23   10   24 1  
    24   11   25 1  
    25   14   26 1  
    26   14   27 1  
# Name:          frag3-281-3/96164 -- energy: -2.969478
# Creation time: Sat Jun  5 12:53:28 2010


@<TRIPOS>MOLECULE
frag3-281-3/96164 -- energy: -2.969478
   27    26     1     1     1
SMALL
USER_CHARGES


@<TRIPOS>ATOM
      1 C4         -4.6731    0.0693    0.2643 C.2        1 <1>        0.000
      2 C6         -3.3855    0.1640   -0.4005 C.2        1 <1>        0.000
      3 O3         -5.7349   -0.1293   -0.3057 O.2        1 <1>        0.000
      4 C8         -2.2306    0.4988    0.1816 C.2        1 <1>        0.000
      5 C11        -0.9707    0.5930   -0.4740 C.2        1 <1>        0.000
      6 C12         0.2454    0.9508   -0.0624 C.2        1 <1>        0.000
      7 O6          7.0347   -2.1371   -0.5513 O.3        1 <1>        0.000
      8 C13         1.4481    0.9782   -0.8244 C.2        1 <1>        0.000
      9 C14         2.4215    0.0688   -0.7692 C.2        1 <1>        0.000
     10 C15         2.6210   -1.1248    0.0053 C.2        1 <1>        0.000
     11 C16         3.6364   -1.9833   -0.1431 C.2        1 <1>        0.000
     12 C18         4.7358   -1.9110   -1.0420 C.2        1 <1>        0.000
     13 C19         6.0118   -1.3083   -0.6933 C.2        1 <1>        0.000
     14 C20         4.7532   -2.1946   -2.3481 C.2        1 <1>        0.000
     15 O7          6.1101   -0.1077   -0.4868 O.2        1 <1>        0.000
     16 H          -4.6934    0.1835    1.3481 H.spc      1 <1>        0.000
     17 H          -3.3590   -0.0574   -1.4675 H.spc      1 <1>        0.000
     18 H          -2.2552    0.7184    1.2490 H.spc      1 <1>        0.000
     19 H          -1.0081    0.3160   -1.5276 H.spc      1 <1>        0.000
     20 H           0.3292    1.2586    0.9799 H.spc      1 <1>        0.000
     21 H           6.7524   -3.0307   -0.7596 H.spc      1 <1>        0.000
     22 H           1.5845    1.8136   -1.5111 H.spc      1 <1>        0.000
     23 H           3.2404    0.2747   -1.4585 H.spc      1 <1>        0.000
     24 H           1.8847   -1.3493    0.7771 H.spc      1 <1>        0.000
     25 H           3.6185   -2.8541    0.5123 H.spc      1 <1>        0.000
     26 H           3.8425   -2.5282   -2.8455 H.spc      1 <1>        0.000
     27 H           5.6781   -2.0922   -2.9158 H.spc      1 <1>        0.000
@<TRIPOS>BOND
     1    1    2 1  
     2   13   15 2  
     3    9   10 1  
     4    2    4 2  
     5   10   11 2  
     6    6    8 1  
     7    1    3 2  
     8    8    9 2  
     9   12   14 2  
    10    4    5 1  
    11    5    6 2  
    12   11   12 1  
    13   12   13 1  
    14   13    7 1  
    15    1   16 1  
    16    2   17 1  
    17    4   18 1  
    18    5   19 1  
    19    6   20 1  
    20    7   21 1  
    21    8   22 1  
    22    9   23 1  
    23   10   24 1  
    24   11   25 1  
    25   14   26 1  
    26   14   27 1  
