#      Rotatable Fragment
#      Build by yxyuan
#
# Name:          frag4-480-33/48856
# Creation time: Sat Jun  5 12:52:49 2010


@<TRIPOS>MOLECULE
frag4-480-33/48856
   26    28     1     1     1
SMALL
USER_CHARGES


@<TRIPOS>ATOM
      1 N1          1.1727   -1.4115    1.3454 N.2        1 <1>        0.000
      2 C1         -0.0260   -1.1134    0.9320 C.2        1 <1>        0.000
      3 C2          0.0993   -0.0554   -0.1018 C.2        1 <1>        0.000
      4 C3          1.4712    0.1979   -0.2119 C.2        1 <1>        0.000
      5 C4          2.1001   -0.6349    0.6764 C.2        1 <1>        0.000
      6 C5          3.5949   -0.6353    0.7683 C.3        1 <1>        0.000
      7 N2          4.3090   -0.0174   -0.3435 N.4        1 <1>        0.000
      8 C6          3.4222    0.3456   -1.4504 C.3        1 <1>        0.000
      9 C7          2.1444    1.0910   -1.1443 C.3        1 <1>        0.000
     10 C9         -1.0483    0.3813   -0.6516 C.2        1 <1>        0.000
     11 C10        -2.3424   -0.1021   -0.2773 C.2        1 <1>        0.000
     12 C11        -2.4499   -1.0575    0.6637 C.2        1 <1>        0.000
     13 C12        -1.2999   -1.6709    1.3453 C.3        1 <1>        0.000
     14 H           3.8455   -0.0506    1.6534 H.spc      1 <1>        0.000
     15 H           3.8987   -1.6820    0.7809 H.spc      1 <1>        0.000
     16 H           4.9883   -0.6927   -0.6942 H.spc      1 <1>        0.000
     17 H           4.7469    0.8370    0.0009 H.spc      1 <1>        0.000
     18 H           3.1000   -0.6041   -1.8775 H.spc      1 <1>        0.000
     19 H           4.0062    1.0277   -2.0683 H.spc      1 <1>        0.000
     20 H           2.3191    2.0847   -0.7318 H.spc      1 <1>        0.000
     21 H           1.5516    1.3037   -2.0339 H.spc      1 <1>        0.000
     22 H          -0.9892    1.1464   -1.4257 H.spc      1 <1>        0.000
     23 H          -3.2364    0.3018   -0.7523 H.spc      1 <1>        0.000
     24 H          -3.4488   -1.3973    0.9373 H.spc      1 <1>        0.000
     25 H          -1.4111   -1.4840    2.4134 H.spc      1 <1>        0.000
     26 H          -1.2937   -2.7312    1.0929 H.spc      1 <1>        0.000
@<TRIPOS>BOND
     1    3    4 1  
     2    3   10 2  
     3    1    5 1  
     4    6    7 1  
     5   11   12 2  
     6   10   11 1  
     7    7    8 1  
     8    4    9 1  
     9    1    2 2  
    10    8    9 1  
    11    2   13 1  
    12    5    6 1  
    13   12   13 1  
    14    2    3 1  
    15    4    5 2  
    16    6   14 1  
    17    6   15 1  
    18    7   16 1  
    19    7   17 1  
    20    8   18 1  
    21    8   19 1  
    22    9   20 1  
    23    9   21 1  
    24   10   22 1  
    25   11   23 1  
    26   12   24 1  
    27   13   25 1  
    28   13   26 1  
# Name:          frag4-480-33/48856 -- energy: -2.211542
# Creation time: Sat Jun  5 12:52:49 2010


@<TRIPOS>MOLECULE
frag4-480-33/48856 -- energy: -2.211542
   26    28     1     1     1
SMALL
USER_CHARGES


@<TRIPOS>ATOM
      1 N1          1.1727   -1.4115    1.3454 N.2        1 <1>        0.000
      2 C1         -0.0260   -1.1134    0.9320 C.2        1 <1>        0.000
      3 C2          0.0993   -0.0554   -0.1018 C.2        1 <1>        0.000
      4 C3          1.4712    0.1979   -0.2119 C.2        1 <1>        0.000
      5 C4          2.1001   -0.6349    0.6764 C.2        1 <1>        0.000
      6 C5          3.5949   -0.6353    0.7683 C.3        1 <1>        0.000
      7 N2          4.3090   -0.0174   -0.3435 N.4        1 <1>        0.000
      8 C6          3.4222    0.3456   -1.4504 C.3        1 <1>        0.000
      9 C7          2.1444    1.0910   -1.1443 C.3        1 <1>        0.000
     10 C9         -1.0483    0.3813   -0.6516 C.2        1 <1>        0.000
     11 C10        -2.3424   -0.1021   -0.2773 C.2        1 <1>        0.000
     12 C11        -2.4499   -1.0575    0.6637 C.2        1 <1>        0.000
     13 C12        -1.2999   -1.6709    1.3453 C.3        1 <1>        0.000
     14 H           3.8455   -0.0506    1.6534 H.spc      1 <1>        0.000
     15 H           3.8987   -1.6820    0.7809 H.spc      1 <1>        0.000
     16 H           4.9883   -0.6927   -0.6942 H.spc      1 <1>        0.000
     17 H           4.7469    0.8370    0.0009 H.spc      1 <1>        0.000
     18 H           3.1000   -0.6041   -1.8775 H.spc      1 <1>        0.000
     19 H           4.0062    1.0277   -2.0683 H.spc      1 <1>        0.000
     20 H           2.3191    2.0847   -0.7318 H.spc      1 <1>        0.000
     21 H           1.5516    1.3037   -2.0339 H.spc      1 <1>        0.000
     22 H          -0.9892    1.1464   -1.4257 H.spc      1 <1>        0.000
     23 H          -3.2364    0.3018   -0.7523 H.spc      1 <1>        0.000
     24 H          -3.4488   -1.3973    0.9373 H.spc      1 <1>        0.000
     25 H          -1.4111   -1.4840    2.4134 H.spc      1 <1>        0.000
     26 H          -1.2937   -2.7312    1.0929 H.spc      1 <1>        0.000
@<TRIPOS>BOND
     1    3    4 1  
     2    3   10 2  
     3    1    5 1  
     4    6    7 1  
     5   11   12 2  
     6   10   11 1  
     7    7    8 1  
     8    4    9 1  
     9    1    2 2  
    10    8    9 1  
    11    2   13 1  
    12    5    6 1  
    13   12   13 1  
    14    2    3 1  
    15    4    5 2  
    16    6   14 1  
    17    6   15 1  
    18    7   16 1  
    19    7   17 1  
    20    8   18 1  
    21    8   19 1  
    22    9   20 1  
    23    9   21 1  
    24   10   22 1  
    25   11   23 1  
    26   12   24 1  
    27   13   25 1  
    28   13   26 1  
