#      Rotatable Fragment
#      Build by yxyuan
#
# Name:          frag2-049-26/92655
# Creation time: Sat Jun  5 12:51:57 2010


@<TRIPOS>MOLECULE
frag2-049-26/92655
   22    24     1     1     1
SMALL
USER_CHARGES


@<TRIPOS>ATOM
      1 C5          2.3964    1.3710   -0.0550 C.ar       1 <1>        0.000
      2 C6          1.1795    0.6865   -0.0249 C.ar       1 <1>        0.000
      3 N1          0.0113    1.3619   -0.0686 N.ar       1 <1>        0.000
      4 C7         -1.1678    0.7052   -0.0423 C.ar       1 <1>        0.000
      5 C8         -1.1808   -0.6885    0.0386 C.ar       1 <1>        0.000
      6 N2         -0.0114   -1.3638    0.0857 N.ar       1 <1>        0.000
      7 C9          1.1689   -0.7075    0.0502 C.ar       1 <1>        0.000
      8 C10         2.3758   -1.4108    0.0872 C.ar       1 <1>        0.000
      9 C11         3.5879   -0.7238    0.0545 C.ar       1 <1>        0.000
     10 C12         3.5979    0.6677   -0.0149 C.ar       1 <1>        0.000
     11 C13        -2.3989   -1.3723    0.0684 C.ar       1 <1>        0.000
     12 C14        -3.5996   -0.6657    0.0130 C.ar       1 <1>        0.000
     13 C15        -3.5867    0.7241   -0.0692 C.ar       1 <1>        0.000
     14 C16        -2.3731    1.4096   -0.0951 C.ar       1 <1>        0.000
     15 H           2.4059    2.4596   -0.1101 H.spc      1 <1>        0.000
     16 H           2.3692   -2.4994    0.1418 H.spc      1 <1>        0.000
     17 H           4.5278   -1.2750    0.0832 H.spc      1 <1>        0.000
     18 H           4.5456    1.2057   -0.0378 H.spc      1 <1>        0.000
     19 H          -2.4105   -2.4602    0.1351 H.spc      1 <1>        0.000
     20 H          -4.5486   -1.2015    0.0340 H.spc      1 <1>        0.000
     21 H          -4.5255    1.2762   -0.1133 H.spc      1 <1>        0.000
     22 H          -2.3646    2.4978   -0.1567 H.spc      1 <1>        0.000
@<TRIPOS>BOND
     1    1   10 ar 
     2   12   13 ar 
     3    8    9 ar 
     4   11   12 ar 
     5    6    7 ar 
     6    5   11 ar 
     7   13   14 ar 
     8    7    8 ar 
     9    4    5 ar 
    10    2    3 ar 
    11    5    6 ar 
    12    3    4 ar 
    13    4   14 ar 
    14    9   10 ar 
    15    2    7 ar 
    16    1    2 ar 
    17    1   15 1  
    18    8   16 1  
    19    9   17 1  
    20   10   18 1  
    21   11   19 1  
    22   12   20 1  
    23   13   21 1  
    24   14   22 1  
# Name:          frag2-049-26/92655 -- energy: -0.143082
# Creation time: Sat Jun  5 12:51:57 2010


@<TRIPOS>MOLECULE
frag2-049-26/92655 -- energy: -0.143082
   22    24     1     1     1
SMALL
USER_CHARGES


@<TRIPOS>ATOM
      1 C5          2.3964    1.3710   -0.0550 C.ar       1 <1>        0.000
      2 C6          1.1795    0.6865   -0.0249 C.ar       1 <1>        0.000
      3 N1          0.0113    1.3619   -0.0686 N.ar       1 <1>        0.000
      4 C7         -1.1678    0.7052   -0.0423 C.ar       1 <1>        0.000
      5 C8         -1.1808   -0.6885    0.0386 C.ar       1 <1>        0.000
      6 N2         -0.0114   -1.3638    0.0857 N.ar       1 <1>        0.000
      7 C9          1.1689   -0.7075    0.0502 C.ar       1 <1>        0.000
      8 C10         2.3758   -1.4108    0.0872 C.ar       1 <1>        0.000
      9 C11         3.5879   -0.7238    0.0545 C.ar       1 <1>        0.000
     10 C12         3.5979    0.6677   -0.0149 C.ar       1 <1>        0.000
     11 C13        -2.3989   -1.3723    0.0684 C.ar       1 <1>        0.000
     12 C14        -3.5996   -0.6657    0.0130 C.ar       1 <1>        0.000
     13 C15        -3.5867    0.7241   -0.0692 C.ar       1 <1>        0.000
     14 C16        -2.3731    1.4096   -0.0951 C.ar       1 <1>        0.000
     15 H           2.4059    2.4596   -0.1101 H.spc      1 <1>        0.000
     16 H           2.3692   -2.4994    0.1418 H.spc      1 <1>        0.000
     17 H           4.5278   -1.2750    0.0832 H.spc      1 <1>        0.000
     18 H           4.5456    1.2057   -0.0378 H.spc      1 <1>        0.000
     19 H          -2.4105   -2.4602    0.1351 H.spc      1 <1>        0.000
     20 H          -4.5486   -1.2015    0.0340 H.spc      1 <1>        0.000
     21 H          -4.5255    1.2762   -0.1133 H.spc      1 <1>        0.000
     22 H          -2.3646    2.4978   -0.1567 H.spc      1 <1>        0.000
@<TRIPOS>BOND
     1    1   10 ar 
     2   12   13 ar 
     3    8    9 ar 
     4   11   12 ar 
     5    6    7 ar 
     6    5   11 ar 
     7   13   14 ar 
     8    7    8 ar 
     9    4    5 ar 
    10    2    3 ar 
    11    5    6 ar 
    12    3    4 ar 
    13    4   14 ar 
    14    9   10 ar 
    15    2    7 ar 
    16    1    2 ar 
    17    1   15 1  
    18    8   16 1  
    19    9   17 1  
    20   10   18 1  
    21   11   19 1  
    22   12   20 1  
    23   13   21 1  
    24   14   22 1  
