#      Rotatable Fragment
#      Build by yxyuan
#
# Name:          frag5-518-361/138278
# Creation time: Sat Jun  5 12:53:40 2010


@<TRIPOS>MOLECULE
frag5-518-361/138278
   15    15     1     1     1
SMALL
USER_CHARGES


@<TRIPOS>ATOM
      1 C16         2.1692   -0.0601   -0.0699 C.ar       1 <1>        0.000
      2 C17         1.3886   -1.1792   -0.3466 C.ar       1 <1>        0.000
      3 C18         1.5656    1.1386    0.3124 C.ar       1 <1>        0.000
      4 C19         0.0066   -1.1072   -0.2197 C.ar       1 <1>        0.000
      5 C20         0.1827    1.2197    0.4407 C.ar       1 <1>        0.000
      6 C21        -0.6197    0.1056    0.1333 C.ar       1 <1>        0.000
      7 C22        -2.0982    0.2433    0.1799 C.2        1 <1>        0.000
      8 O2         -2.6742    0.5455    1.2124 O.2        1 <1>        0.000
      9 O3         -2.6408    0.0223   -1.0148 O.3        1 <1>        0.000
     10 H           3.2544   -0.1204   -0.1521 H.spc      1 <1>        0.000
     11 H           1.8604   -2.1098   -0.6621 H.spc      1 <1>        0.000
     12 H           2.1809    2.0160    0.5115 H.spc      1 <1>        0.000
     13 H          -0.5988   -1.9966   -0.3947 H.spc      1 <1>        0.000
     14 H          -0.2794    2.1469    0.7796 H.spc      1 <1>        0.000
     15 H          -1.9493   -0.1979   -1.6433 H.spc      1 <1>        0.000
@<TRIPOS>BOND
     1    7    9 1  
     2    1    2 ar 
     3    1    3 ar 
     4    2    4 ar 
     5    3    5 ar 
     6    4    6 ar 
     7    5    6 ar 
     8    6    7 1  
     9    7    8 2  
    10    1   10 1  
    11    2   11 1  
    12    3   12 1  
    13    4   13 1  
    14    5   14 1  
    15    9   15 1  
# Name:          frag5-518-361/138278
# Creation time: Sat Jun  5 12:53:40 2010


@<TRIPOS>MOLECULE
frag5-518-361/138278
   15    15     1     1     1
SMALL
USER_CHARGES


@<TRIPOS>ATOM
      1 C16         2.1676   -0.0742   -0.0774 C.ar       1 <1>        0.000
      2 C17         1.4128   -1.2361    0.0599 C.ar       1 <1>        0.000
      3 C18         1.5386    1.1710   -0.1049 C.ar       1 <1>        0.000
      4 C19         0.0309   -1.1527    0.1910 C.ar       1 <1>        0.000
      5 C20         0.1544    1.2628    0.0267 C.ar       1 <1>        0.000
      6 C21        -0.6213    0.0969    0.1342 C.ar       1 <1>        0.000
      7 C22        -2.1036    0.2124    0.1707 C.2        1 <1>        0.000
      8 O2         -2.7554   -0.3421    1.0397 O.2        1 <1>        0.000
      9 O3         -2.5443    0.9905   -0.8123 O.3        1 <1>        0.000
     10 H           3.2523   -0.1375   -0.1636 H.spc      1 <1>        0.000
     11 H           1.9041   -2.2091    0.0646 H.spc      1 <1>        0.000
     12 H           2.1328    2.0762   -0.2299 H.spc      1 <1>        0.000
     13 H          -0.5535   -2.0608    0.3389 H.spc      1 <1>        0.000
     14 H          -0.3269    2.2406    0.0462 H.spc      1 <1>        0.000
     15 H          -1.8009    1.2852   -1.3434 H.spc      1 <1>        0.000
@<TRIPOS>BOND
     1    7    9 1  
     2    1    2 ar 
     3    1    3 ar 
     4    2    4 ar 
     5    3    5 ar 
     6    4    6 ar 
     7    5    6 ar 
     8    6    7 1  
     9    7    8 2  
    10    1   10 1  
    11    2   11 1  
    12    3   12 1  
    13    4   13 1  
    14    5   14 1  
    15    9   15 1  
# Name:          frag5-518-361/138278 -- energy: -0.216375
# Creation time: Sat Jun  5 12:53:40 2010


@<TRIPOS>MOLECULE
frag5-518-361/138278 -- energy: -0.216375
   15    15     1     1     1
SMALL
USER_CHARGES


@<TRIPOS>ATOM
      1 C16         2.1692   -0.0601   -0.0699 C.ar       1 <1>        0.000
      2 C17         1.3886   -1.1792   -0.3466 C.ar       1 <1>        0.000
      3 C18         1.5656    1.1386    0.3124 C.ar       1 <1>        0.000
      4 C19         0.0066   -1.1072   -0.2197 C.ar       1 <1>        0.000
      5 C20         0.1827    1.2197    0.4407 C.ar       1 <1>        0.000
      6 C21        -0.6197    0.1056    0.1333 C.ar       1 <1>        0.000
      7 C22        -2.0982    0.2433    0.1799 C.2        1 <1>        0.000
      8 O2         -2.6742    0.5455    1.2124 O.2        1 <1>        0.000
      9 O3         -2.6408    0.0223   -1.0148 O.3        1 <1>        0.000
     10 H           3.2544   -0.1204   -0.1521 H.spc      1 <1>        0.000
     11 H           1.8604   -2.1098   -0.6621 H.spc      1 <1>        0.000
     12 H           2.1809    2.0160    0.5115 H.spc      1 <1>        0.000
     13 H          -0.5988   -1.9966   -0.3947 H.spc      1 <1>        0.000
     14 H          -0.2794    2.1469    0.7796 H.spc      1 <1>        0.000
     15 H          -1.9493   -0.1979   -1.6433 H.spc      1 <1>        0.000
@<TRIPOS>BOND
     1    7    9 1  
     2    1    2 ar 
     3    1    3 ar 
     4    2    4 ar 
     5    3    5 ar 
     6    4    6 ar 
     7    5    6 ar 
     8    6    7 1  
     9    7    8 2  
    10    1   10 1  
    11    2   11 1  
    12    3   12 1  
    13    4   13 1  
    14    5   14 1  
    15    9   15 1  
# Name:          frag5-518-361/138278 -- energy: 0.122071
# Creation time: Sat Jun  5 12:53:40 2010


@<TRIPOS>MOLECULE
frag5-518-361/138278 -- energy: 0.122071
   15    15     1     1     1
SMALL
USER_CHARGES


@<TRIPOS>ATOM
      1 C16         2.1676   -0.0742   -0.0774 C.ar       1 <1>        0.000
      2 C17         1.4128   -1.2361    0.0599 C.ar       1 <1>        0.000
      3 C18         1.5386    1.1710   -0.1049 C.ar       1 <1>        0.000
      4 C19         0.0309   -1.1527    0.1910 C.ar       1 <1>        0.000
      5 C20         0.1544    1.2628    0.0267 C.ar       1 <1>        0.000
      6 C21        -0.6213    0.0969    0.1342 C.ar       1 <1>        0.000
      7 C22        -2.1036    0.2124    0.1707 C.2        1 <1>        0.000
      8 O2         -2.7554   -0.3421    1.0397 O.2        1 <1>        0.000
      9 O3         -2.5443    0.9905   -0.8123 O.3        1 <1>        0.000
     10 H           3.2523   -0.1375   -0.1636 H.spc      1 <1>        0.000
     11 H           1.9041   -2.2091    0.0646 H.spc      1 <1>        0.000
     12 H           2.1328    2.0762   -0.2299 H.spc      1 <1>        0.000
     13 H          -0.5535   -2.0608    0.3389 H.spc      1 <1>        0.000
     14 H          -0.3269    2.2406    0.0462 H.spc      1 <1>        0.000
     15 H          -1.8009    1.2852   -1.3434 H.spc      1 <1>        0.000
@<TRIPOS>BOND
     1    7    9 1  
     2    1    2 ar 
     3    1    3 ar 
     4    2    4 ar 
     5    3    5 ar 
     6    4    6 ar 
     7    5    6 ar 
     8    6    7 1  
     9    7    8 2  
    10    1   10 1  
    11    2   11 1  
    12    3   12 1  
    13    4   13 1  
    14    5   14 1  
    15    9   15 1  
