#      Rotatable Fragment
#      Build by yxyuan
#
# Name:          frag4-448-41/48856
# Creation time: Sat Jun  5 12:52:48 2010


@<TRIPOS>MOLECULE
frag4-448-41/48856
   12    12     1     1     1
SMALL
USER_CHARGES


@<TRIPOS>ATOM
      1 C7          3.6639    2.1099   -2.4578 C.3        1 <1>        0.000
      2 S1          4.5655    3.1632   -1.3941 S.3        1 <1>        0.000
      3 C8          5.3603    1.7772   -0.6075 C.3        1 <1>        0.000
      4 C9          5.2047    0.5599   -1.5626 C.3        1 <1>        0.000
      5 N1          4.2456    0.8241   -2.6021 N.3        1 <1>        0.000
      6 H           3.6459    2.5751   -3.4434 H.spc      1 <1>        0.000
      7 H           2.6726    1.9756   -2.0248 H.spc      1 <1>        0.000
      8 H           4.9028    1.5689    0.3597 H.spc      1 <1>        0.000
      9 H           6.4133    1.9905   -0.4238 H.spc      1 <1>        0.000
     10 H           4.8565   -0.2933   -0.9804 H.spc      1 <1>        0.000
     11 H           6.1704    0.3597   -2.0267 H.spc      1 <1>        0.000
     12 H           4.7250    0.7853   -3.5016 H.spc      1 <1>        0.000
@<TRIPOS>BOND
     1    1    2 1  
     2    1    5 1  
     3    2    3 1  
     4    3    4 1  
     5    4    5 1  
     6    1    6 1  
     7    1    7 1  
     8    3    8 1  
     9    3    9 1  
    10    4   10 1  
    11    4   11 1  
    12    5   12 1  
# Name:          frag4-448-41/48856 -- energy: -0.555098
# Creation time: Sat Jun  5 12:52:48 2010


@<TRIPOS>MOLECULE
frag4-448-41/48856 -- energy: -0.555098
   12    12     1     1     1
SMALL
USER_CHARGES


@<TRIPOS>ATOM
      1 C7          3.6639    2.1099   -2.4578 C.3        1 <1>        0.000
      2 S1          4.5655    3.1632   -1.3941 S.3        1 <1>        0.000
      3 C8          5.3603    1.7772   -0.6075 C.3        1 <1>        0.000
      4 C9          5.2047    0.5599   -1.5626 C.3        1 <1>        0.000
      5 N1          4.2456    0.8241   -2.6021 N.3        1 <1>        0.000
      6 H           3.6459    2.5751   -3.4434 H.spc      1 <1>        0.000
      7 H           2.6726    1.9756   -2.0248 H.spc      1 <1>        0.000
      8 H           4.9028    1.5689    0.3597 H.spc      1 <1>        0.000
      9 H           6.4133    1.9905   -0.4238 H.spc      1 <1>        0.000
     10 H           4.8565   -0.2933   -0.9804 H.spc      1 <1>        0.000
     11 H           6.1704    0.3597   -2.0267 H.spc      1 <1>        0.000
     12 H           4.7250    0.7853   -3.5016 H.spc      1 <1>        0.000
@<TRIPOS>BOND
     1    1    2 1  
     2    1    5 1  
     3    2    3 1  
     4    3    4 1  
     5    4    5 1  
     6    1    6 1  
     7    1    7 1  
     8    3    8 1  
     9    3    9 1  
    10    4   10 1  
    11    4   11 1  
    12    5   12 1  
