#      Rotatable Fragment
#      Build by yxyuan
#
# Name:          frag4-414-170/150395
# Creation time: Sat Jun  5 12:53:34 2010


@<TRIPOS>MOLECULE
frag4-414-170/150395
   24    25     1     1     1
SMALL
USER_CHARGES


@<TRIPOS>ATOM
      1 C1         -1.9648    0.2379   -0.1464 C.ar       1 <1>        0.000
      2 C2         -1.9788   -1.2034   -0.2499 C.ar       1 <1>        0.000
      3 C3         -0.7693    1.1339   -0.3223 C.3        1 <1>        0.000
      4 C4         -3.1965    0.8661    0.0893 C.ar       1 <1>        0.000
      5 N1         -0.9193   -1.9899   -0.5112 N.pl3      1 <1>        0.000
      6 C5         -3.1966   -1.8235    0.0773 C.ar       1 <1>        0.000
      7 C6          0.6384    0.5817   -0.2818 C.3        1 <1>        0.000
      8 C7         -4.3873    0.1945    0.2592 C.ar       1 <1>        0.000
      9 C9          0.3090   -1.7517   -0.0660 C.3        1 <1>        0.000
     10 C11        -4.3884   -1.1733    0.2581 C.ar       1 <1>        0.000
     11 C12         0.7587   -0.5547    0.6765 C.3        1 <1>        0.000
     12 H          -0.8731    1.5129   -1.3390 H.spc      1 <1>        0.000
     13 H          -0.8136    1.8020    0.5378 H.spc      1 <1>        0.000
     14 H          -3.2125    1.9547    0.1413 H.spc      1 <1>        0.000
     15 H          -1.0683   -2.8193   -1.0860 H.spc      1 <1>        0.000
     16 H          -3.1924   -2.9069    0.1966 H.spc      1 <1>        0.000
     17 H           1.3097    1.3768    0.0428 H.spc      1 <1>        0.000
     18 H           0.8936    0.2193   -1.2776 H.spc      1 <1>        0.000
     19 H          -5.3176    0.7466    0.3929 H.spc      1 <1>        0.000
     20 H           0.4278   -2.5341    0.6836 H.spc      1 <1>        0.000
     21 H           0.8669   -1.6562   -0.9975 H.spc      1 <1>        0.000
     22 H          -5.3141   -1.7316    0.3976 H.spc      1 <1>        0.000
     23 H           0.1542   -0.3891    1.5683 H.spc      1 <1>        0.000
     24 H           1.7826   -0.6685    1.0325 H.spc      1 <1>        0.000
@<TRIPOS>BOND
     1    2    6 ar 
     2    1    4 ar 
     3    3    7 1  
     4    4    8 ar 
     5    7   11 1  
     6    8   10 ar 
     7    9   11 1  
     8    1    3 1  
     9    5    9 1  
    10    1    2 ar 
    11    2    5 1  
    12    6   10 ar 
    13    3   12 1  
    14    3   13 1  
    15    4   14 1  
    16    5   15 1  
    17    6   16 1  
    18    7   17 1  
    19    7   18 1  
    20    8   19 1  
    21    9   20 1  
    22    9   21 1  
    23   10   22 1  
    24   11   23 1  
    25   11   24 1  
# Name:          frag4-414-170/150395 -- energy: -1.443052
# Creation time: Sat Jun  5 12:53:34 2010


@<TRIPOS>MOLECULE
frag4-414-170/150395 -- energy: -1.443052
   24    25     1     1     1
SMALL
USER_CHARGES


@<TRIPOS>ATOM
      1 C1         -1.9648    0.2379   -0.1464 C.ar       1 <1>        0.000
      2 C2         -1.9788   -1.2034   -0.2499 C.ar       1 <1>        0.000
      3 C3         -0.7693    1.1339   -0.3223 C.3        1 <1>        0.000
      4 C4         -3.1965    0.8661    0.0893 C.ar       1 <1>        0.000
      5 N1         -0.9193   -1.9899   -0.5112 N.pl3      1 <1>        0.000
      6 C5         -3.1966   -1.8235    0.0773 C.ar       1 <1>        0.000
      7 C6          0.6384    0.5817   -0.2818 C.3        1 <1>        0.000
      8 C7         -4.3873    0.1945    0.2592 C.ar       1 <1>        0.000
      9 C9          0.3090   -1.7517   -0.0660 C.3        1 <1>        0.000
     10 C11        -4.3884   -1.1733    0.2581 C.ar       1 <1>        0.000
     11 C12         0.7587   -0.5547    0.6765 C.3        1 <1>        0.000
     12 H          -0.8731    1.5129   -1.3390 H.spc      1 <1>        0.000
     13 H          -0.8136    1.8020    0.5378 H.spc      1 <1>        0.000
     14 H          -3.2125    1.9547    0.1413 H.spc      1 <1>        0.000
     15 H          -1.0683   -2.8193   -1.0860 H.spc      1 <1>        0.000
     16 H          -3.1924   -2.9069    0.1966 H.spc      1 <1>        0.000
     17 H           1.3097    1.3768    0.0428 H.spc      1 <1>        0.000
     18 H           0.8936    0.2193   -1.2776 H.spc      1 <1>        0.000
     19 H          -5.3176    0.7466    0.3929 H.spc      1 <1>        0.000
     20 H           0.4278   -2.5341    0.6836 H.spc      1 <1>        0.000
     21 H           0.8669   -1.6562   -0.9975 H.spc      1 <1>        0.000
     22 H          -5.3141   -1.7316    0.3976 H.spc      1 <1>        0.000
     23 H           0.1542   -0.3891    1.5683 H.spc      1 <1>        0.000
     24 H           1.7826   -0.6685    1.0325 H.spc      1 <1>        0.000
@<TRIPOS>BOND
     1    2    6 ar 
     2    1    4 ar 
     3    3    7 1  
     4    4    8 ar 
     5    7   11 1  
     6    8   10 ar 
     7    9   11 1  
     8    1    3 1  
     9    5    9 1  
    10    1    2 ar 
    11    2    5 1  
    12    6   10 ar 
    13    3   12 1  
    14    3   13 1  
    15    4   14 1  
    16    5   15 1  
    17    6   16 1  
    18    7   17 1  
    19    7   18 1  
    20    8   19 1  
    21    9   20 1  
    22    9   21 1  
    23   10   22 1  
    24   11   23 1  
    25   11   24 1  
