#      Rotatable Fragment
#      Build by yxyuan
#
# Name:          frag3-150-16/31924
# Creation time: Sat Jun  5 12:52:04 2010


@<TRIPOS>MOLECULE
frag3-150-16/31924
    6     5     1     1     1
SMALL
USER_CHARGES


@<TRIPOS>ATOM
      1 C9         -0.6749   -0.2447   -0.0539 C.2        1 <1>        0.000
      2 C10         0.4960    0.3362    0.1247 C.2        1 <1>        0.000
      3 Cl1         1.9513   -0.3929   -0.4440 Cl         1 <1>        0.000
      4 H          -0.7347   -1.2033   -0.5692 H.spc      1 <1>        0.000
      5 H          -1.5825    0.2340    0.3138 H.spc      1 <1>        0.000
      6 H           0.5443    1.2948    0.6413 H.spc      1 <1>        0.000
@<TRIPOS>BOND
     1    1    2 2  
     2    2    3 1  
     3    1    4 1  
     4    1    5 1  
     5    2    6 1  
# Name:          frag3-150-16/31924 -- energy: -0.107210
# Creation time: Sat Jun  5 12:52:04 2010


@<TRIPOS>MOLECULE
frag3-150-16/31924 -- energy: -0.107210
    6     5     1     1     1
SMALL
USER_CHARGES


@<TRIPOS>ATOM
      1 C9         -0.6749   -0.2447   -0.0539 C.2        1 <1>        0.000
      2 C10         0.4960    0.3362    0.1247 C.2        1 <1>        0.000
      3 Cl1         1.9513   -0.3929   -0.4440 Cl         1 <1>        0.000
      4 H          -0.7347   -1.2033   -0.5692 H.spc      1 <1>        0.000
      5 H          -1.5825    0.2340    0.3138 H.spc      1 <1>        0.000
      6 H           0.5443    1.2948    0.6413 H.spc      1 <1>        0.000
@<TRIPOS>BOND
     1    1    2 2  
     2    2    3 1  
     3    1    4 1  
     4    1    5 1  
     5    2    6 1  
