#      Rotatable Fragment
#      Build by yxyuan
#
# Name:          frag5-504-234/41815
# Creation time: Sat Jun  5 12:52:50 2010


@<TRIPOS>MOLECULE
frag5-504-234/41815
   15    15     1     1     1
SMALL
USER_CHARGES


@<TRIPOS>ATOM
      1 C12        -0.3515    1.7388    0.0208 C.ar       1 <1>        0.000
      2 C13         0.9600    1.2538    0.0643 C.ar       1 <1>        0.000
      3 C14         1.2081   -0.1318    0.0425 C.ar       1 <1>        0.000
      4 C15         0.1232   -1.0296   -0.0271 C.ar       1 <1>        0.000
      5 C16        -1.1976   -0.5427   -0.0682 C.ar       1 <1>        0.000
      6 C17        -1.4252    0.8442   -0.0454 C.ar       1 <1>        0.000
      7 O3         -2.2582   -1.4256   -0.1304 O.3        1 <1>        0.000
      8 O4          0.3529   -2.3895   -0.0552 O.3        1 <1>        0.000
      9 O5          2.5004   -0.6134    0.0889 O.3        1 <1>        0.000
     10 H          -0.5367    2.8128    0.0385 H.spc      1 <1>        0.000
     11 H           1.7947    1.9529    0.1154 H.spc      1 <1>        0.000
     12 H          -2.4457    1.2255   -0.0795 H.spc      1 <1>        0.000
     13 H          -3.0821   -0.9333   -0.1517 H.spc      1 <1>        0.000
     14 H          -0.4861   -2.8537   -0.1027 H.spc      1 <1>        0.000
     15 H           2.4841   -1.5730    0.0654 H.spc      1 <1>        0.000
@<TRIPOS>BOND
     1    1    2 ar 
     2    1    6 ar 
     3    2    3 ar 
     4    3    4 ar 
     5    3    9 1  
     6    4    5 ar 
     7    4    8 1  
     8    5    6 ar 
     9    5    7 1  
    10    1   10 1  
    11    2   11 1  
    12    6   12 1  
    13    7   13 1  
    14    8   14 1  
    15    9   15 1  
# Name:          frag5-504-234/41815 -- energy: 0.118820
# Creation time: Sat Jun  5 12:52:50 2010


@<TRIPOS>MOLECULE
frag5-504-234/41815 -- energy: 0.118820
   15    15     1     1     1
SMALL
USER_CHARGES


@<TRIPOS>ATOM
      1 C12        -0.3515    1.7388    0.0208 C.ar       1 <1>        0.000
      2 C13         0.9600    1.2538    0.0643 C.ar       1 <1>        0.000
      3 C14         1.2081   -0.1318    0.0425 C.ar       1 <1>        0.000
      4 C15         0.1232   -1.0296   -0.0271 C.ar       1 <1>        0.000
      5 C16        -1.1976   -0.5427   -0.0682 C.ar       1 <1>        0.000
      6 C17        -1.4252    0.8442   -0.0454 C.ar       1 <1>        0.000
      7 O3         -2.2582   -1.4256   -0.1304 O.3        1 <1>        0.000
      8 O4          0.3529   -2.3895   -0.0552 O.3        1 <1>        0.000
      9 O5          2.5004   -0.6134    0.0889 O.3        1 <1>        0.000
     10 H          -0.5367    2.8128    0.0385 H.spc      1 <1>        0.000
     11 H           1.7947    1.9529    0.1154 H.spc      1 <1>        0.000
     12 H          -2.4457    1.2255   -0.0795 H.spc      1 <1>        0.000
     13 H          -3.0821   -0.9333   -0.1517 H.spc      1 <1>        0.000
     14 H          -0.4861   -2.8537   -0.1027 H.spc      1 <1>        0.000
     15 H           2.4841   -1.5730    0.0654 H.spc      1 <1>        0.000
@<TRIPOS>BOND
     1    1    2 ar 
     2    1    6 ar 
     3    2    3 ar 
     4    3    4 ar 
     5    3    9 1  
     6    4    5 ar 
     7    4    8 1  
     8    5    6 ar 
     9    5    7 1  
    10    1   10 1  
    11    2   11 1  
    12    6   12 1  
    13    7   13 1  
    14    8   14 1  
    15    9   15 1  
