#      Rotatable Fragment
#      Build by yxyuan
#
# Name:          frag5-631-30/41815
# Creation time: Sat Jun  5 12:53:00 2010


@<TRIPOS>MOLECULE
frag5-631-30/41815
   39    43     1     1     1
SMALL
USER_CHARGES


@<TRIPOS>ATOM
      1 N1          4.1757    0.7740    0.2276 N.4        1 <1>        0.000
      2 C1          3.5753   -0.3909    0.9205 C.3        1 <1>        0.000
      3 C2          2.3918    0.0115    1.8169 C.3        1 <1>        0.000
      4 C3          1.3823    0.8881    1.0404 C.3        1 <1>        0.000
      5 C4          0.0177    1.0742    1.7864 C.3        1 <1>        0.000
      6 O1         -0.7171   -0.1538    1.5961 O.3        1 <1>        0.000
      7 C5         -0.3214   -0.5342    0.3259 C.ar       1 <1>        0.000
      8 C6          0.8505    0.0746   -0.1047 C.ar       1 <1>        0.000
      9 C14         2.0987    2.1267    0.4517 C.3        1 <1>        0.000
     10 C7          1.3788   -0.0448   -1.3892 C.ar       1 <1>        0.000
     11 C8          0.7213   -0.9580   -2.2196 C.ar       1 <1>        0.000
     12 C9         -0.4207   -1.6355   -1.7879 C.ar       1 <1>        0.000
     13 C10        -0.9837   -1.4278   -0.5132 C.ar       1 <1>        0.000
     14 O2         -2.1289   -2.0565   -0.0820 O.3        1 <1>        0.000
     15 C12         2.5762    0.8157   -1.7478 C.3        1 <1>        0.000
     16 C13         3.1891    1.5938   -0.5289 C.3        1 <1>        0.000
     17 C15         1.1071    3.1314   -0.1651 C.3        1 <1>        0.000
     18 C16         0.0033    3.4769    0.8468 C.3        1 <1>        0.000
     19 C17        -0.8223    2.2289    1.1796 C.3        1 <1>        0.000
     20 H           4.8524    0.4134   -0.4450 H.spc      1 <1>        0.000
     21 H           4.5878    1.3746    0.9416 H.spc      1 <1>        0.000
     22 H           4.3411   -0.8409    1.5523 H.spc      1 <1>        0.000
     23 H           3.2067   -1.0826    0.1630 H.spc      1 <1>        0.000
     24 H           1.8841   -0.8926    2.1529 H.spc      1 <1>        0.000
     25 H           2.7725    0.5828    2.6635 H.spc      1 <1>        0.000
     26 H           0.2055    1.3103    2.8338 H.spc      1 <1>        0.000
     27 H           2.5877    2.7140    1.2290 H.spc      1 <1>        0.000
     28 H           1.1073   -1.1442   -3.2218 H.spc      1 <1>        0.000
     29 H          -0.8935   -2.3506   -2.4611 H.spc      1 <1>        0.000
     30 H          -2.4562   -2.6339   -0.7756 H.spc      1 <1>        0.000
     31 H           3.3505    0.1505   -2.1300 H.spc      1 <1>        0.000
     32 H           2.2367    1.5590   -2.4691 H.spc      1 <1>        0.000
     33 H           3.7064    2.4479   -0.9659 H.spc      1 <1>        0.000
     34 H           1.6426    4.0420   -0.4338 H.spc      1 <1>        0.000
     35 H           0.6529    2.6866   -1.0505 H.spc      1 <1>        0.000
     36 H           0.4631    3.8536    1.7604 H.spc      1 <1>        0.000
     37 H          -0.6524    4.2326    0.4142 H.spc      1 <1>        0.000
     38 H          -1.5668    2.5172    1.9217 H.spc      1 <1>        0.000
     39 H          -1.2549    1.8645    0.2479 H.spc      1 <1>        0.000
@<TRIPOS>BOND
     1    5    6 1  
     2    4    9 1  
     3    1    2 1  
     4    5   19 1  
     5    4    5 1  
     6    1   16 1  
     7    6    7 1  
     8    3    4 1  
     9    2    3 1  
    10    7   13 ar 
    11    7    8 ar 
    12    4    8 1  
    13   18   19 1  
    14   17   18 1  
    15    9   17 1  
    16   16    9 1  
    17   15   16 1  
    18   13   14 1  
    19   12   13 ar 
    20   10   15 1  
    21   11   12 ar 
    22   10   11 ar 
    23    8   10 ar 
    24    1   20 1  
    25    1   21 1  
    26    2   22 1  
    27    2   23 1  
    28    3   24 1  
    29    3   25 1  
    30    5   26 1  
    31    9   27 1  
    32   11   28 1  
    33   12   29 1  
    34   14   30 1  
    35   15   31 1  
    36   15   32 1  
    37   16   33 1  
    38   17   34 1  
    39   17   35 1  
    40   18   36 1  
    41   18   37 1  
    42   19   38 1  
    43   19   39 1  
# Name:          frag5-631-30/41815 -- energy: -7.783177
# Creation time: Sat Jun  5 12:53:00 2010


@<TRIPOS>MOLECULE
frag5-631-30/41815 -- energy: -7.783177
   39    43     1     1     1
SMALL
USER_CHARGES


@<TRIPOS>ATOM
      1 N1          4.1757    0.7740    0.2276 N.4        1 <1>        0.000
      2 C1          3.5753   -0.3909    0.9205 C.3        1 <1>        0.000
      3 C2          2.3918    0.0115    1.8169 C.3        1 <1>        0.000
      4 C3          1.3823    0.8881    1.0404 C.3        1 <1>        0.000
      5 C4          0.0177    1.0742    1.7864 C.3        1 <1>        0.000
      6 O1         -0.7171   -0.1538    1.5961 O.3        1 <1>        0.000
      7 C5         -0.3214   -0.5342    0.3259 C.ar       1 <1>        0.000
      8 C6          0.8505    0.0746   -0.1047 C.ar       1 <1>        0.000
      9 C14         2.0987    2.1267    0.4517 C.3        1 <1>        0.000
     10 C7          1.3788   -0.0448   -1.3892 C.ar       1 <1>        0.000
     11 C8          0.7213   -0.9580   -2.2196 C.ar       1 <1>        0.000
     12 C9         -0.4207   -1.6355   -1.7879 C.ar       1 <1>        0.000
     13 C10        -0.9837   -1.4278   -0.5132 C.ar       1 <1>        0.000
     14 O2         -2.1289   -2.0565   -0.0820 O.3        1 <1>        0.000
     15 C12         2.5762    0.8157   -1.7478 C.3        1 <1>        0.000
     16 C13         3.1891    1.5938   -0.5289 C.3        1 <1>        0.000
     17 C15         1.1071    3.1314   -0.1651 C.3        1 <1>        0.000
     18 C16         0.0033    3.4769    0.8468 C.3        1 <1>        0.000
     19 C17        -0.8223    2.2289    1.1796 C.3        1 <1>        0.000
     20 H           4.8524    0.4134   -0.4450 H.spc      1 <1>        0.000
     21 H           4.5878    1.3746    0.9416 H.spc      1 <1>        0.000
     22 H           4.3411   -0.8409    1.5523 H.spc      1 <1>        0.000
     23 H           3.2067   -1.0826    0.1630 H.spc      1 <1>        0.000
     24 H           1.8841   -0.8926    2.1529 H.spc      1 <1>        0.000
     25 H           2.7725    0.5828    2.6635 H.spc      1 <1>        0.000
     26 H           0.2055    1.3103    2.8338 H.spc      1 <1>        0.000
     27 H           2.5877    2.7140    1.2290 H.spc      1 <1>        0.000
     28 H           1.1073   -1.1442   -3.2218 H.spc      1 <1>        0.000
     29 H          -0.8935   -2.3506   -2.4611 H.spc      1 <1>        0.000
     30 H          -2.4562   -2.6339   -0.7756 H.spc      1 <1>        0.000
     31 H           3.3505    0.1505   -2.1300 H.spc      1 <1>        0.000
     32 H           2.2367    1.5590   -2.4691 H.spc      1 <1>        0.000
     33 H           3.7064    2.4479   -0.9659 H.spc      1 <1>        0.000
     34 H           1.6426    4.0420   -0.4338 H.spc      1 <1>        0.000
     35 H           0.6529    2.6866   -1.0505 H.spc      1 <1>        0.000
     36 H           0.4631    3.8536    1.7604 H.spc      1 <1>        0.000
     37 H          -0.6524    4.2326    0.4142 H.spc      1 <1>        0.000
     38 H          -1.5668    2.5172    1.9217 H.spc      1 <1>        0.000
     39 H          -1.2549    1.8645    0.2479 H.spc      1 <1>        0.000
@<TRIPOS>BOND
     1    5    6 1  
     2    4    9 1  
     3    1    2 1  
     4    5   19 1  
     5    4    5 1  
     6    1   16 1  
     7    6    7 1  
     8    3    4 1  
     9    2    3 1  
    10    7   13 ar 
    11    7    8 ar 
    12    4    8 1  
    13   18   19 1  
    14   17   18 1  
    15    9   17 1  
    16   16    9 1  
    17   15   16 1  
    18   13   14 1  
    19   12   13 ar 
    20   10   15 1  
    21   11   12 ar 
    22   10   11 ar 
    23    8   10 ar 
    24    1   20 1  
    25    1   21 1  
    26    2   22 1  
    27    2   23 1  
    28    3   24 1  
    29    3   25 1  
    30    5   26 1  
    31    9   27 1  
    32   11   28 1  
    33   12   29 1  
    34   14   30 1  
    35   15   31 1  
    36   15   32 1  
    37   16   33 1  
    38   17   34 1  
    39   17   35 1  
    40   18   36 1  
    41   18   37 1  
    42   19   38 1  
    43   19   39 1  
