#      Rotatable Fragment
#      Build by yxyuan
#
# Name:          frag4-417-52/48856
# Creation time: Sat Jun  5 12:52:03 2010


@<TRIPOS>MOLECULE
frag4-417-52/48856
   31    34     1     1     1
SMALL
USER_CHARGES


@<TRIPOS>ATOM
      1 C11         3.5878   -2.0976    0.0457 C.ar       1 <1>        0.000
      2 C12         4.5452   -1.1513    0.0818 C.ar       1 <1>        0.000
      3 C13         4.2298    0.2599    0.1448 C.ar       1 <1>        0.000
      4 C14         2.9656    0.6579    0.1467 C.ar       1 <1>        0.000
      5 C15         1.9270   -0.4523    0.1090 C.ar       1 <1>        0.000
      6 C16         0.4530   -0.0617    0.0471 C.ar       1 <1>        0.000
      7 C17         0.1519    1.2857    0.0184 C.ar       1 <1>        0.000
      8 C26        -4.7756    0.0131   -0.1610 C.ar       1 <1>        0.000
      9 C18         1.1861    2.2972    0.0603 C.ar       1 <1>        0.000
     10 C19         2.4899    2.0116    0.1329 C.ar       1 <1>        0.000
     11 C21        -1.3145    1.6173   -0.0430 C.3        1 <1>        0.000
     12 C22        -2.4273    0.6480   -0.0754 C.ar       1 <1>        0.000
     13 C23        -2.0770   -0.7150   -0.0490 C.ar       1 <1>        0.000
     14 C24        -3.0652   -1.7083   -0.0765 C.ar       1 <1>        0.000
     15 C25        -4.4159   -1.3414   -0.1316 C.ar       1 <1>        0.000
     16 C27        -3.7833    1.0093   -0.1283 C.ar       1 <1>        0.000
     17 C28        -0.6558   -1.0295    0.0087 C.3        1 <1>        0.000
     18 O9          2.3256   -1.6960    0.1097 O.3        1 <1>        0.000
     19 H           3.8410   -3.1548   -0.0332 H.spc      1 <1>        0.000
     20 H           5.5910   -1.4579    0.0630 H.spc      1 <1>        0.000
     21 H           5.0325    0.9958    0.1907 H.spc      1 <1>        0.000
     22 H          -5.8274    0.2951   -0.2093 H.spc      1 <1>        0.000
     23 H           0.8867    3.3449    0.0312 H.spc      1 <1>        0.000
     24 H           3.2103    2.8281    0.1829 H.spc      1 <1>        0.000
     25 H          -1.3967    2.0840   -1.0246 H.spc      1 <1>        0.000
     26 H          -1.4729    2.1066    0.9181 H.spc      1 <1>        0.000
     27 H          -2.7841   -2.7612   -0.0551 H.spc      1 <1>        0.000
     28 H          -5.1883   -2.1102   -0.1516 H.spc      1 <1>        0.000
     29 H          -4.0668    2.0617   -0.1440 H.spc      1 <1>        0.000
     30 H          -0.4962   -1.5107   -0.9562 H.spc      1 <1>        0.000
     31 H          -0.5728   -1.5001    0.9884 H.spc      1 <1>        0.000
@<TRIPOS>BOND
     1   15    8 ar 
     2    4   10 ar 
     3    8   16 ar 
     4    1    2 ar 
     5    3    4 ar 
     6   14   15 ar 
     7   13   17 1  
     8   12   13 ar 
     9   13   14 ar 
    10    5    6 ar 
    11    7    9 ar 
    12    2    3 ar 
    13    6    7 ar 
    14    7   11 1  
    15    4    5 ar 
    16    5   18 ar 
    17    6   17 1  
    18   11   12 1  
    19   12   16 ar 
    20    9   10 ar 
    21    1   18 ar 
    22    1   19 1  
    23    2   20 1  
    24    3   21 1  
    25    8   22 1  
    26    9   23 1  
    27   10   24 1  
    28   11   25 1  
    29   11   26 1  
    30   14   27 1  
    31   15   28 1  
    32   16   29 1  
    33   17   30 1  
    34   17   31 1  
# Name:          frag4-417-52/48856 -- energy: -2.276373
# Creation time: Sat Jun  5 12:52:03 2010


@<TRIPOS>MOLECULE
frag4-417-52/48856 -- energy: -2.276373
   31    34     1     1     1
SMALL
USER_CHARGES


@<TRIPOS>ATOM
      1 C11         3.5878   -2.0976    0.0457 C.ar       1 <1>        0.000
      2 C12         4.5452   -1.1513    0.0818 C.ar       1 <1>        0.000
      3 C13         4.2298    0.2599    0.1448 C.ar       1 <1>        0.000
      4 C14         2.9656    0.6579    0.1467 C.ar       1 <1>        0.000
      5 C15         1.9270   -0.4523    0.1090 C.ar       1 <1>        0.000
      6 C16         0.4530   -0.0617    0.0471 C.ar       1 <1>        0.000
      7 C17         0.1519    1.2857    0.0184 C.ar       1 <1>        0.000
      8 C26        -4.7756    0.0131   -0.1610 C.ar       1 <1>        0.000
      9 C18         1.1861    2.2972    0.0603 C.ar       1 <1>        0.000
     10 C19         2.4899    2.0116    0.1329 C.ar       1 <1>        0.000
     11 C21        -1.3145    1.6173   -0.0430 C.3        1 <1>        0.000
     12 C22        -2.4273    0.6480   -0.0754 C.ar       1 <1>        0.000
     13 C23        -2.0770   -0.7150   -0.0490 C.ar       1 <1>        0.000
     14 C24        -3.0652   -1.7083   -0.0765 C.ar       1 <1>        0.000
     15 C25        -4.4159   -1.3414   -0.1316 C.ar       1 <1>        0.000
     16 C27        -3.7833    1.0093   -0.1283 C.ar       1 <1>        0.000
     17 C28        -0.6558   -1.0295    0.0087 C.3        1 <1>        0.000
     18 O9          2.3256   -1.6960    0.1097 O.3        1 <1>        0.000
     19 H           3.8410   -3.1548   -0.0332 H.spc      1 <1>        0.000
     20 H           5.5910   -1.4579    0.0630 H.spc      1 <1>        0.000
     21 H           5.0325    0.9958    0.1907 H.spc      1 <1>        0.000
     22 H          -5.8274    0.2951   -0.2093 H.spc      1 <1>        0.000
     23 H           0.8867    3.3449    0.0312 H.spc      1 <1>        0.000
     24 H           3.2103    2.8281    0.1829 H.spc      1 <1>        0.000
     25 H          -1.3967    2.0840   -1.0246 H.spc      1 <1>        0.000
     26 H          -1.4729    2.1066    0.9181 H.spc      1 <1>        0.000
     27 H          -2.7841   -2.7612   -0.0551 H.spc      1 <1>        0.000
     28 H          -5.1883   -2.1102   -0.1516 H.spc      1 <1>        0.000
     29 H          -4.0668    2.0617   -0.1440 H.spc      1 <1>        0.000
     30 H          -0.4962   -1.5107   -0.9562 H.spc      1 <1>        0.000
     31 H          -0.5728   -1.5001    0.9884 H.spc      1 <1>        0.000
@<TRIPOS>BOND
     1   15    8 ar 
     2    4   10 ar 
     3    8   16 ar 
     4    1    2 ar 
     5    3    4 ar 
     6   14   15 ar 
     7   13   17 1  
     8   12   13 ar 
     9   13   14 ar 
    10    5    6 ar 
    11    7    9 ar 
    12    2    3 ar 
    13    6    7 ar 
    14    7   11 1  
    15    4    5 ar 
    16    5   18 ar 
    17    6   17 1  
    18   11   12 1  
    19   12   16 ar 
    20    9   10 ar 
    21    1   18 ar 
    22    1   19 1  
    23    2   20 1  
    24    3   21 1  
    25    8   22 1  
    26    9   23 1  
    27   10   24 1  
    28   11   25 1  
    29   11   26 1  
    30   14   27 1  
    31   15   28 1  
    32   16   29 1  
    33   17   30 1  
    34   17   31 1  
