#      Rotatable Fragment
#      Build by yxyuan
#
# Name:          frag5-536-82/41815
# Creation time: Sat Jun  5 12:52:52 2010


@<TRIPOS>MOLECULE
frag5-536-82/41815
   21    21     1     1     1
SMALL
USER_CHARGES


@<TRIPOS>ATOM
      1 O7         -2.1276   -1.5047   -3.9121 O.3        1 <1>        0.000
      2 C12        -2.2210   -1.6358   -2.5880 C.2        1 <1>        0.000
      3 O8         -1.2800   -1.3509   -1.8578 O.2        1 <1>        0.000
      4 C13        -3.4714   -2.1425   -2.0017 C.2        1 <1>        0.000
      5 C14        -4.6876   -1.9426   -2.5482 C.2        1 <1>        0.000
      6 C15        -5.9715   -2.4429   -1.9583 C.ar       1 <1>        0.000
      7 C16        -6.9315   -3.0171   -2.7980 C.ar       1 <1>        0.000
      8 C17        -8.1310   -3.5472   -2.3191 C.ar       1 <1>        0.000
      9 C18        -8.4009   -3.4920   -0.9288 C.ar       1 <1>        0.000
     10 C19        -7.4572   -2.8902   -0.0858 C.ar       1 <1>        0.000
     11 C20        -6.2778   -2.3551   -0.5899 C.ar       1 <1>        0.000
     12 O9         -9.5783   -4.0283   -0.4528 O.3        1 <1>        0.000
     13 O10        -9.0382   -4.1174   -3.1856 O.3        1 <1>        0.000
     14 H          -2.9552   -1.7726   -4.3182 H.spc      1 <1>        0.000
     15 H          -3.4113   -2.7112   -1.0738 H.spc      1 <1>        0.000
     16 H          -4.7407   -1.3801   -3.4804 H.spc      1 <1>        0.000
     17 H          -6.7352   -3.0521   -3.8696 H.spc      1 <1>        0.000
     18 H          -7.6518   -2.8408    0.9856 H.spc      1 <1>        0.000
     19 H          -5.5804   -1.8602    0.0860 H.spc      1 <1>        0.000
     20 H         -10.0831   -4.3897   -1.1850 H.spc      1 <1>        0.000
     21 H          -8.6968   -4.0696   -4.0816 H.spc      1 <1>        0.000
@<TRIPOS>BOND
     1    5    6 1  
     2    9   10 ar 
     3    6    7 ar 
     4    8   13 1  
     5    4    5 2  
     6    6   11 ar 
     7    8    9 ar 
     8    2    4 1  
     9    7    8 ar 
    10    1    2 1  
    11    2    3 2  
    12   10   11 ar 
    13    9   12 1  
    14    1   14 1  
    15    4   15 1  
    16    5   16 1  
    17    7   17 1  
    18   10   18 1  
    19   11   19 1  
    20   12   20 1  
    21   13   21 1  
# Name:          frag5-536-82/41815
# Creation time: Sat Jun  5 12:52:52 2010


@<TRIPOS>MOLECULE
frag5-536-82/41815
   21    21     1     1     1
SMALL
USER_CHARGES


@<TRIPOS>ATOM
      1 O7         -1.5554   -1.7646   -2.0112 O.3        1 <1>        0.000
      2 C12        -2.4226   -1.5559   -3.0023 C.2        1 <1>        0.000
      3 O8         -2.0558   -1.1027   -4.0789 O.2        1 <1>        0.000
      4 C13        -3.8400   -1.8869   -2.7964 C.2        1 <1>        0.000
      5 C14        -4.3497   -2.3051   -1.6176 C.2        1 <1>        0.000
      6 C15        -5.7877   -2.6534   -1.3965 C.ar       1 <1>        0.000
      7 C16        -6.5713   -3.0750   -2.4735 C.ar       1 <1>        0.000
      8 C17        -7.9044   -3.4622   -2.3385 C.ar       1 <1>        0.000
      9 C18        -8.5038   -3.4187   -1.0534 C.ar       1 <1>        0.000
     10 C19        -7.7332   -2.9711    0.0298 C.ar       1 <1>        0.000
     11 C20        -6.4124   -2.5750   -0.1381 C.ar       1 <1>        0.000
     12 O9         -9.8136   -3.8166   -0.9163 O.3        1 <1>        0.000
     13 O10        -8.6239   -3.8796   -3.4329 O.3        1 <1>        0.000
     14 H          -2.0203   -2.1205   -1.2504 H.spc      1 <1>        0.000
     15 H          -4.5186   -1.7892   -3.6437 H.spc      1 <1>        0.000
     16 H          -3.6683   -2.3947   -0.7715 H.spc      1 <1>        0.000
     17 H          -6.1199   -3.1026   -3.4653 H.spc      1 <1>        0.000
     18 H          -8.1798   -2.9333    1.0234 H.spc      1 <1>        0.000
     19 H          -5.8518   -2.1980    0.7173 H.spc      1 <1>        0.000
     20 H         -10.1567   -4.0844   -1.7720 H.spc      1 <1>        0.000
     21 H          -8.0657   -3.8460   -4.2132 H.spc      1 <1>        0.000
@<TRIPOS>BOND
     1    5    6 1  
     2    9   10 ar 
     3    6    7 ar 
     4    8   13 1  
     5    4    5 2  
     6    6   11 ar 
     7    8    9 ar 
     8    2    4 1  
     9    7    8 ar 
    10    1    2 1  
    11    2    3 2  
    12   10   11 ar 
    13    9   12 1  
    14    1   14 1  
    15    4   15 1  
    16    5   16 1  
    17    7   17 1  
    18   10   18 1  
    19   11   19 1  
    20   12   20 1  
    21   13   21 1  
# Name:          frag5-536-82/41815
# Creation time: Sat Jun  5 12:52:52 2010


@<TRIPOS>MOLECULE
frag5-536-82/41815
   21    21     1     1     1
SMALL
USER_CHARGES


@<TRIPOS>ATOM
      1 O7         -1.4454   -2.5092   -3.3834 O.3        1 <1>        0.000
      2 C12        -2.3989   -1.6583   -2.9950 C.2        1 <1>        0.000
      3 O8         -2.1561   -0.4714   -2.8332 O.2        1 <1>        0.000
      4 C13        -3.7584   -2.1698   -2.7750 C.2        1 <1>        0.000
      5 C14        -4.4664   -1.9462   -1.6438 C.2        1 <1>        0.000
      6 C15        -5.8472   -2.4667   -1.3989 C.ar       1 <1>        0.000
      7 C16        -6.6580   -2.8162   -2.4815 C.ar       1 <1>        0.000
      8 C17        -7.9383   -3.3489   -2.3337 C.ar       1 <1>        0.000
      9 C18        -8.4545   -3.5377   -1.0250 C.ar       1 <1>        0.000
     10 C19        -7.6606   -3.1596    0.0680 C.ar       1 <1>        0.000
     11 C20        -6.3961   -2.6142   -0.1113 C.ar       1 <1>        0.000
     12 O9         -9.7102   -4.0781   -0.8772 O.3        1 <1>        0.000
     13 O10        -8.6838   -3.6903   -3.4360 O.3        1 <1>        0.000
     14 H          -1.8163   -3.3915   -3.4577 H.spc      1 <1>        0.000
     15 H          -4.2214   -2.7609   -3.5651 H.spc      1 <1>        0.000
     16 H          -4.0005   -1.3483   -0.8605 H.spc      1 <1>        0.000
     17 H          -6.2716   -2.6654   -3.4895 H.spc      1 <1>        0.000
     18 H          -8.0442   -3.2967    1.0790 H.spc      1 <1>        0.000
     19 H          -5.8204   -2.2957    0.7577 H.spc      1 <1>        0.000
     20 H         -10.0806   -4.2654   -1.7428 H.spc      1 <1>        0.000
     21 H          -8.1833   -3.4964   -4.2319 H.spc      1 <1>        0.000
@<TRIPOS>BOND
     1    5    6 1  
     2    9   10 ar 
     3    6    7 ar 
     4    8   13 1  
     5    4    5 2  
     6    6   11 ar 
     7    8    9 ar 
     8    2    4 1  
     9    7    8 ar 
    10    1    2 1  
    11    2    3 2  
    12   10   11 ar 
    13    9   12 1  
    14    1   14 1  
    15    4   15 1  
    16    5   16 1  
    17    7   17 1  
    18   10   18 1  
    19   11   19 1  
    20   12   20 1  
    21   13   21 1  
# Name:          frag5-536-82/41815
# Creation time: Sat Jun  5 12:52:52 2010


@<TRIPOS>MOLECULE
frag5-536-82/41815
   21    21     1     1     1
SMALL
USER_CHARGES


@<TRIPOS>ATOM
      1 O7         -1.3407   -0.8463   -1.9013 O.3        1 <1>        0.000
      2 C12        -2.2832   -1.4374   -2.6423 C.2        1 <1>        0.000
      3 O8         -2.0528   -1.7865   -3.7906 O.2        1 <1>        0.000
      4 C13        -3.6112   -1.6617   -2.0529 C.2        1 <1>        0.000
      5 C14        -4.4979   -2.5610   -2.5331 C.2        1 <1>        0.000
      6 C15        -5.8591   -2.7968   -1.9550 C.ar       1 <1>        0.000
      7 C16        -6.8739   -3.2998   -2.7759 C.ar       1 <1>        0.000
      8 C17        -8.1539   -3.5911   -2.3030 C.ar       1 <1>        0.000
      9 C18        -8.4491   -3.3617   -0.9340 C.ar       1 <1>        0.000
     10 C19        -7.4457   -2.8317   -0.1123 C.ar       1 <1>        0.000
     11 C20        -6.1852   -2.5336   -0.6138 C.ar       1 <1>        0.000
     12 O9         -9.7072   -3.6637   -0.4610 O.3        1 <1>        0.000
     13 O10        -9.1140   -4.0956   -3.1507 O.3        1 <1>        0.000
     14 H          -1.6977   -0.6438   -1.0335 H.spc      1 <1>        0.000
     15 H          -3.8957   -1.0710   -1.1821 H.spc      1 <1>        0.000
     16 H          -4.2029   -3.1542   -3.3987 H.spc      1 <1>        0.000
     17 H          -6.6554   -3.4715   -3.8299 H.spc      1 <1>        0.000
     18 H          -7.6584   -2.6497    0.9411 H.spc      1 <1>        0.000
     19 H          -5.4376   -2.0888    0.0430 H.spc      1 <1>        0.000
     20 H         -10.2418   -4.0133   -1.1776 H.spc      1 <1>        0.000
     21 H          -8.7450   -4.1866   -4.0323 H.spc      1 <1>        0.000
@<TRIPOS>BOND
     1    5    6 1  
     2    9   10 ar 
     3    6    7 ar 
     4    8   13 1  
     5    4    5 2  
     6    6   11 ar 
     7    8    9 ar 
     8    2    4 1  
     9    7    8 ar 
    10    1    2 1  
    11    2    3 2  
    12   10   11 ar 
    13    9   12 1  
    14    1   14 1  
    15    4   15 1  
    16    5   16 1  
    17    7   17 1  
    18   10   18 1  
    19   11   19 1  
    20   12   20 1  
    21   13   21 1  
# Name:          frag5-536-82/41815
# Creation time: Sat Jun  5 12:52:52 2010


@<TRIPOS>MOLECULE
frag5-536-82/41815
   21    21     1     1     1
SMALL
USER_CHARGES


@<TRIPOS>ATOM
      1 O7         -2.0071   -1.1809   -4.1886 O.3        1 <1>        0.000
      2 C12        -2.4113   -1.5143   -2.9593 C.2        1 <1>        0.000
      3 O8         -1.6148   -1.6083   -2.0379 O.2        1 <1>        0.000
      4 C13        -3.8431   -1.7560   -2.7290 C.2        1 <1>        0.000
      5 C14        -4.3199   -2.4655   -1.6798 C.2        1 <1>        0.000
      6 C15        -5.7697   -2.7324   -1.4337 C.ar       1 <1>        0.000
      7 C16        -6.5659   -3.2357   -2.4655 C.ar       1 <1>        0.000
      8 C17        -7.9134   -3.5555   -2.3020 C.ar       1 <1>        0.000
      9 C18        -8.5160   -3.3539   -1.0298 C.ar       1 <1>        0.000
     10 C19        -7.7318   -2.8227    0.0025 C.ar       1 <1>        0.000
     11 C20        -6.3960   -2.4973   -0.1961 C.ar       1 <1>        0.000
     12 O9         -9.8390   -3.6834   -0.8585 O.3        1 <1>        0.000
     13 O10        -8.6457   -4.0607   -3.3482 O.3        1 <1>        0.000
     14 H          -2.7648   -1.1560   -4.7776 H.spc      1 <1>        0.000
     15 H          -4.5578   -1.3422   -3.4403 H.spc      1 <1>        0.000
     16 H          -3.5996   -2.8685   -0.9679 H.spc      1 <1>        0.000
     17 H          -6.1122   -3.3856   -3.4452 H.spc      1 <1>        0.000
     18 H          -8.1797   -2.6612    0.9830 H.spc      1 <1>        0.000
     19 H          -5.8246   -2.0532    0.6190 H.spc      1 <1>        0.000
     20 H         -10.1909   -4.0286   -1.6823 H.spc      1 <1>        0.000
     21 H          -8.0858   -4.1307   -4.1249 H.spc      1 <1>        0.000
@<TRIPOS>BOND
     1    5    6 1  
     2    9   10 ar 
     3    6    7 ar 
     4    8   13 1  
     5    4    5 2  
     6    6   11 ar 
     7    8    9 ar 
     8    2    4 1  
     9    7    8 ar 
    10    1    2 1  
    11    2    3 2  
    12   10   11 ar 
    13    9   12 1  
    14    1   14 1  
    15    4   15 1  
    16    5   16 1  
    17    7   17 1  
    18   10   18 1  
    19   11   19 1  
    20   12   20 1  
    21   13   21 1  
# Name:          frag5-536-82/41815
# Creation time: Sat Jun  5 12:52:52 2010


@<TRIPOS>MOLECULE
frag5-536-82/41815
   21    21     1     1     1
SMALL
USER_CHARGES


@<TRIPOS>ATOM
      1 O7         -1.5704   -2.4150   -2.9903 O.3        1 <1>        0.000
      2 C12        -2.3277   -1.3628   -2.6735 C.2        1 <1>        0.000
      3 O8         -1.9152   -0.2219   -2.8205 O.2        1 <1>        0.000
      4 C13        -3.6807   -1.5851   -2.1304 C.2        1 <1>        0.000
      5 C14        -4.4189   -2.6813   -2.3911 C.2        1 <1>        0.000
      6 C15        -5.8026   -2.9167   -1.8567 C.ar       1 <1>        0.000
      7 C16        -6.8685   -3.0412   -2.7535 C.ar       1 <1>        0.000
      8 C17        -8.1725   -3.3080   -2.3332 C.ar       1 <1>        0.000
      9 C18        -8.4356   -3.4513   -0.9503 C.ar       1 <1>        0.000
     10 C19        -7.3781   -3.2997   -0.0443 C.ar       1 <1>        0.000
     11 C20        -6.0894   -3.0155   -0.4854 C.ar       1 <1>        0.000
     12 O9         -9.7244   -3.7327   -0.5379 O.3        1 <1>        0.000
     13 O10        -9.1898   -3.4355   -3.2587 O.3        1 <1>        0.000
     14 H          -2.0558   -3.2233   -2.8094 H.spc      1 <1>        0.000
     15 H          -4.1071   -0.8198   -1.4819 H.spc      1 <1>        0.000
     16 H          -3.9834   -3.4479   -3.0320 H.spc      1 <1>        0.000
     17 H          -6.6738   -2.9257   -3.8197 H.spc      1 <1>        0.000
     18 H          -7.5678   -3.4061    1.0238 H.spc      1 <1>        0.000
     19 H          -5.2920   -2.8676    0.2429 H.spc      1 <1>        0.000
     20 H         -10.2978   -3.7973   -1.3052 H.spc      1 <1>        0.000
     21 H          -8.8352   -3.3091   -4.1418 H.spc      1 <1>        0.000
@<TRIPOS>BOND
     1    5    6 1  
     2    9   10 ar 
     3    6    7 ar 
     4    8   13 1  
     5    4    5 2  
     6    6   11 ar 
     7    8    9 ar 
     8    2    4 1  
     9    7    8 ar 
    10    1    2 1  
    11    2    3 2  
    12   10   11 ar 
    13    9   12 1  
    14    1   14 1  
    15    4   15 1  
    16    5   16 1  
    17    7   17 1  
    18   10   18 1  
    19   11   19 1  
    20   12   20 1  
    21   13   21 1  
# Name:          frag5-536-82/41815
# Creation time: Sat Jun  5 12:52:52 2010


@<TRIPOS>MOLECULE
frag5-536-82/41815
   21    21     1     1     1
SMALL
USER_CHARGES


@<TRIPOS>ATOM
      1 O7         -2.0670   -0.4962   -2.6078 O.3        1 <1>        0.000
      2 C12        -2.2797   -1.8008   -2.7914 C.2        1 <1>        0.000
      3 O8         -1.4191   -2.5163   -3.2829 O.2        1 <1>        0.000
      4 C13        -3.5743   -2.3846   -2.3953 C.2        1 <1>        0.000
      5 C14        -4.6765   -1.6530   -2.1372 C.2        1 <1>        0.000
      6 C15        -5.9980   -2.2340   -1.7244 C.ar       1 <1>        0.000
      7 C16        -6.6650   -3.1031   -2.5925 C.ar       1 <1>        0.000
      8 C17        -7.8740   -3.7142   -2.2576 C.ar       1 <1>        0.000
      9 C18        -8.4586   -3.4417   -0.9982 C.ar       1 <1>        0.000
     10 C19        -7.8119   -2.5480   -0.1347 C.ar       1 <1>        0.000
     11 C20        -6.6160   -1.9361   -0.4980 C.ar       1 <1>        0.000
     12 O9         -9.6472   -4.0611   -0.6616 O.3        1 <1>        0.000
     13 O10        -8.4865   -4.5776   -3.1443 O.3        1 <1>        0.000
     14 H          -2.8469   -0.0983   -2.2140 H.spc      1 <1>        0.000
     15 H          -3.6440   -3.4687   -2.3062 H.spc      1 <1>        0.000
     16 H          -4.6038   -0.5698   -2.2344 H.spc      1 <1>        0.000
     17 H          -6.2243   -3.3113   -3.5675 H.spc      1 <1>        0.000
     18 H          -8.2527   -2.3283    0.8377 H.spc      1 <1>        0.000
     19 H          -6.1528   -1.2167    0.1772 H.spc      1 <1>        0.000
     20 H          -9.9250   -4.6311   -1.3824 H.spc      1 <1>        0.000
     21 H          -7.9561   -4.6450   -3.9416 H.spc      1 <1>        0.000
@<TRIPOS>BOND
     1    5    6 1  
     2    9   10 ar 
     3    6    7 ar 
     4    8   13 1  
     5    4    5 2  
     6    6   11 ar 
     7    8    9 ar 
     8    2    4 1  
     9    7    8 ar 
    10    1    2 1  
    11    2    3 2  
    12   10   11 ar 
    13    9   12 1  
    14    1   14 1  
    15    4   15 1  
    16    5   16 1  
    17    7   17 1  
    18   10   18 1  
    19   11   19 1  
    20   12   20 1  
    21   13   21 1  
# Name:          frag5-536-82/41815 -- energy: -0.799926
# Creation time: Sat Jun  5 12:52:52 2010


@<TRIPOS>MOLECULE
frag5-536-82/41815 -- energy: -0.799926
   21    21     1     1     1
SMALL
USER_CHARGES


@<TRIPOS>ATOM
      1 O7         -2.1276   -1.5047   -3.9121 O.3        1 <1>        0.000
      2 C12        -2.2210   -1.6358   -2.5880 C.2        1 <1>        0.000
      3 O8         -1.2800   -1.3509   -1.8578 O.2        1 <1>        0.000
      4 C13        -3.4714   -2.1425   -2.0017 C.2        1 <1>        0.000
      5 C14        -4.6876   -1.9426   -2.5482 C.2        1 <1>        0.000
      6 C15        -5.9715   -2.4429   -1.9583 C.ar       1 <1>        0.000
      7 C16        -6.9315   -3.0171   -2.7980 C.ar       1 <1>        0.000
      8 C17        -8.1310   -3.5472   -2.3191 C.ar       1 <1>        0.000
      9 C18        -8.4009   -3.4920   -0.9288 C.ar       1 <1>        0.000
     10 C19        -7.4572   -2.8902   -0.0858 C.ar       1 <1>        0.000
     11 C20        -6.2778   -2.3551   -0.5899 C.ar       1 <1>        0.000
     12 O9         -9.5783   -4.0283   -0.4528 O.3        1 <1>        0.000
     13 O10        -9.0382   -4.1174   -3.1856 O.3        1 <1>        0.000
     14 H          -2.9552   -1.7726   -4.3182 H.spc      1 <1>        0.000
     15 H          -3.4113   -2.7112   -1.0738 H.spc      1 <1>        0.000
     16 H          -4.7407   -1.3801   -3.4804 H.spc      1 <1>        0.000
     17 H          -6.7352   -3.0521   -3.8696 H.spc      1 <1>        0.000
     18 H          -7.6518   -2.8408    0.9856 H.spc      1 <1>        0.000
     19 H          -5.5804   -1.8602    0.0860 H.spc      1 <1>        0.000
     20 H         -10.0831   -4.3897   -1.1850 H.spc      1 <1>        0.000
     21 H          -8.6968   -4.0696   -4.0816 H.spc      1 <1>        0.000
@<TRIPOS>BOND
     1    5    6 1  
     2    9   10 ar 
     3    6    7 ar 
     4    8   13 1  
     5    4    5 2  
     6    6   11 ar 
     7    8    9 ar 
     8    2    4 1  
     9    7    8 ar 
    10    1    2 1  
    11    2    3 2  
    12   10   11 ar 
    13    9   12 1  
    14    1   14 1  
    15    4   15 1  
    16    5   16 1  
    17    7   17 1  
    18   10   18 1  
    19   11   19 1  
    20   12   20 1  
    21   13   21 1  
# Name:          frag5-536-82/41815 -- energy: 0.976839
# Creation time: Sat Jun  5 12:52:52 2010


@<TRIPOS>MOLECULE
frag5-536-82/41815 -- energy: 0.976839
   21    21     1     1     1
SMALL
USER_CHARGES


@<TRIPOS>ATOM
      1 O7         -1.5554   -1.7646   -2.0112 O.3        1 <1>        0.000
      2 C12        -2.4226   -1.5559   -3.0023 C.2        1 <1>        0.000
      3 O8         -2.0558   -1.1027   -4.0789 O.2        1 <1>        0.000
      4 C13        -3.8400   -1.8869   -2.7964 C.2        1 <1>        0.000
      5 C14        -4.3497   -2.3051   -1.6176 C.2        1 <1>        0.000
      6 C15        -5.7877   -2.6534   -1.3965 C.ar       1 <1>        0.000
      7 C16        -6.5713   -3.0750   -2.4735 C.ar       1 <1>        0.000
      8 C17        -7.9044   -3.4622   -2.3385 C.ar       1 <1>        0.000
      9 C18        -8.5038   -3.4187   -1.0534 C.ar       1 <1>        0.000
     10 C19        -7.7332   -2.9711    0.0298 C.ar       1 <1>        0.000
     11 C20        -6.4124   -2.5750   -0.1381 C.ar       1 <1>        0.000
     12 O9         -9.8136   -3.8166   -0.9163 O.3        1 <1>        0.000
     13 O10        -8.6239   -3.8796   -3.4329 O.3        1 <1>        0.000
     14 H          -2.0203   -2.1205   -1.2504 H.spc      1 <1>        0.000
     15 H          -4.5186   -1.7892   -3.6437 H.spc      1 <1>        0.000
     16 H          -3.6683   -2.3947   -0.7715 H.spc      1 <1>        0.000
     17 H          -6.1199   -3.1026   -3.4653 H.spc      1 <1>        0.000
     18 H          -8.1798   -2.9333    1.0234 H.spc      1 <1>        0.000
     19 H          -5.8518   -2.1980    0.7173 H.spc      1 <1>        0.000
     20 H         -10.1567   -4.0844   -1.7720 H.spc      1 <1>        0.000
     21 H          -8.0657   -3.8460   -4.2132 H.spc      1 <1>        0.000
@<TRIPOS>BOND
     1    5    6 1  
     2    9   10 ar 
     3    6    7 ar 
     4    8   13 1  
     5    4    5 2  
     6    6   11 ar 
     7    8    9 ar 
     8    2    4 1  
     9    7    8 ar 
    10    1    2 1  
    11    2    3 2  
    12   10   11 ar 
    13    9   12 1  
    14    1   14 1  
    15    4   15 1  
    16    5   16 1  
    17    7   17 1  
    18   10   18 1  
    19   11   19 1  
    20   12   20 1  
    21   13   21 1  
# Name:          frag5-536-82/41815 -- energy: -0.844429
# Creation time: Sat Jun  5 12:52:52 2010


@<TRIPOS>MOLECULE
frag5-536-82/41815 -- energy: -0.844429
   21    21     1     1     1
SMALL
USER_CHARGES


@<TRIPOS>ATOM
      1 O7         -1.4454   -2.5092   -3.3834 O.3        1 <1>        0.000
      2 C12        -2.3989   -1.6583   -2.9950 C.2        1 <1>        0.000
      3 O8         -2.1561   -0.4714   -2.8332 O.2        1 <1>        0.000
      4 C13        -3.7584   -2.1698   -2.7750 C.2        1 <1>        0.000
      5 C14        -4.4664   -1.9462   -1.6438 C.2        1 <1>        0.000
      6 C15        -5.8472   -2.4667   -1.3989 C.ar       1 <1>        0.000
      7 C16        -6.6580   -2.8162   -2.4815 C.ar       1 <1>        0.000
      8 C17        -7.9383   -3.3489   -2.3337 C.ar       1 <1>        0.000
      9 C18        -8.4545   -3.5377   -1.0250 C.ar       1 <1>        0.000
     10 C19        -7.6606   -3.1596    0.0680 C.ar       1 <1>        0.000
     11 C20        -6.3961   -2.6142   -0.1113 C.ar       1 <1>        0.000
     12 O9         -9.7102   -4.0781   -0.8772 O.3        1 <1>        0.000
     13 O10        -8.6838   -3.6903   -3.4360 O.3        1 <1>        0.000
     14 H          -1.8163   -3.3915   -3.4577 H.spc      1 <1>        0.000
     15 H          -4.2214   -2.7609   -3.5651 H.spc      1 <1>        0.000
     16 H          -4.0005   -1.3483   -0.8605 H.spc      1 <1>        0.000
     17 H          -6.2716   -2.6654   -3.4895 H.spc      1 <1>        0.000
     18 H          -8.0442   -3.2967    1.0790 H.spc      1 <1>        0.000
     19 H          -5.8204   -2.2957    0.7577 H.spc      1 <1>        0.000
     20 H         -10.0806   -4.2654   -1.7428 H.spc      1 <1>        0.000
     21 H          -8.1833   -3.4964   -4.2319 H.spc      1 <1>        0.000
@<TRIPOS>BOND
     1    5    6 1  
     2    9   10 ar 
     3    6    7 ar 
     4    8   13 1  
     5    4    5 2  
     6    6   11 ar 
     7    8    9 ar 
     8    2    4 1  
     9    7    8 ar 
    10    1    2 1  
    11    2    3 2  
    12   10   11 ar 
    13    9   12 1  
    14    1   14 1  
    15    4   15 1  
    16    5   16 1  
    17    7   17 1  
    18   10   18 1  
    19   11   19 1  
    20   12   20 1  
    21   13   21 1  
# Name:          frag5-536-82/41815 -- energy: -0.932145
# Creation time: Sat Jun  5 12:52:52 2010


@<TRIPOS>MOLECULE
frag5-536-82/41815 -- energy: -0.932145
   21    21     1     1     1
SMALL
USER_CHARGES


@<TRIPOS>ATOM
      1 O7         -1.3407   -0.8463   -1.9013 O.3        1 <1>        0.000
      2 C12        -2.2832   -1.4374   -2.6423 C.2        1 <1>        0.000
      3 O8         -2.0528   -1.7865   -3.7906 O.2        1 <1>        0.000
      4 C13        -3.6112   -1.6617   -2.0529 C.2        1 <1>        0.000
      5 C14        -4.4979   -2.5610   -2.5331 C.2        1 <1>        0.000
      6 C15        -5.8591   -2.7968   -1.9550 C.ar       1 <1>        0.000
      7 C16        -6.8739   -3.2998   -2.7759 C.ar       1 <1>        0.000
      8 C17        -8.1539   -3.5911   -2.3030 C.ar       1 <1>        0.000
      9 C18        -8.4491   -3.3617   -0.9340 C.ar       1 <1>        0.000
     10 C19        -7.4457   -2.8317   -0.1123 C.ar       1 <1>        0.000
     11 C20        -6.1852   -2.5336   -0.6138 C.ar       1 <1>        0.000
     12 O9         -9.7072   -3.6637   -0.4610 O.3        1 <1>        0.000
     13 O10        -9.1140   -4.0956   -3.1507 O.3        1 <1>        0.000
     14 H          -1.6977   -0.6438   -1.0335 H.spc      1 <1>        0.000
     15 H          -3.8957   -1.0710   -1.1821 H.spc      1 <1>        0.000
     16 H          -4.2029   -3.1542   -3.3987 H.spc      1 <1>        0.000
     17 H          -6.6554   -3.4715   -3.8299 H.spc      1 <1>        0.000
     18 H          -7.6584   -2.6497    0.9411 H.spc      1 <1>        0.000
     19 H          -5.4376   -2.0888    0.0430 H.spc      1 <1>        0.000
     20 H         -10.2418   -4.0133   -1.1776 H.spc      1 <1>        0.000
     21 H          -8.7450   -4.1866   -4.0323 H.spc      1 <1>        0.000
@<TRIPOS>BOND
     1    5    6 1  
     2    9   10 ar 
     3    6    7 ar 
     4    8   13 1  
     5    4    5 2  
     6    6   11 ar 
     7    8    9 ar 
     8    2    4 1  
     9    7    8 ar 
    10    1    2 1  
    11    2    3 2  
    12   10   11 ar 
    13    9   12 1  
    14    1   14 1  
    15    4   15 1  
    16    5   16 1  
    17    7   17 1  
    18   10   18 1  
    19   11   19 1  
    20   12   20 1  
    21   13   21 1  
# Name:          frag5-536-82/41815 -- energy: -0.970794
# Creation time: Sat Jun  5 12:52:52 2010


@<TRIPOS>MOLECULE
frag5-536-82/41815 -- energy: -0.970794
   21    21     1     1     1
SMALL
USER_CHARGES


@<TRIPOS>ATOM
      1 O7         -2.0071   -1.1809   -4.1886 O.3        1 <1>        0.000
      2 C12        -2.4113   -1.5143   -2.9593 C.2        1 <1>        0.000
      3 O8         -1.6148   -1.6083   -2.0379 O.2        1 <1>        0.000
      4 C13        -3.8431   -1.7560   -2.7290 C.2        1 <1>        0.000
      5 C14        -4.3199   -2.4655   -1.6798 C.2        1 <1>        0.000
      6 C15        -5.7697   -2.7324   -1.4337 C.ar       1 <1>        0.000
      7 C16        -6.5659   -3.2357   -2.4655 C.ar       1 <1>        0.000
      8 C17        -7.9134   -3.5555   -2.3020 C.ar       1 <1>        0.000
      9 C18        -8.5160   -3.3539   -1.0298 C.ar       1 <1>        0.000
     10 C19        -7.7318   -2.8227    0.0025 C.ar       1 <1>        0.000
     11 C20        -6.3960   -2.4973   -0.1961 C.ar       1 <1>        0.000
     12 O9         -9.8390   -3.6834   -0.8585 O.3        1 <1>        0.000
     13 O10        -8.6457   -4.0607   -3.3482 O.3        1 <1>        0.000
     14 H          -2.7648   -1.1560   -4.7776 H.spc      1 <1>        0.000
     15 H          -4.5578   -1.3422   -3.4403 H.spc      1 <1>        0.000
     16 H          -3.5996   -2.8685   -0.9679 H.spc      1 <1>        0.000
     17 H          -6.1122   -3.3856   -3.4452 H.spc      1 <1>        0.000
     18 H          -8.1797   -2.6612    0.9830 H.spc      1 <1>        0.000
     19 H          -5.8246   -2.0532    0.6190 H.spc      1 <1>        0.000
     20 H         -10.1909   -4.0286   -1.6823 H.spc      1 <1>        0.000
     21 H          -8.0858   -4.1307   -4.1249 H.spc      1 <1>        0.000
@<TRIPOS>BOND
     1    5    6 1  
     2    9   10 ar 
     3    6    7 ar 
     4    8   13 1  
     5    4    5 2  
     6    6   11 ar 
     7    8    9 ar 
     8    2    4 1  
     9    7    8 ar 
    10    1    2 1  
    11    2    3 2  
    12   10   11 ar 
    13    9   12 1  
    14    1   14 1  
    15    4   15 1  
    16    5   16 1  
    17    7   17 1  
    18   10   18 1  
    19   11   19 1  
    20   12   20 1  
    21   13   21 1  
# Name:          frag5-536-82/41815 -- energy: -0.648034
# Creation time: Sat Jun  5 12:52:52 2010


@<TRIPOS>MOLECULE
frag5-536-82/41815 -- energy: -0.648034
   21    21     1     1     1
SMALL
USER_CHARGES


@<TRIPOS>ATOM
      1 O7         -1.5704   -2.4150   -2.9903 O.3        1 <1>        0.000
      2 C12        -2.3277   -1.3628   -2.6735 C.2        1 <1>        0.000
      3 O8         -1.9152   -0.2219   -2.8205 O.2        1 <1>        0.000
      4 C13        -3.6807   -1.5851   -2.1304 C.2        1 <1>        0.000
      5 C14        -4.4189   -2.6813   -2.3911 C.2        1 <1>        0.000
      6 C15        -5.8026   -2.9167   -1.8567 C.ar       1 <1>        0.000
      7 C16        -6.8685   -3.0412   -2.7535 C.ar       1 <1>        0.000
      8 C17        -8.1725   -3.3080   -2.3332 C.ar       1 <1>        0.000
      9 C18        -8.4356   -3.4513   -0.9503 C.ar       1 <1>        0.000
     10 C19        -7.3781   -3.2997   -0.0443 C.ar       1 <1>        0.000
     11 C20        -6.0894   -3.0155   -0.4854 C.ar       1 <1>        0.000
     12 O9         -9.7244   -3.7327   -0.5379 O.3        1 <1>        0.000
     13 O10        -9.1898   -3.4355   -3.2587 O.3        1 <1>        0.000
     14 H          -2.0558   -3.2233   -2.8094 H.spc      1 <1>        0.000
     15 H          -4.1071   -0.8198   -1.4819 H.spc      1 <1>        0.000
     16 H          -3.9834   -3.4479   -3.0320 H.spc      1 <1>        0.000
     17 H          -6.6738   -2.9257   -3.8197 H.spc      1 <1>        0.000
     18 H          -7.5678   -3.4061    1.0238 H.spc      1 <1>        0.000
     19 H          -5.2920   -2.8676    0.2429 H.spc      1 <1>        0.000
     20 H         -10.2978   -3.7973   -1.3052 H.spc      1 <1>        0.000
     21 H          -8.8352   -3.3091   -4.1418 H.spc      1 <1>        0.000
@<TRIPOS>BOND
     1    5    6 1  
     2    9   10 ar 
     3    6    7 ar 
     4    8   13 1  
     5    4    5 2  
     6    6   11 ar 
     7    8    9 ar 
     8    2    4 1  
     9    7    8 ar 
    10    1    2 1  
    11    2    3 2  
    12   10   11 ar 
    13    9   12 1  
    14    1   14 1  
    15    4   15 1  
    16    5   16 1  
    17    7   17 1  
    18   10   18 1  
    19   11   19 1  
    20   12   20 1  
    21   13   21 1  
# Name:          frag5-536-82/41815 -- energy: -0.020576
# Creation time: Sat Jun  5 12:52:52 2010


@<TRIPOS>MOLECULE
frag5-536-82/41815 -- energy: -0.020576
   21    21     1     1     1
SMALL
USER_CHARGES


@<TRIPOS>ATOM
      1 O7         -2.0670   -0.4962   -2.6078 O.3        1 <1>        0.000
      2 C12        -2.2797   -1.8008   -2.7914 C.2        1 <1>        0.000
      3 O8         -1.4191   -2.5163   -3.2829 O.2        1 <1>        0.000
      4 C13        -3.5743   -2.3846   -2.3953 C.2        1 <1>        0.000
      5 C14        -4.6765   -1.6530   -2.1372 C.2        1 <1>        0.000
      6 C15        -5.9980   -2.2340   -1.7244 C.ar       1 <1>        0.000
      7 C16        -6.6650   -3.1031   -2.5925 C.ar       1 <1>        0.000
      8 C17        -7.8740   -3.7142   -2.2576 C.ar       1 <1>        0.000
      9 C18        -8.4586   -3.4417   -0.9982 C.ar       1 <1>        0.000
     10 C19        -7.8119   -2.5480   -0.1347 C.ar       1 <1>        0.000
     11 C20        -6.6160   -1.9361   -0.4980 C.ar       1 <1>        0.000
     12 O9         -9.6472   -4.0611   -0.6616 O.3        1 <1>        0.000
     13 O10        -8.4865   -4.5776   -3.1443 O.3        1 <1>        0.000
     14 H          -2.8469   -0.0983   -2.2140 H.spc      1 <1>        0.000
     15 H          -3.6440   -3.4687   -2.3062 H.spc      1 <1>        0.000
     16 H          -4.6038   -0.5698   -2.2344 H.spc      1 <1>        0.000
     17 H          -6.2243   -3.3113   -3.5675 H.spc      1 <1>        0.000
     18 H          -8.2527   -2.3283    0.8377 H.spc      1 <1>        0.000
     19 H          -6.1528   -1.2167    0.1772 H.spc      1 <1>        0.000
     20 H          -9.9250   -4.6311   -1.3824 H.spc      1 <1>        0.000
     21 H          -7.9561   -4.6450   -3.9416 H.spc      1 <1>        0.000
@<TRIPOS>BOND
     1    5    6 1  
     2    9   10 ar 
     3    6    7 ar 
     4    8   13 1  
     5    4    5 2  
     6    6   11 ar 
     7    8    9 ar 
     8    2    4 1  
     9    7    8 ar 
    10    1    2 1  
    11    2    3 2  
    12   10   11 ar 
    13    9   12 1  
    14    1   14 1  
    15    4   15 1  
    16    5   16 1  
    17    7   17 1  
    18   10   18 1  
    19   11   19 1  
    20   12   20 1  
    21   13   21 1  
