#      Rotatable Fragment
#      Build by yxyuan
#
# Name:          frag3-212-7/96164
# Creation time: Sat Jun  5 12:53:11 2010


@<TRIPOS>MOLECULE
frag3-212-7/96164
   21    20     1     1     1
SMALL
USER_CHARGES


@<TRIPOS>ATOM
      1 C21         2.5639    1.5808   -0.5112 C.2        1 <1>        0.000
      2 C22         1.8703    1.2802    0.5907 C.2        1 <1>        0.000
      3 C24         0.4344    1.0769    0.7058 C.2        1 <1>        0.000
      4 C25        -0.2836    0.9187    1.8320 C.2        1 <1>        0.000
      5 C26        -1.7236    0.7602    1.9416 C.2        1 <1>        0.000
      6 C27        -2.6605    1.6256    1.5046 C.2        1 <1>        0.000
      7 C29        -4.1140    1.5260    1.5776 C.2        1 <1>        0.000
      8 C30        -4.9322    0.5772    1.0804 C.2        1 <1>        0.000
      9 C31        -4.5100   -0.5945    0.3011 C.2        1 <1>        0.000
     10 O7         -3.2492   -0.7165   -0.1235 O.3        1 <1>        0.000
     11 O8         -5.3226   -1.4736    0.0459 O.2        1 <1>        0.000
     12 H           2.0483    1.7001   -1.4641 H.spc      1 <1>        0.000
     13 H           3.6453    1.7067   -0.4571 H.spc      1 <1>        0.000
     14 H           2.4471    1.1752    1.5096 H.spc      1 <1>        0.000
     15 H          -0.1246    1.0496   -0.2295 H.spc      1 <1>        0.000
     16 H           0.2773    0.9082    2.7665 H.spc      1 <1>        0.000
     17 H          -2.0821   -0.1485    2.4251 H.spc      1 <1>        0.000
     18 H          -2.2772    2.5284    1.0289 H.spc      1 <1>        0.000
     19 H          -4.6104    2.3363    2.1116 H.spc      1 <1>        0.000
     20 H          -5.9992    0.6889    1.2732 H.spc      1 <1>        0.000
     21 H          -2.7430    0.0497    0.1562 H.spc      1 <1>        0.000
@<TRIPOS>BOND
     1    4    5 1  
     2    9   11 2  
     3    6    7 1  
     4    9   10 1  
     5    7    8 2  
     6    3    4 2  
     7    5    6 2  
     8    8    9 1  
     9    1    2 2  
    10    2    3 1  
    11    1   12 1  
    12    1   13 1  
    13    2   14 1  
    14    3   15 1  
    15    4   16 1  
    16    5   17 1  
    17    6   18 1  
    18    7   19 1  
    19    8   20 1  
    20   10   21 1  
# Name:          frag3-212-7/96164
# Creation time: Sat Jun  5 12:53:11 2010


@<TRIPOS>MOLECULE
frag3-212-7/96164
   21    20     1     1     1
SMALL
USER_CHARGES


@<TRIPOS>ATOM
      1 C21         2.9503    0.7365   -0.0576 C.2        1 <1>        0.000
      2 C22         2.0033    1.5820    0.3598 C.2        1 <1>        0.000
      3 C24         0.7635    1.2538    1.0479 C.2        1 <1>        0.000
      4 C25        -0.2628    2.0778    1.3244 C.2        1 <1>        0.000
      5 C26        -1.5179    1.7347    1.9724 C.2        1 <1>        0.000
      6 C27        -2.5643    1.1012    1.4104 C.2        1 <1>        0.000
      7 C29        -3.8442    0.7240    2.0015 C.2        1 <1>        0.000
      8 C30        -4.8381   -0.0416    1.5027 C.2        1 <1>        0.000
      9 C31        -4.8380   -0.6724    0.1761 C.2        1 <1>        0.000
     10 O7         -5.9150   -1.3534   -0.2411 O.3        1 <1>        0.000
     11 O8         -3.8638   -0.5817   -0.5516 O.2        1 <1>        0.000
     12 H           2.8362   -0.3347    0.1085 H.spc      1 <1>        0.000
     13 H           3.8368    1.1181   -0.5641 H.spc      1 <1>        0.000
     14 H           2.1797    2.6393    0.1621 H.spc      1 <1>        0.000
     15 H           0.6541    0.2205    1.3773 H.spc      1 <1>        0.000
     16 H          -0.1396    3.1199    1.0295 H.spc      1 <1>        0.000
     17 H          -1.6224    2.0192    3.0194 H.spc      1 <1>        0.000
     18 H          -2.4373    0.8308    0.3621 H.spc      1 <1>        0.000
     19 H          -4.0258    1.1218    2.9999 H.spc      1 <1>        0.000
     20 H          -5.7107   -0.2047    2.1352 H.spc      1 <1>        0.000
     21 H          -6.5900   -1.3316    0.4411 H.spc      1 <1>        0.000
@<TRIPOS>BOND
     1    4    5 1  
     2    9   11 2  
     3    6    7 1  
     4    9   10 1  
     5    7    8 2  
     6    3    4 2  
     7    5    6 2  
     8    8    9 1  
     9    1    2 2  
    10    2    3 1  
    11    1   12 1  
    12    1   13 1  
    13    2   14 1  
    14    3   15 1  
    15    4   16 1  
    16    5   17 1  
    17    6   18 1  
    18    7   19 1  
    19    8   20 1  
    20   10   21 1  
# Name:          frag3-212-7/96164
# Creation time: Sat Jun  5 12:53:11 2010


@<TRIPOS>MOLECULE
frag3-212-7/96164
   21    20     1     1     1
SMALL
USER_CHARGES


@<TRIPOS>ATOM
      1 C21         3.3951    1.1501    0.5580 C.2        1 <1>        0.000
      2 C22         2.1917    1.6749    0.3060 C.2        1 <1>        0.000
      3 C24         0.9836    1.5452    1.1128 C.2        1 <1>        0.000
      4 C25        -0.2802    1.8039    0.7344 C.2        1 <1>        0.000
      5 C26        -1.4897    1.6316    1.5277 C.2        1 <1>        0.000
      6 C27        -2.5703    0.9028    1.1973 C.2        1 <1>        0.000
      7 C29        -3.8060    0.6907    1.9484 C.2        1 <1>        0.000
      8 C30        -4.9072   -0.0080    1.6153 C.2        1 <1>        0.000
      9 C31        -5.1153   -0.7267    0.3512 C.2        1 <1>        0.000
     10 O7         -4.0767   -1.2057   -0.3394 O.3        1 <1>        0.000
     11 O8         -6.2521   -0.8977   -0.0666 O.2        1 <1>        0.000
     12 H           3.5505    0.5479    1.4532 H.spc      1 <1>        0.000
     13 H           4.2210    1.3244   -0.1317 H.spc      1 <1>        0.000
     14 H           2.1034    2.2665   -0.6052 H.spc      1 <1>        0.000
     15 H           1.1208    1.1998    2.1375 H.spc      1 <1>        0.000
     16 H          -0.4147    2.1847   -0.2780 H.spc      1 <1>        0.000
     17 H          -1.5221    2.1464    2.4879 H.spc      1 <1>        0.000
     18 H          -2.5172    0.3986    0.2324 H.spc      1 <1>        0.000
     19 H          -3.8411    1.1710    2.9262 H.spc      1 <1>        0.000
     20 H          -5.7144   -0.0436    2.3469 H.spc      1 <1>        0.000
     21 H          -3.2616   -0.9889    0.1191 H.spc      1 <1>        0.000
@<TRIPOS>BOND
     1    4    5 1  
     2    9   11 2  
     3    6    7 1  
     4    9   10 1  
     5    7    8 2  
     6    3    4 2  
     7    5    6 2  
     8    8    9 1  
     9    1    2 2  
    10    2    3 1  
    11    1   12 1  
    12    1   13 1  
    13    2   14 1  
    14    3   15 1  
    15    4   16 1  
    16    5   17 1  
    17    6   18 1  
    18    7   19 1  
    19    8   20 1  
    20   10   21 1  
# Name:          frag3-212-7/96164
# Creation time: Sat Jun  5 12:53:11 2010


@<TRIPOS>MOLECULE
frag3-212-7/96164
   21    20     1     1     1
SMALL
USER_CHARGES


@<TRIPOS>ATOM
      1 C21         3.4545    1.9438    0.6965 C.2        1 <1>        0.000
      2 C22         2.3293    1.2738    0.4272 C.2        1 <1>        0.000
      3 C24         0.9600    1.7264    0.6402 C.2        1 <1>        0.000
      4 C25        -0.0778    0.9986    1.0892 C.2        1 <1>        0.000
      5 C26        -1.4359    1.4601    1.3402 C.2        1 <1>        0.000
      6 C27        -2.5520    0.7122    1.3579 C.2        1 <1>        0.000
      7 C29        -3.9349    1.1211    1.5919 C.2        1 <1>        0.000
      8 C30        -5.0837    0.5290    1.2144 C.2        1 <1>        0.000
      9 C31        -5.1913   -0.7104    0.4330 C.2        1 <1>        0.000
     10 O7         -4.2121   -1.0777   -0.3987 O.3        1 <1>        0.000
     11 O8         -6.1832   -1.4159    0.5532 O.2        1 <1>        0.000
     12 H           3.4035    2.9451    1.1242 H.spc      1 <1>        0.000
     13 H           4.4229    1.4888    0.4883 H.spc      1 <1>        0.000
     14 H           2.4492    0.2779    0.0007 H.spc      1 <1>        0.000
     15 H           0.7544    2.7717    0.4097 H.spc      1 <1>        0.000
     16 H           0.1197   -0.0549    1.2875 H.spc      1 <1>        0.000
     17 H          -1.5603    2.5254    1.5343 H.spc      1 <1>        0.000
     18 H          -2.4046   -0.3515    1.1710 H.spc      1 <1>        0.000
     19 H          -4.0548    2.0451    2.1575 H.spc      1 <1>        0.000
     20 H          -6.0142    1.0108    1.5145 H.spc      1 <1>        0.000
     21 H          -3.5122   -0.4210   -0.3770 H.spc      1 <1>        0.000
@<TRIPOS>BOND
     1    4    5 1  
     2    9   11 2  
     3    6    7 1  
     4    9   10 1  
     5    7    8 2  
     6    3    4 2  
     7    5    6 2  
     8    8    9 1  
     9    1    2 2  
    10    2    3 1  
    11    1   12 1  
    12    1   13 1  
    13    2   14 1  
    14    3   15 1  
    15    4   16 1  
    16    5   17 1  
    17    6   18 1  
    18    7   19 1  
    19    8   20 1  
    20   10   21 1  
# Name:          frag3-212-7/96164
# Creation time: Sat Jun  5 12:53:11 2010


@<TRIPOS>MOLECULE
frag3-212-7/96164
   21    20     1     1     1
SMALL
USER_CHARGES


@<TRIPOS>ATOM
      1 C21         3.4923    2.0893    0.4758 C.2        1 <1>        0.000
      2 C22         2.3762    1.3557    0.4565 C.2        1 <1>        0.000
      3 C24         1.0566    1.7348    0.9299 C.2        1 <1>        0.000
      4 C25        -0.1054    1.0857    0.7372 C.2        1 <1>        0.000
      5 C26        -1.4177    1.4447    1.2401 C.2        1 <1>        0.000
      6 C27        -2.5491    0.7226    1.1567 C.2        1 <1>        0.000
      7 C29        -3.8865    1.0331    1.6402 C.2        1 <1>        0.000
      8 C30        -5.0601    0.4166    1.3982 C.2        1 <1>        0.000
      9 C31        -5.2448   -0.7544    0.5275 C.2        1 <1>        0.000
     10 O7         -4.6027   -1.8907    0.8231 O.3        1 <1>        0.000
     11 O8         -5.9858   -0.6764   -0.4402 O.2        1 <1>        0.000
     12 H           3.4730    3.1002    0.8830 H.spc      1 <1>        0.000
     13 H           4.4223    1.6770    0.0844 H.spc      1 <1>        0.000
     14 H           2.4665    0.3542    0.0357 H.spc      1 <1>        0.000
     15 H           1.0014    2.6554    1.5108 H.spc      1 <1>        0.000
     16 H          -0.0550    0.1816    0.1305 H.spc      1 <1>        0.000
     17 H          -1.4956    2.4089    1.7425 H.spc      1 <1>        0.000
     18 H          -2.4499   -0.2383    0.6518 H.spc      1 <1>        0.000
     19 H          -3.9483    1.8983    2.3003 H.spc      1 <1>        0.000
     20 H          -5.9464    0.8193    1.8886 H.spc      1 <1>        0.000
     21 H          -4.0711   -1.7607    1.6118 H.spc      1 <1>        0.000
@<TRIPOS>BOND
     1    4    5 1  
     2    9   11 2  
     3    6    7 1  
     4    9   10 1  
     5    7    8 2  
     6    3    4 2  
     7    5    6 2  
     8    8    9 1  
     9    1    2 2  
    10    2    3 1  
    11    1   12 1  
    12    1   13 1  
    13    2   14 1  
    14    3   15 1  
    15    4   16 1  
    16    5   17 1  
    17    6   18 1  
    18    7   19 1  
    19    8   20 1  
    20   10   21 1  
# Name:          frag3-212-7/96164
# Creation time: Sat Jun  5 12:53:11 2010


@<TRIPOS>MOLECULE
frag3-212-7/96164
   21    20     1     1     1
SMALL
USER_CHARGES


@<TRIPOS>ATOM
      1 C21         2.7140    1.8410    0.5487 C.2        1 <1>        0.000
      2 C22         1.9078    0.7751    0.5410 C.2        1 <1>        0.000
      3 C24         0.4764    0.7551    0.7798 C.2        1 <1>        0.000
      4 C25        -0.4033    1.7484    0.5365 C.2        1 <1>        0.000
      5 C26        -1.8379    1.7205    0.7436 C.2        1 <1>        0.000
      6 C27        -2.4868    1.1898    1.7981 C.2        1 <1>        0.000
      7 C29        -3.9158    1.1111    2.0636 C.2        1 <1>        0.000
      8 C30        -4.8503    0.3205    1.4990 C.2        1 <1>        0.000
      9 C31        -4.6059   -0.6700    0.4416 C.2        1 <1>        0.000
     10 O7         -3.4202   -1.2785    0.3328 O.3        1 <1>        0.000
     11 O8         -5.5051   -0.9519   -0.3397 O.2        1 <1>        0.000
     12 H           2.3062    2.8314    0.7510 H.spc      1 <1>        0.000
     13 H           3.7794    1.7200    0.3526 H.spc      1 <1>        0.000
     14 H           2.3775   -0.1861    0.3322 H.spc      1 <1>        0.000
     15 H           0.0675   -0.1629    1.2019 H.spc      1 <1>        0.000
     16 H           0.0107    2.6755    0.1399 H.spc      1 <1>        0.000
     17 H          -2.4538    2.1749   -0.0325 H.spc      1 <1>        0.000
     18 H          -1.8471    0.7550    2.5661 H.spc      1 <1>        0.000
     19 H          -4.2843    1.7912    2.8316 H.spc      1 <1>        0.000
     20 H          -5.8744    0.4249    1.8574 H.spc      1 <1>        0.000
     21 H          -2.8291   -0.9492    1.0138 H.spc      1 <1>        0.000
@<TRIPOS>BOND
     1    4    5 1  
     2    9   11 2  
     3    6    7 1  
     4    9   10 1  
     5    7    8 2  
     6    3    4 2  
     7    5    6 2  
     8    8    9 1  
     9    1    2 2  
    10    2    3 1  
    11    1   12 1  
    12    1   13 1  
    13    2   14 1  
    14    3   15 1  
    15    4   16 1  
    16    5   17 1  
    17    6   18 1  
    18    7   19 1  
    19    8   20 1  
    20   10   21 1  
# Name:          frag3-212-7/96164
# Creation time: Sat Jun  5 12:53:11 2010


@<TRIPOS>MOLECULE
frag3-212-7/96164
   21    20     1     1     1
SMALL
USER_CHARGES


@<TRIPOS>ATOM
      1 C21         2.4779    0.7687   -0.5258 C.2        1 <1>        0.000
      2 C22         1.8865    1.2663    0.5636 C.2        1 <1>        0.000
      3 C24         0.4930    1.1575    0.9452 C.2        1 <1>        0.000
      4 C25        -0.1458    1.7998    1.9407 C.2        1 <1>        0.000
      5 C26        -1.5503    1.7126    2.2859 C.2        1 <1>        0.000
      6 C27        -2.5195    1.1140    1.5635 C.2        1 <1>        0.000
      7 C29        -3.9405    0.9886    1.8391 C.2        1 <1>        0.000
      8 C30        -4.8849    0.2539    1.2183 C.2        1 <1>        0.000
      9 C31        -4.6570   -0.6163    0.0541 C.2        1 <1>        0.000
     10 O7         -4.0726   -0.1002   -1.0341 O.3        1 <1>        0.000
     11 O8         -5.0137   -1.7838    0.0946 O.2        1 <1>        0.000
     12 H           1.8945    0.2034   -1.2525 H.spc      1 <1>        0.000
     13 H           3.5439    0.9280   -0.6881 H.spc      1 <1>        0.000
     14 H           2.5292    1.8206    1.2475 H.spc      1 <1>        0.000
     15 H          -0.1125    0.4711    0.3533 H.spc      1 <1>        0.000
     16 H           0.4629    2.4609    2.5575 H.spc      1 <1>        0.000
     17 H          -1.8543    2.1775    3.2237 H.spc      1 <1>        0.000
     18 H          -2.1864    0.6552    0.6326 H.spc      1 <1>        0.000
     19 H          -4.2993    1.5819    2.6801 H.spc      1 <1>        0.000
     20 H          -5.9003    0.3090    1.6109 H.spc      1 <1>        0.000
     21 H          -3.8657    0.8240   -0.8769 H.spc      1 <1>        0.000
@<TRIPOS>BOND
     1    4    5 1  
     2    9   11 2  
     3    6    7 1  
     4    9   10 1  
     5    7    8 2  
     6    3    4 2  
     7    5    6 2  
     8    8    9 1  
     9    1    2 2  
    10    2    3 1  
    11    1   12 1  
    12    1   13 1  
    13    2   14 1  
    14    3   15 1  
    15    4   16 1  
    16    5   17 1  
    17    6   18 1  
    18    7   19 1  
    19    8   20 1  
    20   10   21 1  
# Name:          frag3-212-7/96164
# Creation time: Sat Jun  5 12:53:11 2010


@<TRIPOS>MOLECULE
frag3-212-7/96164
   21    20     1     1     1
SMALL
USER_CHARGES


@<TRIPOS>ATOM
      1 C21         2.8432    1.6776    0.9324 C.2        1 <1>        0.000
      2 C22         1.8436    1.4520    0.0740 C.2        1 <1>        0.000
      3 C24         0.4274    1.3893    0.3742 C.2        1 <1>        0.000
      4 C25        -0.1740    0.6557    1.3324 C.2        1 <1>        0.000
      5 C26        -1.5847    0.6269    1.6619 C.2        1 <1>        0.000
      6 C27        -2.5275    1.4888    1.2294 C.2        1 <1>        0.000
      7 C29        -3.9523    1.5245    1.5153 C.2        1 <1>        0.000
      8 C30        -4.9121    0.6306    1.2038 C.2        1 <1>        0.000
      9 C31        -4.7069   -0.6122    0.4466 C.2        1 <1>        0.000
     10 O7         -3.7779   -0.6845   -0.5129 O.3        1 <1>        0.000
     11 O8         -5.4058   -1.5876    0.6880 O.2        1 <1>        0.000
     12 H           2.6284    1.8394    1.9887 H.spc      1 <1>        0.000
     13 H           3.8731    1.6998    0.5760 H.spc      1 <1>        0.000
     14 H           2.1252    1.2981   -0.9677 H.spc      1 <1>        0.000
     15 H          -0.2256    2.0048   -0.2446 H.spc      1 <1>        0.000
     16 H           0.4744    0.0115    1.9263 H.spc      1 <1>        0.000
     17 H          -1.9172   -0.1712    2.3257 H.spc      1 <1>        0.000
     18 H          -2.1675    2.2759    0.5668 H.spc      1 <1>        0.000
     19 H          -4.2950    2.4031    2.0618 H.spc      1 <1>        0.000
     20 H          -5.9253    0.8478    1.5419 H.spc      1 <1>        0.000
     21 H          -3.3197    0.1566   -0.5771 H.spc      1 <1>        0.000
@<TRIPOS>BOND
     1    4    5 1  
     2    9   11 2  
     3    6    7 1  
     4    9   10 1  
     5    7    8 2  
     6    3    4 2  
     7    5    6 2  
     8    8    9 1  
     9    1    2 2  
    10    2    3 1  
    11    1   12 1  
    12    1   13 1  
    13    2   14 1  
    14    3   15 1  
    15    4   16 1  
    16    5   17 1  
    17    6   18 1  
    18    7   19 1  
    19    8   20 1  
    20   10   21 1  
# Name:          frag3-212-7/96164
# Creation time: Sat Jun  5 12:53:11 2010


@<TRIPOS>MOLECULE
frag3-212-7/96164
   21    20     1     1     1
SMALL
USER_CHARGES


@<TRIPOS>ATOM
      1 C21         2.5245    1.5358   -0.3852 C.2        1 <1>        0.000
      2 C22         2.2426    1.2866    0.8982 C.2        1 <1>        0.000
      3 C24         0.9417    0.9697    1.4648 C.2        1 <1>        0.000
      4 C25        -0.2640    1.3276    0.9787 C.2        1 <1>        0.000
      5 C26        -1.5696    0.9869    1.5130 C.2        1 <1>        0.000
      6 C27        -2.7382    1.6024    1.2598 C.2        1 <1>        0.000
      7 C29        -4.0707    1.3053    1.7716 C.2        1 <1>        0.000
      8 C30        -4.9405    0.3398    1.4012 C.2        1 <1>        0.000
      9 C31        -4.7139   -0.6390    0.3296 C.2        1 <1>        0.000
     10 O7         -5.7577   -1.2520   -0.2493 O.3        1 <1>        0.000
     11 O8         -3.5814   -0.9021   -0.0374 O.2        1 <1>        0.000
     12 H           1.7309    1.5124   -1.1320 H.spc      1 <1>        0.000
     13 H           3.5479    1.7623   -0.6844 H.spc      1 <1>        0.000
     14 H           3.0795    1.3253    1.5955 H.spc      1 <1>        0.000
     15 H           0.9410    0.3793    2.3811 H.spc      1 <1>        0.000
     16 H          -0.2573    1.9445    0.0801 H.spc      1 <1>        0.000
     17 H          -1.6072    0.1378    2.1954 H.spc      1 <1>        0.000
     18 H          -2.6808    2.4460    0.5720 H.spc      1 <1>        0.000
     19 H          -4.4167    1.9593    2.5720 H.spc      1 <1>        0.000
     20 H          -5.8859    0.2827    1.9407 H.spc      1 <1>        0.000
     21 H          -6.5729   -0.9378    0.1487 H.spc      1 <1>        0.000
@<TRIPOS>BOND
     1    4    5 1  
     2    9   11 2  
     3    6    7 1  
     4    9   10 1  
     5    7    8 2  
     6    3    4 2  
     7    5    6 2  
     8    8    9 1  
     9    1    2 2  
    10    2    3 1  
    11    1   12 1  
    12    1   13 1  
    13    2   14 1  
    14    3   15 1  
    15    4   16 1  
    16    5   17 1  
    17    6   18 1  
    18    7   19 1  
    19    8   20 1  
    20   10   21 1  
# Name:          frag3-212-7/96164
# Creation time: Sat Jun  5 12:53:11 2010


@<TRIPOS>MOLECULE
frag3-212-7/96164
   21    20     1     1     1
SMALL
USER_CHARGES


@<TRIPOS>ATOM
      1 C21         3.0576    1.4755   -0.2688 C.2        1 <1>        0.000
      2 C22         2.0962    1.2444    0.6302 C.2        1 <1>        0.000
      3 C24         0.6608    1.4099    0.4546 C.2        1 <1>        0.000
      4 C25        -0.2961    1.3094    1.3936 C.2        1 <1>        0.000
      5 C26        -1.7262    1.5094    1.2239 C.2        1 <1>        0.000
      6 C27        -2.7086    1.0508    2.0180 C.2        1 <1>        0.000
      7 C29        -4.1530    1.2109    1.8905 C.2        1 <1>        0.000
      8 C30        -5.0397    0.4767    1.1889 C.2        1 <1>        0.000
      9 C31        -4.7149   -0.6902    0.3572 C.2        1 <1>        0.000
     10 O7         -3.9624   -1.6819    0.8445 O.3        1 <1>        0.000
     11 O8         -5.1407   -0.7539   -0.7876 O.2        1 <1>        0.000
     12 H           2.7974    1.8302   -1.2661 H.spc      1 <1>        0.000
     13 H           4.1020    1.3093   -0.0048 H.spc      1 <1>        0.000
     14 H           2.4248    0.8913    1.6076 H.spc      1 <1>        0.000
     15 H           0.3225    1.6422   -0.5552 H.spc      1 <1>        0.000
     16 H           0.0387    1.0479    2.3974 H.spc      1 <1>        0.000
     17 H          -2.0352    2.0952    0.3582 H.spc      1 <1>        0.000
     18 H          -2.3782    0.4757    2.8830 H.spc      1 <1>        0.000
     19 H          -4.5782    2.0479    2.4444 H.spc      1 <1>        0.000
     20 H          -6.0869    0.7741    1.2433 H.spc      1 <1>        0.000
     21 H          -3.7124   -1.4778    1.7486 H.spc      1 <1>        0.000
@<TRIPOS>BOND
     1    4    5 1  
     2    9   11 2  
     3    6    7 1  
     4    9   10 1  
     5    7    8 2  
     6    3    4 2  
     7    5    6 2  
     8    8    9 1  
     9    1    2 2  
    10    2    3 1  
    11    1   12 1  
    12    1   13 1  
    13    2   14 1  
    14    3   15 1  
    15    4   16 1  
    16    5   17 1  
    17    6   18 1  
    18    7   19 1  
    19    8   20 1  
    20   10   21 1  
# Name:          frag3-212-7/96164
# Creation time: Sat Jun  5 12:53:11 2010


@<TRIPOS>MOLECULE
frag3-212-7/96164
   21    20     1     1     1
SMALL
USER_CHARGES


@<TRIPOS>ATOM
      1 C21         2.8568    1.4943    1.2841 C.2        1 <1>        0.000
      2 C22         2.1015    1.4125    0.1833 C.2        1 <1>        0.000
      3 C24         0.6584    1.5766    0.0939 C.2        1 <1>        0.000
      4 C25        -0.2780    0.9253    0.8106 C.2        1 <1>        0.000
      5 C26        -1.7168    1.1162    0.7625 C.2        1 <1>        0.000
      6 C27        -2.5632    1.1624    1.8080 C.2        1 <1>        0.000
      7 C29        -4.0098    1.3505    1.8185 C.2        1 <1>        0.000
      8 C30        -4.9751    0.5813    1.2766 C.2        1 <1>        0.000
      9 C31        -4.7573   -0.6598    0.5213 C.2        1 <1>        0.000
     10 O7         -3.5231   -1.0697    0.2165 O.3        1 <1>        0.000
     11 O8         -5.7204   -1.3287    0.1698 O.2        1 <1>        0.000
     12 H           2.3940    1.7049    2.2482 H.spc      1 <1>        0.000
     13 H           3.9352    1.3504    1.2171 H.spc      1 <1>        0.000
     14 H           2.6243    1.1996   -0.7491 H.spc      1 <1>        0.000
     15 H           0.2960    2.3052   -0.6313 H.spc      1 <1>        0.000
     16 H           0.0857    0.1688    1.5059 H.spc      1 <1>        0.000
     17 H          -2.1589    1.2348   -0.2267 H.spc      1 <1>        0.000
     18 H          -2.1013    1.0419    2.7879 H.spc      1 <1>        0.000
     19 H          -4.3607    2.2413    2.3396 H.spc      1 <1>        0.000
     20 H          -6.0062    0.9084    1.4104 H.spc      1 <1>        0.000
     21 H          -2.8843   -0.4408    0.5600 H.spc      1 <1>        0.000
@<TRIPOS>BOND
     1    4    5 1  
     2    9   11 2  
     3    6    7 1  
     4    9   10 1  
     5    7    8 2  
     6    3    4 2  
     7    5    6 2  
     8    8    9 1  
     9    1    2 2  
    10    2    3 1  
    11    1   12 1  
    12    1   13 1  
    13    2   14 1  
    14    3   15 1  
    15    4   16 1  
    16    5   17 1  
    17    6   18 1  
    18    7   19 1  
    19    8   20 1  
    20   10   21 1  
# Name:          frag3-212-7/96164
# Creation time: Sat Jun  5 12:53:11 2010


@<TRIPOS>MOLECULE
frag3-212-7/96164
   21    20     1     1     1
SMALL
USER_CHARGES


@<TRIPOS>ATOM
      1 C21         3.1877    0.8972    0.4100 C.2        1 <1>        0.000
      2 C22         1.9847    1.4767    0.3760 C.2        1 <1>        0.000
      3 C24         0.7267    0.9413    0.8614 C.2        1 <1>        0.000
      4 C25        -0.4625    1.5648    0.9350 C.2        1 <1>        0.000
      5 C26        -1.7265    1.0200    1.3879 C.2        1 <1>        0.000
      6 C27        -2.8844    1.6796    1.5699 C.2        1 <1>        0.000
      7 C29        -4.1739    1.1817    2.0231 C.2        1 <1>        0.000
      8 C30        -4.9413    0.1953    1.5125 C.2        1 <1>        0.000
      9 C31        -4.6192   -0.5996    0.3169 C.2        1 <1>        0.000
     10 O7         -4.9506   -0.1142   -0.8866 O.3        1 <1>        0.000
     11 O8         -4.0676   -1.6816    0.4389 O.2        1 <1>        0.000
     12 H           3.3017   -0.0970    0.8420 H.spc      1 <1>        0.000
     13 H           4.0554    1.4186    0.0058 H.spc      1 <1>        0.000
     14 H           1.9432    2.4706   -0.0697 H.spc      1 <1>        0.000
     15 H           0.7481   -0.0917    1.2086 H.spc      1 <1>        0.000
     16 H          -0.4774    2.6067    0.6151 H.spc      1 <1>        0.000
     17 H          -1.7406   -0.0478    1.6063 H.spc      1 <1>        0.000
     18 H          -2.8517    2.7455    1.3443 H.spc      1 <1>        0.000
     19 H          -4.5802    1.6779    2.9044 H.spc      1 <1>        0.000
     20 H          -5.8750   -0.0305    2.0276 H.spc      1 <1>        0.000
     21 H          -5.3721    0.7417   -0.7802 H.spc      1 <1>        0.000
@<TRIPOS>BOND
     1    4    5 1  
     2    9   11 2  
     3    6    7 1  
     4    9   10 1  
     5    7    8 2  
     6    3    4 2  
     7    5    6 2  
     8    8    9 1  
     9    1    2 2  
    10    2    3 1  
    11    1   12 1  
    12    1   13 1  
    13    2   14 1  
    14    3   15 1  
    15    4   16 1  
    16    5   17 1  
    17    6   18 1  
    18    7   19 1  
    19    8   20 1  
    20   10   21 1  
# Name:          frag3-212-7/96164
# Creation time: Sat Jun  5 12:53:11 2010


@<TRIPOS>MOLECULE
frag3-212-7/96164
   21    20     1     1     1
SMALL
USER_CHARGES


@<TRIPOS>ATOM
      1 C21         3.2283    1.1369    0.3996 C.2        1 <1>        0.000
      2 C22         1.9906    1.5696    0.1417 C.2        1 <1>        0.000
      3 C24         0.7809    1.3003    0.9070 C.2        1 <1>        0.000
      4 C25        -0.3108    2.0792    1.0094 C.2        1 <1>        0.000
      5 C26        -1.5327    1.7886    1.7435 C.2        1 <1>        0.000
      6 C27        -2.5369    0.9865    1.3412 C.2        1 <1>        0.000
      7 C29        -3.7820    0.6515    2.0255 C.2        1 <1>        0.000
      8 C30        -4.8255   -0.0929    1.6073 C.2        1 <1>        0.000
      9 C31        -4.9383   -0.7356    0.2913 C.2        1 <1>        0.000
     10 O7         -5.0298   -2.0684    0.1998 O.3        1 <1>        0.000
     11 O8         -4.9709   -0.0547   -0.7215 O.2        1 <1>        0.000
     12 H           3.4152    0.5065    1.2690 H.spc      1 <1>        0.000
     13 H           4.0510    1.4143   -0.2594 H.spc      1 <1>        0.000
     14 H           1.8728    2.1958   -0.7427 H.spc      1 <1>        0.000
     15 H           0.7577    0.3609    1.4594 H.spc      1 <1>        0.000
     16 H          -0.2762    3.0337    0.4843 H.spc      1 <1>        0.000
     17 H          -1.6468    2.2677    2.7159 H.spc      1 <1>        0.000
     18 H          -2.4004    0.5209    0.3651 H.spc      1 <1>        0.000
     19 H          -3.8837    1.0667    3.0282 H.spc      1 <1>        0.000
     20 H          -5.6535   -0.2290    2.3030 H.spc      1 <1>        0.000
     21 H          -4.9883   -2.4520    1.0789 H.spc      1 <1>        0.000
@<TRIPOS>BOND
     1    4    5 1  
     2    9   11 2  
     3    6    7 1  
     4    9   10 1  
     5    7    8 2  
     6    3    4 2  
     7    5    6 2  
     8    8    9 1  
     9    1    2 2  
    10    2    3 1  
    11    1   12 1  
    12    1   13 1  
    13    2   14 1  
    14    3   15 1  
    15    4   16 1  
    16    5   17 1  
    17    6   18 1  
    18    7   19 1  
    19    8   20 1  
    20   10   21 1  
# Name:          frag3-212-7/96164
# Creation time: Sat Jun  5 12:53:11 2010


@<TRIPOS>MOLECULE
frag3-212-7/96164
   21    20     1     1     1
SMALL
USER_CHARGES


@<TRIPOS>ATOM
      1 C21         2.8003    0.6837    0.5234 C.2        1 <1>        0.000
      2 C22         2.1757    1.8574    0.3828 C.2        1 <1>        0.000
      3 C24         0.7483    2.1110    0.4908 C.2        1 <1>        0.000
      4 C25        -0.1800    1.3025    1.0404 C.2        1 <1>        0.000
      5 C26        -1.6011    1.5575    1.1880 C.2        1 <1>        0.000
      6 C27        -2.5104    0.7736    1.7919 C.2        1 <1>        0.000
      7 C29        -3.9432    0.9772    1.9633 C.2        1 <1>        0.000
      8 C30        -4.9782    0.3567    1.3631 C.2        1 <1>        0.000
      9 C31        -4.8692   -0.7023    0.3503 C.2        1 <1>        0.000
     10 O7         -3.8308   -1.5445    0.3552 O.3        1 <1>        0.000
     11 O8         -5.7383   -0.8118   -0.5041 O.2        1 <1>        0.000
     12 H           2.2262   -0.2162    0.7439 H.spc      1 <1>        0.000
     13 H           3.8836    0.6267    0.4175 H.spc      1 <1>        0.000
     14 H           2.8061    2.7190    0.1630 H.spc      1 <1>        0.000
     15 H           0.3901    3.0565    0.0836 H.spc      1 <1>        0.000
     16 H           0.1788    0.3451    1.4182 H.spc      1 <1>        0.000
     17 H          -1.9725    2.4892    0.7612 H.spc      1 <1>        0.000
     18 H          -2.1184   -0.1508    2.2161 H.spc      1 <1>        0.000
     19 H          -4.2191    1.7463    2.6848 H.spc      1 <1>        0.000
     20 H          -5.9819    0.6669    1.6538 H.spc      1 <1>        0.000
     21 H          -3.2453   -1.3245    1.0835 H.spc      1 <1>        0.000
@<TRIPOS>BOND
     1    4    5 1  
     2    9   11 2  
     3    6    7 1  
     4    9   10 1  
     5    7    8 2  
     6    3    4 2  
     7    5    6 2  
     8    8    9 1  
     9    1    2 2  
    10    2    3 1  
    11    1   12 1  
    12    1   13 1  
    13    2   14 1  
    14    3   15 1  
    15    4   16 1  
    16    5   17 1  
    17    6   18 1  
    18    7   19 1  
    19    8   20 1  
    20   10   21 1  
# Name:          frag3-212-7/96164
# Creation time: Sat Jun  5 12:53:11 2010


@<TRIPOS>MOLECULE
frag3-212-7/96164
   21    20     1     1     1
SMALL
USER_CHARGES


@<TRIPOS>ATOM
      1 C21         2.6348    1.9846    0.0120 C.2        1 <1>        0.000
      2 C22         1.9577    0.8703    0.3059 C.2        1 <1>        0.000
      3 C24         0.6311    0.7755    0.8808 C.2        1 <1>        0.000
      4 C25        -0.1109    1.7797    1.3920 C.2        1 <1>        0.000
      5 C26        -1.4530    1.7016    1.9265 C.2        1 <1>        0.000
      6 C27        -2.5354    1.1828    1.3129 C.2        1 <1>        0.000
      7 C29        -3.9037    1.0631    1.7865 C.2        1 <1>        0.000
      8 C30        -4.8985    0.2525    1.3745 C.2        1 <1>        0.000
      9 C31        -4.8029   -0.7232    0.2773 C.2        1 <1>        0.000
     10 O7         -3.8121   -1.6226    0.2953 O.3        1 <1>        0.000
     11 O8         -5.6340   -0.7035   -0.6185 O.2        1 <1>        0.000
     12 H           2.1887    2.9603    0.2049 H.spc      1 <1>        0.000
     13 H           3.6331    1.9177   -0.4205 H.spc      1 <1>        0.000
     14 H           2.4597   -0.0726    0.0888 H.spc      1 <1>        0.000
     15 H           0.1826   -0.2177    0.9027 H.spc      1 <1>        0.000
     16 H           0.3553    2.7649    1.4037 H.spc      1 <1>        0.000
     17 H          -1.6045    2.1035    2.9283 H.spc      1 <1>        0.000
     18 H          -2.3572    0.7945    0.3101 H.spc      1 <1>        0.000
     19 H          -4.1672    1.7346    2.6037 H.spc      1 <1>        0.000
     20 H          -5.8523    0.3257    1.8971 H.spc      1 <1>        0.000
     21 H          -3.2656   -1.4795    1.0715 H.spc      1 <1>        0.000
@<TRIPOS>BOND
     1    4    5 1  
     2    9   11 2  
     3    6    7 1  
     4    9   10 1  
     5    7    8 2  
     6    3    4 2  
     7    5    6 2  
     8    8    9 1  
     9    1    2 2  
    10    2    3 1  
    11    1   12 1  
    12    1   13 1  
    13    2   14 1  
    14    3   15 1  
    15    4   16 1  
    16    5   17 1  
    17    6   18 1  
    18    7   19 1  
    19    8   20 1  
    20   10   21 1  
# Name:          frag3-212-7/96164
# Creation time: Sat Jun  5 12:53:11 2010


@<TRIPOS>MOLECULE
frag3-212-7/96164
   21    20     1     1     1
SMALL
USER_CHARGES


@<TRIPOS>ATOM
      1 C21         2.8324    0.8115    0.0150 C.2        1 <1>        0.000
      2 C22         2.3676    1.8846    0.6618 C.2        1 <1>        0.000
      3 C24         1.0408    2.0730    1.2097 C.2        1 <1>        0.000
      4 C25        -0.0361    1.2802    1.0347 C.2        1 <1>        0.000
      5 C26        -1.3572    1.4328    1.6003 C.2        1 <1>        0.000
      6 C27        -2.4886    0.8096    1.2310 C.2        1 <1>        0.000
      7 C29        -3.8377    0.9301    1.7575 C.2        1 <1>        0.000
      8 C30        -4.9754    0.2949    1.4005 C.2        1 <1>        0.000
      9 C31        -5.0849   -0.6961    0.3196 C.2        1 <1>        0.000
     10 O7         -6.1998   -1.4360    0.2119 O.3        1 <1>        0.000
     11 O8         -4.1882   -0.8236   -0.4970 O.2        1 <1>        0.000
     12 H           2.1844   -0.0497   -0.1479 H.spc      1 <1>        0.000
     13 H           3.8595    0.7974   -0.3496 H.spc      1 <1>        0.000
     14 H           3.0662    2.7112    0.7915 H.spc      1 <1>        0.000
     15 H           0.8960    2.9548    1.8339 H.spc      1 <1>        0.000
     16 H           0.1080    0.4165    0.3856 H.spc      1 <1>        0.000
     17 H          -1.4464    2.1386    2.4261 H.spc      1 <1>        0.000
     18 H          -2.3773    0.1035    0.4081 H.spc      1 <1>        0.000
     19 H          -3.9496    1.6476    2.5703 H.spc      1 <1>        0.000
     20 H          -5.8817    0.5354    1.9563 H.spc      1 <1>        0.000
     21 H          -6.7997   -1.2148    0.9280 H.spc      1 <1>        0.000
@<TRIPOS>BOND
     1    4    5 1  
     2    9   11 2  
     3    6    7 1  
     4    9   10 1  
     5    7    8 2  
     6    3    4 2  
     7    5    6 2  
     8    8    9 1  
     9    1    2 2  
    10    2    3 1  
    11    1   12 1  
    12    1   13 1  
    13    2   14 1  
    14    3   15 1  
    15    4   16 1  
    16    5   17 1  
    17    6   18 1  
    18    7   19 1  
    19    8   20 1  
    20   10   21 1  
# Name:          frag3-212-7/96164
# Creation time: Sat Jun  5 12:53:11 2010


@<TRIPOS>MOLECULE
frag3-212-7/96164
   21    20     1     1     1
SMALL
USER_CHARGES


@<TRIPOS>ATOM
      1 C21         2.7844    1.1695    0.5528 C.2        1 <1>        0.000
      2 C22         1.7411    1.8357    0.0493 C.2        1 <1>        0.000
      3 C24         0.3416    1.6464    0.3714 C.2        1 <1>        0.000
      4 C25        -0.1779    0.8176    1.3008 C.2        1 <1>        0.000
      5 C26        -1.5720    0.6549    1.6528 C.2        1 <1>        0.000
      6 C27        -2.5748    1.5151    1.3814 C.2        1 <1>        0.000
      7 C29        -3.9889    1.4195    1.7014 C.2        1 <1>        0.000
      8 C30        -4.8928    0.4923    1.3251 C.2        1 <1>        0.000
      9 C31        -4.6234   -0.6495    0.4397 C.2        1 <1>        0.000
     10 O7         -3.6319   -1.5060    0.7108 O.3        1 <1>        0.000
     11 O8         -5.3325   -0.8344   -0.5404 O.2        1 <1>        0.000
     12 H           2.6246    0.3849    1.2924 H.spc      1 <1>        0.000
     13 H           3.7952    1.4107    0.2239 H.spc      1 <1>        0.000
     14 H           1.9686    2.6077   -0.6858 H.spc      1 <1>        0.000
     15 H          -0.3715    2.2397   -0.2009 H.spc      1 <1>        0.000
     16 H           0.5337    0.2002    1.8490 H.spc      1 <1>        0.000
     17 H          -1.8386   -0.2544    2.1915 H.spc      1 <1>        0.000
     18 H          -2.2808    2.4155    0.8420 H.spc      1 <1>        0.000
     19 H          -4.3759    2.2140    2.3394 H.spc      1 <1>        0.000
     20 H          -5.9073    0.5984    1.7094 H.spc      1 <1>        0.000
     21 H          -3.1740   -1.2225    1.5055 H.spc      1 <1>        0.000
@<TRIPOS>BOND
     1    4    5 1  
     2    9   11 2  
     3    6    7 1  
     4    9   10 1  
     5    7    8 2  
     6    3    4 2  
     7    5    6 2  
     8    8    9 1  
     9    1    2 2  
    10    2    3 1  
    11    1   12 1  
    12    1   13 1  
    13    2   14 1  
    14    3   15 1  
    15    4   16 1  
    16    5   17 1  
    17    6   18 1  
    18    7   19 1  
    19    8   20 1  
    20   10   21 1  
# Name:          frag3-212-7/96164
# Creation time: Sat Jun  5 12:53:11 2010


@<TRIPOS>MOLECULE
frag3-212-7/96164
   21    20     1     1     1
SMALL
USER_CHARGES


@<TRIPOS>ATOM
      1 C21         2.4961    0.9273   -0.6167 C.2        1 <1>        0.000
      2 C22         1.8808    1.4131    0.4645 C.2        1 <1>        0.000
      3 C24         0.4636    1.3922    0.7648 C.2        1 <1>        0.000
      4 C25        -0.1546    1.8352    1.8754 C.2        1 <1>        0.000
      5 C26        -1.5769    1.8392    2.1495 C.2        1 <1>        0.000
      6 C27        -2.4872    0.9554    1.6921 C.2        1 <1>        0.000
      7 C29        -3.9223    0.9014    1.9128 C.2        1 <1>        0.000
      8 C30        -4.8766    0.2024    1.2643 C.2        1 <1>        0.000
      9 C31        -4.6443   -0.6853    0.1141 C.2        1 <1>        0.000
     10 O7         -4.4834   -1.9962    0.3394 O.3        1 <1>        0.000
     11 O8         -4.6223   -0.2236   -1.0151 O.2        1 <1>        0.000
     12 H           1.9159    0.4452   -1.4035 H.spc      1 <1>        0.000
     13 H           3.5785    1.0129   -0.7123 H.spc      1 <1>        0.000
     14 H           2.5221    1.8818    1.2109 H.spc      1 <1>        0.000
     15 H          -0.1814    0.9652   -0.0031 H.spc      1 <1>        0.000
     16 H           0.4888    2.2370    2.6582 H.spc      1 <1>        0.000
     17 H          -1.9495    2.6379    2.7908 H.spc      1 <1>        0.000
     18 H          -2.0857    0.1619    1.0618 H.spc      1 <1>        0.000
     19 H          -4.2849    1.5236    2.7311 H.spc      1 <1>        0.000
     20 H          -5.9017    0.3033    1.6209 H.spc      1 <1>        0.000
     21 H          -4.5311   -2.1658    1.2831 H.spc      1 <1>        0.000
@<TRIPOS>BOND
     1    4    5 1  
     2    9   11 2  
     3    6    7 1  
     4    9   10 1  
     5    7    8 2  
     6    3    4 2  
     7    5    6 2  
     8    8    9 1  
     9    1    2 2  
    10    2    3 1  
    11    1   12 1  
    12    1   13 1  
    13    2   14 1  
    14    3   15 1  
    15    4   16 1  
    16    5   17 1  
    17    6   18 1  
    18    7   19 1  
    19    8   20 1  
    20   10   21 1  
# Name:          frag3-212-7/96164
# Creation time: Sat Jun  5 12:53:11 2010


@<TRIPOS>MOLECULE
frag3-212-7/96164
   21    20     1     1     1
SMALL
USER_CHARGES


@<TRIPOS>ATOM
      1 C21         3.0747    1.2879   -0.1436 C.2        1 <1>        0.000
      2 C22         2.1004    1.1567    0.7613 C.2        1 <1>        0.000
      3 C24         0.6718    1.3303    0.5578 C.2        1 <1>        0.000
      4 C25        -0.2970    1.3325    1.4905 C.2        1 <1>        0.000
      5 C26        -1.7198    1.5400    1.2893 C.2        1 <1>        0.000
      6 C27        -2.7261    1.0530    2.0359 C.2        1 <1>        0.000
      7 C29        -4.1654    1.2171    1.8727 C.2        1 <1>        0.000
      8 C30        -5.0340    0.5121    1.1145 C.2        1 <1>        0.000
      9 C31        -4.6779   -0.6225    0.2514 C.2        1 <1>        0.000
     10 O7         -5.6049   -1.1641   -0.5537 O.3        1 <1>        0.000
     11 O8         -3.5489   -1.0819    0.2689 O.2        1 <1>        0.000
     12 H           2.8311    1.5551   -1.1719 H.spc      1 <1>        0.000
     13 H           4.1131    1.1277    0.1465 H.spc      1 <1>        0.000
     14 H           2.4136    0.8880    1.7702 H.spc      1 <1>        0.000
     15 H           0.3473    1.4759   -0.4725 H.spc      1 <1>        0.000
     16 H           0.0234    1.1581    2.5176 H.spc      1 <1>        0.000
     17 H          -2.0036    2.1594    0.4385 H.spc      1 <1>        0.000
     18 H          -2.4210    0.4463    2.8885 H.spc      1 <1>        0.000
     19 H          -4.6072    2.0303    2.4485 H.spc      1 <1>        0.000
     20 H          -6.0824    0.8088    1.1457 H.spc      1 <1>        0.000
     21 H          -6.4336   -0.6908   -0.4494 H.spc      1 <1>        0.000
@<TRIPOS>BOND
     1    4    5 1  
     2    9   11 2  
     3    6    7 1  
     4    9   10 1  
     5    7    8 2  
     6    3    4 2  
     7    5    6 2  
     8    8    9 1  
     9    1    2 2  
    10    2    3 1  
    11    1   12 1  
    12    1   13 1  
    13    2   14 1  
    14    3   15 1  
    15    4   16 1  
    16    5   17 1  
    17    6   18 1  
    18    7   19 1  
    19    8   20 1  
    20   10   21 1  
# Name:          frag3-212-7/96164
# Creation time: Sat Jun  5 12:53:11 2010


@<TRIPOS>MOLECULE
frag3-212-7/96164
   21    20     1     1     1
SMALL
USER_CHARGES


@<TRIPOS>ATOM
      1 C21         3.2391    1.7210    1.2129 C.2        1 <1>        0.000
      2 C22         2.1824    1.2513    0.5431 C.2        1 <1>        0.000
      3 C24         0.7819    1.5845    0.7509 C.2        1 <1>        0.000
      4 C25        -0.2922    0.9980    0.1935 C.2        1 <1>        0.000
      5 C26        -1.6909    1.3055    0.4385 C.2        1 <1>        0.000
      6 C27        -2.4173    0.9409    1.5126 C.2        1 <1>        0.000
      7 C29        -3.8169    1.2153    1.8189 C.2        1 <1>        0.000
      8 C30        -4.9292    0.5480    1.4400 C.2        1 <1>        0.000
      9 C31        -4.9509   -0.6510    0.5919 C.2        1 <1>        0.000
     10 O7         -6.1236   -1.1886    0.2231 O.3        1 <1>        0.000
     11 O8         -3.9092   -1.1638    0.2195 O.2        1 <1>        0.000
     12 H           3.0973    2.4402    2.0196 H.spc      1 <1>        0.000
     13 H           4.2428    1.3850    0.9525 H.spc      1 <1>        0.000
     14 H           2.3946    0.5355   -0.2510 H.spc      1 <1>        0.000
     15 H           0.5793    2.4054    1.4387 H.spc      1 <1>        0.000
     16 H          -0.0907    0.2018   -0.5232 H.spc      1 <1>        0.000
     17 H          -2.2045    1.8906   -0.3243 H.spc      1 <1>        0.000
     18 H          -1.8821    0.3564    2.2610 H.spc      1 <1>        0.000
     19 H          -3.9915    2.0888    2.4470 H.spc      1 <1>        0.000
     20 H          -5.8873    0.9303    1.7921 H.spc      1 <1>        0.000
     21 H          -6.8422   -0.6720    0.5951 H.spc      1 <1>        0.000
@<TRIPOS>BOND
     1    4    5 1  
     2    9   11 2  
     3    6    7 1  
     4    9   10 1  
     5    7    8 2  
     6    3    4 2  
     7    5    6 2  
     8    8    9 1  
     9    1    2 2  
    10    2    3 1  
    11    1   12 1  
    12    1   13 1  
    13    2   14 1  
    14    3   15 1  
    15    4   16 1  
    16    5   17 1  
    17    6   18 1  
    18    7   19 1  
    19    8   20 1  
    20   10   21 1  
# Name:          frag3-212-7/96164
# Creation time: Sat Jun  5 12:53:11 2010


@<TRIPOS>MOLECULE
frag3-212-7/96164
   21    20     1     1     1
SMALL
USER_CHARGES


@<TRIPOS>ATOM
      1 C21         2.7940    0.9901    0.9687 C.2        1 <1>        0.000
      2 C22         1.8740    1.8005    0.4359 C.2        1 <1>        0.000
      3 C24         0.4358    1.7143    0.5891 C.2        1 <1>        0.000
      4 C25        -0.2931    0.6088    0.8463 C.2        1 <1>        0.000
      5 C26        -1.7239    0.5263    1.0434 C.2        1 <1>        0.000
      6 C27        -2.5320    1.5074    1.4944 C.2        1 <1>        0.000
      7 C29        -3.9685    1.4963    1.7163 C.2        1 <1>        0.000
      8 C30        -4.8932    0.6101    1.2879 C.2        1 <1>        0.000
      9 C31        -4.6186   -0.5704    0.4564 C.2        1 <1>        0.000
     10 O7         -4.4706   -0.4486   -0.8692 O.3        1 <1>        0.000
     11 O8         -4.5308   -1.6738    0.9760 O.2        1 <1>        0.000
     12 H           2.4859    0.1544    1.5971 H.spc      1 <1>        0.000
     13 H           3.8523    1.1650    0.7748 H.spc      1 <1>        0.000
     14 H           2.2473    2.6168   -0.1825 H.spc      1 <1>        0.000
     15 H          -0.1190    2.6467    0.4849 H.spc      1 <1>        0.000
     16 H           0.2586   -0.3289    0.9132 H.spc      1 <1>        0.000
     17 H          -2.1970   -0.4258    0.8029 H.spc      1 <1>        0.000
     18 H          -2.0338    2.4486    1.7271 H.spc      1 <1>        0.000
     19 H          -4.3548    2.3217    2.3143 H.spc      1 <1>        0.000
     20 H          -5.9279    0.7846    1.5829 H.spc      1 <1>        0.000
     21 H          -4.5671    0.4737   -1.1174 H.spc      1 <1>        0.000
@<TRIPOS>BOND
     1    4    5 1  
     2    9   11 2  
     3    6    7 1  
     4    9   10 1  
     5    7    8 2  
     6    3    4 2  
     7    5    6 2  
     8    8    9 1  
     9    1    2 2  
    10    2    3 1  
    11    1   12 1  
    12    1   13 1  
    13    2   14 1  
    14    3   15 1  
    15    4   16 1  
    16    5   17 1  
    17    6   18 1  
    18    7   19 1  
    19    8   20 1  
    20   10   21 1  
# Name:          frag3-212-7/96164
# Creation time: Sat Jun  5 12:53:11 2010


@<TRIPOS>MOLECULE
frag3-212-7/96164
   21    20     1     1     1
SMALL
USER_CHARGES


@<TRIPOS>ATOM
      1 C21         2.9406    0.6420    0.5077 C.2        1 <1>        0.000
      2 C22         2.3272    1.8229    0.6410 C.2        1 <1>        0.000
      3 C24         0.9786    2.0620    1.1268 C.2        1 <1>        0.000
      4 C25        -0.1423    1.4045    0.7701 C.2        1 <1>        0.000
      5 C26        -1.4857    1.6027    1.2820 C.2        1 <1>        0.000
      6 C27        -2.4620    0.6829    1.3812 C.2        1 <1>        0.000
      7 C29        -3.8218    0.8254    1.8843 C.2        1 <1>        0.000
      8 C30        -4.9665    0.2602    1.4513 C.2        1 <1>        0.000
      9 C31        -5.0859   -0.6603    0.3121 C.2        1 <1>        0.000
     10 O7         -4.4076   -0.4334   -0.8179 O.3        1 <1>        0.000
     11 O8         -5.8015   -1.6477    0.4065 O.2        1 <1>        0.000
     12 H           2.4195   -0.2764    0.7781 H.spc      1 <1>        0.000
     13 H           3.9616    0.5979    0.1287 H.spc      1 <1>        0.000
     14 H           2.9022    2.7031    0.3536 H.spc      1 <1>        0.000
     15 H           0.8609    2.8602    1.8596 H.spc      1 <1>        0.000
     16 H          -0.0264    0.6338    0.0081 H.spc      1 <1>        0.000
     17 H          -1.7306    2.6083    1.6239 H.spc      1 <1>        0.000
     18 H          -2.1969   -0.3158    1.0342 H.spc      1 <1>        0.000
     19 H          -3.9301    1.4902    2.7413 H.spc      1 <1>        0.000
     20 H          -5.8804    0.5067    1.9917 H.spc      1 <1>        0.000
     21 H          -3.8990    0.3757   -0.7275 H.spc      1 <1>        0.000
@<TRIPOS>BOND
     1    4    5 1  
     2    9   11 2  
     3    6    7 1  
     4    9   10 1  
     5    7    8 2  
     6    3    4 2  
     7    5    6 2  
     8    8    9 1  
     9    1    2 2  
    10    2    3 1  
    11    1   12 1  
    12    1   13 1  
    13    2   14 1  
    14    3   15 1  
    15    4   16 1  
    16    5   17 1  
    17    6   18 1  
    18    7   19 1  
    19    8   20 1  
    20   10   21 1  
# Name:          frag3-212-7/96164
# Creation time: Sat Jun  5 12:53:11 2010


@<TRIPOS>MOLECULE
frag3-212-7/96164
   21    20     1     1     1
SMALL
USER_CHARGES


@<TRIPOS>ATOM
      1 C21         2.7116    1.9101   -0.1046 C.2        1 <1>        0.000
      2 C22         1.9334    1.1987    0.7152 C.2        1 <1>        0.000
      3 C24         0.4872    1.1374    0.7369 C.2        1 <1>        0.000
      4 C25        -0.3056    0.5779    1.6682 C.2        1 <1>        0.000
      5 C26        -1.7522    0.5613    1.7011 C.2        1 <1>        0.000
      6 C27        -2.5775    1.5838    1.3979 C.2        1 <1>        0.000
      7 C29        -4.0293    1.6369    1.4050 C.2        1 <1>        0.000
      8 C30        -4.9230    0.7211    0.9742 C.2        1 <1>        0.000
      9 C31        -4.5841   -0.5726    0.3594 C.2        1 <1>        0.000
     10 O7         -4.4663   -0.6376   -0.9734 O.3        1 <1>        0.000
     11 O8         -4.4213   -1.5560    1.0652 O.2        1 <1>        0.000
     12 H           2.2623    2.5407   -0.8718 H.spc      1 <1>        0.000
     13 H           3.7960    1.8601   -0.0065 H.spc      1 <1>        0.000
     14 H           2.4498    0.5906    1.4579 H.spc      1 <1>        0.000
     15 H          -0.0227    1.6027   -0.1067 H.spc      1 <1>        0.000
     16 H           0.2005    0.0788    2.4945 H.spc      1 <1>        0.000
     17 H          -2.2235   -0.3743    2.0020 H.spc      1 <1>        0.000
     18 H          -2.0812    2.5085    1.1035 H.spc      1 <1>        0.000
     19 H          -4.4598    2.5490    1.8184 H.spc      1 <1>        0.000
     20 H          -5.9803    0.9589    1.0911 H.spc      1 <1>        0.000
     21 H          -4.6290    0.2301   -1.3506 H.spc      1 <1>        0.000
@<TRIPOS>BOND
     1    4    5 1  
     2    9   11 2  
     3    6    7 1  
     4    9   10 1  
     5    7    8 2  
     6    3    4 2  
     7    5    6 2  
     8    8    9 1  
     9    1    2 2  
    10    2    3 1  
    11    1   12 1  
    12    1   13 1  
    13    2   14 1  
    14    3   15 1  
    15    4   16 1  
    16    5   17 1  
    17    6   18 1  
    18    7   19 1  
    19    8   20 1  
    20   10   21 1  
# Name:          frag3-212-7/96164
# Creation time: Sat Jun  5 12:53:11 2010


@<TRIPOS>MOLECULE
frag3-212-7/96164
   21    20     1     1     1
SMALL
USER_CHARGES


@<TRIPOS>ATOM
      1 C21         2.8878    1.1118    0.4189 C.2        1 <1>        0.000
      2 C22         1.7074    1.4822   -0.0848 C.2        1 <1>        0.000
      3 C24         0.3890    1.1722    0.4399 C.2        1 <1>        0.000
      4 C25        -0.1433    1.5898    1.6055 C.2        1 <1>        0.000
      5 C26        -1.4739    1.3100    2.1141 C.2        1 <1>        0.000
      6 C27        -2.6280    1.3815    1.4215 C.2        1 <1>        0.000
      7 C29        -3.9896    1.1119    1.8627 C.2        1 <1>        0.000
      8 C30        -4.8904    0.2277    1.3909 C.2        1 <1>        0.000
      9 C31        -4.6832   -0.6784    0.2532 C.2        1 <1>        0.000
     10 O7         -3.4533   -1.0725   -0.0918 O.3        1 <1>        0.000
     11 O8         -5.6494   -1.0753   -0.3850 O.2        1 <1>        0.000
     12 H           2.9282    0.5074    1.3251 H.spc      1 <1>        0.000
     13 H           3.8106    1.4139   -0.0763 H.spc      1 <1>        0.000
     14 H           1.7369    2.0853   -0.9923 H.spc      1 <1>        0.000
     15 H          -0.2397    0.5306   -0.1776 H.spc      1 <1>        0.000
     16 H           0.4966    2.2064    2.2367 H.spc      1 <1>        0.000
     17 H          -1.5469    1.0125    3.1602 H.spc      1 <1>        0.000
     18 H          -2.5277    1.6853    0.3795 H.spc      1 <1>        0.000
     19 H          -4.3320    1.7173    2.7020 H.spc      1 <1>        0.000
     20 H          -5.8549    0.1808    1.8964 H.spc      1 <1>        0.000
     21 H          -2.8127   -0.6759    0.5031 H.spc      1 <1>        0.000
@<TRIPOS>BOND
     1    4    5 1  
     2    9   11 2  
     3    6    7 1  
     4    9   10 1  
     5    7    8 2  
     6    3    4 2  
     7    5    6 2  
     8    8    9 1  
     9    1    2 2  
    10    2    3 1  
    11    1   12 1  
    12    1   13 1  
    13    2   14 1  
    14    3   15 1  
    15    4   16 1  
    16    5   17 1  
    17    6   18 1  
    18    7   19 1  
    19    8   20 1  
    20   10   21 1  
# Name:          frag3-212-7/96164
# Creation time: Sat Jun  5 12:53:11 2010


@<TRIPOS>MOLECULE
frag3-212-7/96164
   21    20     1     1     1
SMALL
USER_CHARGES


@<TRIPOS>ATOM
      1 C21         2.9350    2.2372    0.7062 C.2        1 <1>        0.000
      2 C22         2.0451    1.2428    0.6606 C.2        1 <1>        0.000
      3 C24         0.6253    1.3068    0.9313 C.2        1 <1>        0.000
      4 C25        -0.2880    0.3264    0.8135 C.2        1 <1>        0.000
      5 C26        -1.6997    0.3963    1.1203 C.2        1 <1>        0.000
      6 C27        -2.4858    1.4897    1.0615 C.2        1 <1>        0.000
      7 C29        -3.8992    1.6341    1.3629 C.2        1 <1>        0.000
      8 C30        -4.9099    0.7584    1.1735 C.2        1 <1>        0.000
      9 C31        -4.7722   -0.5795    0.5745 C.2        1 <1>        0.000
     10 O7         -5.0968   -0.7372   -0.7157 O.3        1 <1>        0.000
     11 O8         -4.3808   -1.5140    1.2566 O.2        1 <1>        0.000
     12 H           2.6141    3.2439    0.9739 H.spc      1 <1>        0.000
     13 H           3.9824    2.0423    0.4758 H.spc      1 <1>        0.000
     14 H           2.4361    0.2631    0.3859 H.spc      1 <1>        0.000
     15 H           0.2484    2.2705    1.2737 H.spc      1 <1>        0.000
     16 H           0.0781   -0.6315    0.4441 H.spc      1 <1>        0.000
     17 H          -2.1780   -0.5324    1.4316 H.spc      1 <1>        0.000
     18 H          -1.9854    2.4029    0.7393 H.spc      1 <1>        0.000
     19 H          -4.1859    2.5876    1.8063 H.spc      1 <1>        0.000
     20 H          -5.9066    1.0666    1.4892 H.spc      1 <1>        0.000
     21 H          -5.3796    0.1053   -1.0786 H.spc      1 <1>        0.000
@<TRIPOS>BOND
     1    4    5 1  
     2    9   11 2  
     3    6    7 1  
     4    9   10 1  
     5    7    8 2  
     6    3    4 2  
     7    5    6 2  
     8    8    9 1  
     9    1    2 2  
    10    2    3 1  
    11    1   12 1  
    12    1   13 1  
    13    2   14 1  
    14    3   15 1  
    15    4   16 1  
    16    5   17 1  
    17    6   18 1  
    18    7   19 1  
    19    8   20 1  
    20   10   21 1  
# Name:          frag3-212-7/96164
# Creation time: Sat Jun  5 12:53:11 2010


@<TRIPOS>MOLECULE
frag3-212-7/96164
   21    20     1     1     1
SMALL
USER_CHARGES


@<TRIPOS>ATOM
      1 C21         2.8373    1.6522    0.6351 C.2        1 <1>        0.000
      2 C22         1.8213    1.0146    0.0450 C.2        1 <1>        0.000
      3 C24         0.4408    0.9709    0.4835 C.2        1 <1>        0.000
      4 C25        -0.0517    1.3796    1.6716 C.2        1 <1>        0.000
      5 C26        -1.4360    1.3767    2.0978 C.2        1 <1>        0.000
      6 C27        -2.5197    1.2668    1.3028 C.2        1 <1>        0.000
      7 C29        -3.9304    1.2563    1.6521 C.2        1 <1>        0.000
      8 C30        -4.9233    0.4497    1.2262 C.2        1 <1>        0.000
      9 C31        -4.7753   -0.6377    0.2494 C.2        1 <1>        0.000
     10 O7         -4.2950   -0.3907   -0.9756 O.3        1 <1>        0.000
     11 O8         -5.0949   -1.7774    0.5572 O.2        1 <1>        0.000
     12 H           2.6672    2.2184    1.5509 H.spc      1 <1>        0.000
     13 H           3.8358    1.6059    0.2005 H.spc      1 <1>        0.000
     14 H           2.0575    0.4668   -0.8673 H.spc      1 <1>        0.000
     15 H          -0.2799    0.5626   -0.2250 H.spc      1 <1>        0.000
     16 H           0.6749    1.7545    2.3925 H.spc      1 <1>        0.000
     17 H          -1.6202    1.4729    3.1678 H.spc      1 <1>        0.000
     18 H          -2.3054    1.1715    0.2383 H.spc      1 <1>        0.000
     19 H          -4.2327    2.0189    2.3698 H.spc      1 <1>        0.000
     20 H          -5.9173    0.6182    1.6406 H.spc      1 <1>        0.000
     21 H          -4.0936    0.5444   -1.0566 H.spc      1 <1>        0.000
@<TRIPOS>BOND
     1    4    5 1  
     2    9   11 2  
     3    6    7 1  
     4    9   10 1  
     5    7    8 2  
     6    3    4 2  
     7    5    6 2  
     8    8    9 1  
     9    1    2 2  
    10    2    3 1  
    11    1   12 1  
    12    1   13 1  
    13    2   14 1  
    14    3   15 1  
    15    4   16 1  
    16    5   17 1  
    17    6   18 1  
    18    7   19 1  
    19    8   20 1  
    20   10   21 1  
# Name:          frag3-212-7/96164
# Creation time: Sat Jun  5 12:53:11 2010


@<TRIPOS>MOLECULE
frag3-212-7/96164
   21    20     1     1     1
SMALL
USER_CHARGES


@<TRIPOS>ATOM
      1 C21         2.6130    1.5884   -0.2212 C.2        1 <1>        0.000
      2 C22         2.1838    0.8746    0.8244 C.2        1 <1>        0.000
      3 C24         0.8557    0.8809    1.4053 C.2        1 <1>        0.000
      4 C25        -0.1211    1.7878    1.1981 C.2        1 <1>        0.000
      5 C26        -1.4645    1.7797    1.7356 C.2        1 <1>        0.000
      6 C27        -2.5113    1.0593    1.2875 C.2        1 <1>        0.000
      7 C29        -3.8771    0.9978    1.7810 C.2        1 <1>        0.000
      8 C30        -4.9268    0.2707    1.3484 C.2        1 <1>        0.000
      9 C31        -4.9039   -0.6588    0.2079 C.2        1 <1>        0.000
     10 O7         -4.6159   -0.1796   -1.0086 O.3        1 <1>        0.000
     11 O8         -5.1590   -1.8398    0.3869 O.2        1 <1>        0.000
     12 H           1.9320    2.2678   -0.7337 H.spc      1 <1>        0.000
     13 H           3.6440    1.4910   -0.5613 H.spc      1 <1>        0.000
     14 H           2.9139    0.2142    1.2923 H.spc      1 <1>        0.000
     15 H           0.6202    0.0619    2.0850 H.spc      1 <1>        0.000
     16 H           0.1315    2.6261    0.5488 H.spc      1 <1>        0.000
     17 H          -1.6493    2.4250    2.5944 H.spc      1 <1>        0.000
     18 H          -2.3023    0.4271    0.4245 H.spc      1 <1>        0.000
     19 H          -4.0856    1.6411    2.6358 H.spc      1 <1>        0.000
     20 H          -5.8682    0.3802    1.8868 H.spc      1 <1>        0.000
     21 H          -4.4451    0.7631   -0.9478 H.spc      1 <1>        0.000
@<TRIPOS>BOND
     1    4    5 1  
     2    9   11 2  
     3    6    7 1  
     4    9   10 1  
     5    7    8 2  
     6    3    4 2  
     7    5    6 2  
     8    8    9 1  
     9    1    2 2  
    10    2    3 1  
    11    1   12 1  
    12    1   13 1  
    13    2   14 1  
    14    3   15 1  
    15    4   16 1  
    16    5   17 1  
    17    6   18 1  
    18    7   19 1  
    19    8   20 1  
    20   10   21 1  
# Name:          frag3-212-7/96164
# Creation time: Sat Jun  5 12:53:11 2010


@<TRIPOS>MOLECULE
frag3-212-7/96164
   21    20     1     1     1
SMALL
USER_CHARGES


@<TRIPOS>ATOM
      1 C21         2.5553    1.4516   -0.6157 C.2        1 <1>        0.000
      2 C22         1.8359    1.4835    0.5088 C.2        1 <1>        0.000
      3 C24         0.4133    1.2570    0.6607 C.2        1 <1>        0.000
      4 C25        -0.2603    0.9455    1.7825 C.2        1 <1>        0.000
      5 C26        -1.6880    0.7592    1.9318 C.2        1 <1>        0.000
      6 C27        -2.6576    1.6017    1.5219 C.2        1 <1>        0.000
      7 C29        -4.1012    1.4767    1.6339 C.2        1 <1>        0.000
      8 C30        -4.9194    0.5219    1.1471 C.2        1 <1>        0.000
      9 C31        -4.4964   -0.6269    0.3325 C.2        1 <1>        0.000
     10 O7         -3.6505   -1.5356    0.8322 O.3        1 <1>        0.000
     11 O8         -4.9581   -0.7735   -0.7907 O.2        1 <1>        0.000
     12 H           2.0700    1.2341   -1.5672 H.spc      1 <1>        0.000
     13 H           3.6278    1.6431   -0.5822 H.spc      1 <1>        0.000
     14 H           2.3857    1.7070    1.4230 H.spc      1 <1>        0.000
     15 H          -0.1850    1.3505   -0.2456 H.spc      1 <1>        0.000
     16 H           0.3387    0.8186    2.6842 H.spc      1 <1>        0.000
     17 H          -2.0126   -0.1563    2.4264 H.spc      1 <1>        0.000
     18 H          -2.3068    2.5113    1.0343 H.spc      1 <1>        0.000
     19 H          -4.5948    2.2713    2.1934 H.spc      1 <1>        0.000
     20 H          -5.9815    0.6087    1.3762 H.spc      1 <1>        0.000
     21 H          -3.3848   -1.2718    1.7162 H.spc      1 <1>        0.000
@<TRIPOS>BOND
     1    4    5 1  
     2    9   11 2  
     3    6    7 1  
     4    9   10 1  
     5    7    8 2  
     6    3    4 2  
     7    5    6 2  
     8    8    9 1  
     9    1    2 2  
    10    2    3 1  
    11    1   12 1  
    12    1   13 1  
    13    2   14 1  
    14    3   15 1  
    15    4   16 1  
    16    5   17 1  
    17    6   18 1  
    18    7   19 1  
    19    8   20 1  
    20   10   21 1  
# Name:          frag3-212-7/96164
# Creation time: Sat Jun  5 12:53:11 2010


@<TRIPOS>MOLECULE
frag3-212-7/96164
   21    20     1     1     1
SMALL
USER_CHARGES


@<TRIPOS>ATOM
      1 C21         2.8277    0.5057    0.1999 C.2        1 <1>        0.000
      2 C22         1.8921    1.4411    0.3833 C.2        1 <1>        0.000
      3 C24         0.5579    1.2689    0.9224 C.2        1 <1>        0.000
      4 C25        -0.3681    2.2162    1.1579 C.2        1 <1>        0.000
      5 C26        -1.7136    2.0259    1.6626 C.2        1 <1>        0.000
      6 C27        -2.4235    0.8801    1.6421 C.2        1 <1>        0.000
      7 C29        -3.7709    0.6143    2.1196 C.2        1 <1>        0.000
      8 C30        -4.7874   -0.0349    1.5195 C.2        1 <1>        0.000
      9 C31        -4.7450   -0.6338    0.1773 C.2        1 <1>        0.000
     10 O7         -3.7979   -0.2730   -0.6950 O.3        1 <1>        0.000
     11 O8         -5.5983   -1.4494   -0.1444 O.2        1 <1>        0.000
     12 H           2.6225   -0.5305    0.4689 H.spc      1 <1>        0.000
     13 H           3.7964    0.7785   -0.2188 H.spc      1 <1>        0.000
     14 H           2.1647    2.4556    0.0927 H.spc      1 <1>        0.000
     15 H           0.2692    0.2467    1.1671 H.spc      1 <1>        0.000
     16 H          -0.0730    3.2436    0.9449 H.spc      1 <1>        0.000
     17 H          -2.2000    2.8964    2.1027 H.spc      1 <1>        0.000
     18 H          -1.9107    0.0250    1.2017 H.spc      1 <1>        0.000
     19 H          -3.9923    0.9991    3.1151 H.spc      1 <1>        0.000
     20 H          -5.7203   -0.1237    2.0761 H.spc      1 <1>        0.000
     21 H          -3.2143    0.3692   -0.2845 H.spc      1 <1>        0.000
@<TRIPOS>BOND
     1    4    5 1  
     2    9   11 2  
     3    6    7 1  
     4    9   10 1  
     5    7    8 2  
     6    3    4 2  
     7    5    6 2  
     8    8    9 1  
     9    1    2 2  
    10    2    3 1  
    11    1   12 1  
    12    1   13 1  
    13    2   14 1  
    14    3   15 1  
    15    4   16 1  
    16    5   17 1  
    17    6   18 1  
    18    7   19 1  
    19    8   20 1  
    20   10   21 1  
# Name:          frag3-212-7/96164
# Creation time: Sat Jun  5 12:53:11 2010


@<TRIPOS>MOLECULE
frag3-212-7/96164
   21    20     1     1     1
SMALL
USER_CHARGES


@<TRIPOS>ATOM
      1 C21         2.5953    1.5741   -0.2626 C.2        1 <1>        0.000
      2 C22         2.1451    1.5548    0.9950 C.2        1 <1>        0.000
      3 C24         0.7649    1.4888    1.4337 C.2        1 <1>        0.000
      4 C25        -0.2124    0.7043    0.9378 C.2        1 <1>        0.000
      5 C26        -1.5855    0.6142    1.3866 C.2        1 <1>        0.000
      6 C27        -2.5822    1.4808    1.1262 C.2        1 <1>        0.000
      7 C29        -3.9716    1.4532    1.5552 C.2        1 <1>        0.000
      8 C30        -4.9379    0.5532    1.2817 C.2        1 <1>        0.000
      9 C31        -4.7833   -0.6325    0.4240 C.2        1 <1>        0.000
     10 O7         -3.7499   -0.6977   -0.4222 O.3        1 <1>        0.000
     11 O8         -5.6095   -1.5321    0.4896 O.2        1 <1>        0.000
     12 H           1.8914    1.5383   -1.0941 H.spc      1 <1>        0.000
     13 H           3.6665    1.6256   -0.4573 H.spc      1 <1>        0.000
     14 H           2.9006    1.5930    1.7797 H.spc      1 <1>        0.000
     15 H           0.4865    2.1472    2.2565 H.spc      1 <1>        0.000
     16 H           0.0635    0.0627    0.1009 H.spc      1 <1>        0.000
     17 H          -1.8401   -0.2487    2.0020 H.spc      1 <1>        0.000
     18 H          -2.3069    2.3298    0.5005 H.spc      1 <1>        0.000
     19 H          -4.2772    2.2831    2.1923 H.spc      1 <1>        0.000
     20 H          -5.9158    0.7179    1.7341 H.spc      1 <1>        0.000
     21 H          -3.2135    0.0933   -0.3320 H.spc      1 <1>        0.000
@<TRIPOS>BOND
     1    4    5 1  
     2    9   11 2  
     3    6    7 1  
     4    9   10 1  
     5    7    8 2  
     6    3    4 2  
     7    5    6 2  
     8    8    9 1  
     9    1    2 2  
    10    2    3 1  
    11    1   12 1  
    12    1   13 1  
    13    2   14 1  
    14    3   15 1  
    15    4   16 1  
    16    5   17 1  
    17    6   18 1  
    18    7   19 1  
    19    8   20 1  
    20   10   21 1  
# Name:          frag3-212-7/96164
# Creation time: Sat Jun  5 12:53:11 2010


@<TRIPOS>MOLECULE
frag3-212-7/96164
   21    20     1     1     1
SMALL
USER_CHARGES


@<TRIPOS>ATOM
      1 C21         3.5884    1.8118    0.7854 C.2        1 <1>        0.000
      2 C22         2.4019    1.2839    0.4715 C.2        1 <1>        0.000
      3 C24         1.1053    1.6169    1.0366 C.2        1 <1>        0.000
      4 C25        -0.0875    1.0738    0.7352 C.2        1 <1>        0.000
      5 C26        -1.3771    1.3805    1.3257 C.2        1 <1>        0.000
      6 C27        -2.5595    0.8045    1.0457 C.2        1 <1>        0.000
      7 C29        -3.8782    1.0732    1.6034 C.2        1 <1>        0.000
      8 C30        -5.0584    0.4562    1.3809 C.2        1 <1>        0.000
      9 C31        -5.2624   -0.6742    0.4636 C.2        1 <1>        0.000
     10 O7         -6.2145   -0.5833   -0.4762 O.3        1 <1>        0.000
     11 O8         -4.5850   -1.6822    0.5733 O.2        1 <1>        0.000
     12 H           3.6551    2.5878    1.5479 H.spc      1 <1>        0.000
     13 H           4.4897    1.4665    0.2790 H.spc      1 <1>        0.000
     14 H           2.4071    0.5129   -0.2990 H.spc      1 <1>        0.000
     15 H           1.0987    2.3999    1.7949 H.spc      1 <1>        0.000
     16 H          -0.0854    0.3129   -0.0453 H.spc      1 <1>        0.000
     17 H          -1.3886    2.1661    2.0812 H.spc      1 <1>        0.000
     18 H          -2.5263    0.0203    0.2893 H.spc      1 <1>        0.000
     19 H          -3.9184    1.9016    2.3107 H.spc      1 <1>        0.000
     20 H          -5.9283    0.8253    1.9242 H.spc      1 <1>        0.000
     21 H          -6.6423    0.2739   -0.4148 H.spc      1 <1>        0.000
@<TRIPOS>BOND
     1    4    5 1  
     2    9   11 2  
     3    6    7 1  
     4    9   10 1  
     5    7    8 2  
     6    3    4 2  
     7    5    6 2  
     8    8    9 1  
     9    1    2 2  
    10    2    3 1  
    11    1   12 1  
    12    1   13 1  
    13    2   14 1  
    14    3   15 1  
    15    4   16 1  
    16    5   17 1  
    17    6   18 1  
    18    7   19 1  
    19    8   20 1  
    20   10   21 1  
# Name:          frag3-212-7/96164
# Creation time: Sat Jun  5 12:53:11 2010


@<TRIPOS>MOLECULE
frag3-212-7/96164
   21    20     1     1     1
SMALL
USER_CHARGES


@<TRIPOS>ATOM
      1 C21         3.0317    1.7981    1.3274 C.2        1 <1>        0.000
      2 C22         2.0435    1.1949    0.6622 C.2        1 <1>        0.000
      3 C24         0.6177    1.3731    0.8336 C.2        1 <1>        0.000
      4 C25        -0.3799    0.8269    0.1154 C.2        1 <1>        0.000
      5 C26        -1.8035    0.9827    0.3226 C.2        1 <1>        0.000
      6 C27        -2.4256    1.2176    1.4954 C.2        1 <1>        0.000
      7 C29        -3.8407    1.3813    1.7784 C.2        1 <1>        0.000
      8 C30        -4.8838    0.6089    1.4067 C.2        1 <1>        0.000
      9 C31        -4.7864   -0.6159    0.5961 C.2        1 <1>        0.000
     10 O7         -4.6211   -0.4986   -0.7282 O.3        1 <1>        0.000
     11 O8         -4.8789   -1.7080    1.1356 O.2        1 <1>        0.000
     12 H           2.8003    2.5239    2.1070 H.spc      1 <1>        0.000
     13 H           4.0698    1.5647    1.0908 H.spc      1 <1>        0.000
     14 H           2.3479    0.4812   -0.1033 H.spc      1 <1>        0.000
     15 H           0.3141    2.0326    1.6466 H.spc      1 <1>        0.000
     16 H          -0.0812    0.1933   -0.7197 H.spc      1 <1>        0.000
     17 H          -2.4380    0.9019   -0.5600 H.spc      1 <1>        0.000
     18 H          -1.7679    1.2965    2.3610 H.spc      1 <1>        0.000
     19 H          -4.0979    2.2545    2.3779 H.spc      1 <1>        0.000
     20 H          -5.8772    0.9168    1.7329 H.spc      1 <1>        0.000
     21 H          -4.5700    0.4311   -0.9621 H.spc      1 <1>        0.000
@<TRIPOS>BOND
     1    4    5 1  
     2    9   11 2  
     3    6    7 1  
     4    9   10 1  
     5    7    8 2  
     6    3    4 2  
     7    5    6 2  
     8    8    9 1  
     9    1    2 2  
    10    2    3 1  
    11    1   12 1  
    12    1   13 1  
    13    2   14 1  
    14    3   15 1  
    15    4   16 1  
    16    5   17 1  
    17    6   18 1  
    18    7   19 1  
    19    8   20 1  
    20   10   21 1  
# Name:          frag3-212-7/96164
# Creation time: Sat Jun  5 12:53:11 2010


@<TRIPOS>MOLECULE
frag3-212-7/96164
   21    20     1     1     1
SMALL
USER_CHARGES


@<TRIPOS>ATOM
      1 C21         3.5174    2.0291    0.4983 C.2        1 <1>        0.000
      2 C22         2.3799    1.3368    0.3893 C.2        1 <1>        0.000
      3 C24         1.0614    1.7162    0.8669 C.2        1 <1>        0.000
      4 C25        -0.0526    0.9630    0.8935 C.2        1 <1>        0.000
      5 C26        -1.3603    1.3317    1.4025 C.2        1 <1>        0.000
      6 C27        -2.5451    0.7870    1.0756 C.2        1 <1>        0.000
      7 C29        -3.8827    1.1213    1.5461 C.2        1 <1>        0.000
      8 C30        -5.0600    0.4929    1.3382 C.2        1 <1>        0.000
      9 C31        -5.2406   -0.7181    0.5247 C.2        1 <1>        0.000
     10 O7         -6.1805   -1.6049    0.8841 O.3        1 <1>        0.000
     11 O8         -4.5638   -0.8940   -0.4741 O.2        1 <1>        0.000
     12 H           3.5192    2.9999    0.9940 H.spc      1 <1>        0.000
     13 H           4.4436    1.6231    0.0915 H.spc      1 <1>        0.000
     14 H           2.4493    0.3743   -0.1175 H.spc      1 <1>        0.000
     15 H           0.9632    2.7322    1.2492 H.spc      1 <1>        0.000
     16 H           0.0377   -0.0432    0.4843 H.spc      1 <1>        0.000
     17 H          -1.3849    2.1413    2.1319 H.spc      1 <1>        0.000
     18 H          -2.4979   -0.0256    0.3507 H.spc      1 <1>        0.000
     19 H          -3.9427    2.0186    2.1620 H.spc      1 <1>        0.000
     20 H          -5.9459    0.9171    1.8108 H.spc      1 <1>        0.000
     21 H          -6.6102   -1.3056    1.6887 H.spc      1 <1>        0.000
@<TRIPOS>BOND
     1    4    5 1  
     2    9   11 2  
     3    6    7 1  
     4    9   10 1  
     5    7    8 2  
     6    3    4 2  
     7    5    6 2  
     8    8    9 1  
     9    1    2 2  
    10    2    3 1  
    11    1   12 1  
    12    1   13 1  
    13    2   14 1  
    14    3   15 1  
    15    4   16 1  
    16    5   17 1  
    17    6   18 1  
    18    7   19 1  
    19    8   20 1  
    20   10   21 1  
# Name:          frag3-212-7/96164
# Creation time: Sat Jun  5 12:53:11 2010


@<TRIPOS>MOLECULE
frag3-212-7/96164
   21    20     1     1     1
SMALL
USER_CHARGES


@<TRIPOS>ATOM
      1 C21         3.3156    1.6792    0.0258 C.2        1 <1>        0.000
      2 C22         2.3617    1.2481    0.8556 C.2        1 <1>        0.000
      3 C24         0.9874    1.7098    0.9438 C.2        1 <1>        0.000
      4 C25        -0.0901    1.0123    1.3467 C.2        1 <1>        0.000
      5 C26        -1.4581    1.4813    1.4635 C.2        1 <1>        0.000
      6 C27        -2.5781    0.7367    1.4667 C.2        1 <1>        0.000
      7 C29        -3.9690    1.1540    1.5709 C.2        1 <1>        0.000
      8 C30        -5.0868    0.5704    1.0928 C.2        1 <1>        0.000
      9 C31        -5.1285   -0.6760    0.3132 C.2        1 <1>        0.000
     10 O7         -5.0333   -0.6083   -1.0209 O.3        1 <1>        0.000
     11 O8         -5.2480   -1.7463    0.8870 O.2        1 <1>        0.000
     12 H           3.0968    2.4691   -0.6927 H.spc      1 <1>        0.000
     13 H           4.3128    1.2411    0.0672 H.spc      1 <1>        0.000
     14 H           2.6484    0.4567    1.5481 H.spc      1 <1>        0.000
     15 H           0.8079    2.7436    0.6487 H.spc      1 <1>        0.000
     16 H           0.0855   -0.0288    1.6176 H.spc      1 <1>        0.000
     17 H          -1.5934    2.5586    1.5595 H.spc      1 <1>        0.000
     18 H          -2.4212   -0.3383    1.3782 H.spc      1 <1>        0.000
     19 H          -4.1320    2.0813    2.1201 H.spc      1 <1>        0.000
     20 H          -6.0368    1.0626    1.3011 H.spc      1 <1>        0.000
     21 H          -4.9460    0.3096   -1.2882 H.spc      1 <1>        0.000
@<TRIPOS>BOND
     1    4    5 1  
     2    9   11 2  
     3    6    7 1  
     4    9   10 1  
     5    7    8 2  
     6    3    4 2  
     7    5    6 2  
     8    8    9 1  
     9    1    2 2  
    10    2    3 1  
    11    1   12 1  
    12    1   13 1  
    13    2   14 1  
    14    3   15 1  
    15    4   16 1  
    16    5   17 1  
    17    6   18 1  
    18    7   19 1  
    19    8   20 1  
    20   10   21 1  
# Name:          frag3-212-7/96164
# Creation time: Sat Jun  5 12:53:11 2010


@<TRIPOS>MOLECULE
frag3-212-7/96164
   21    20     1     1     1
SMALL
USER_CHARGES


@<TRIPOS>ATOM
      1 C21         2.9814    0.7052    0.8888 C.2        1 <1>        0.000
      2 C22         2.2808    1.7087    0.3503 C.2        1 <1>        0.000
      3 C24         0.8942    2.0476    0.6078 C.2        1 <1>        0.000
      4 C25        -0.0731    1.2280    1.0692 C.2        1 <1>        0.000
      5 C26        -1.4507    1.5593    1.3669 C.2        1 <1>        0.000
      6 C27        -2.4815    0.7104    1.5253 C.2        1 <1>        0.000
      7 C29        -3.8797    0.9888    1.8137 C.2        1 <1>        0.000
      8 C30        -4.9993    0.4220    1.3135 C.2        1 <1>        0.000
      9 C31        -5.0280   -0.6525    0.3093 C.2        1 <1>        0.000
     10 O7         -5.8930   -0.5489   -0.7116 O.3        1 <1>        0.000
     11 O8         -4.2778   -1.6075    0.4120 O.2        1 <1>        0.000
     12 H           2.5095    0.0351    1.6074 H.spc      1 <1>        0.000
     13 H           4.0245    0.5572    0.6092 H.spc      1 <1>        0.000
     14 H           2.8104    2.3424   -0.3611 H.spc      1 <1>        0.000
     15 H           0.6014    3.0780    0.4063 H.spc      1 <1>        0.000
     16 H           0.2177    0.1912    1.2383 H.spc      1 <1>        0.000
     17 H          -1.6787    2.6197    1.4752 H.spc      1 <1>        0.000
     18 H          -2.2316   -0.3455    1.4220 H.spc      1 <1>        0.000
     19 H          -4.0506    1.7769    2.5471 H.spc      1 <1>        0.000
     20 H          -5.9565    0.7897    1.6830 H.spc      1 <1>        0.000
     21 H          -6.3951    0.2645   -0.6228 H.spc      1 <1>        0.000
@<TRIPOS>BOND
     1    4    5 1  
     2    9   11 2  
     3    6    7 1  
     4    9   10 1  
     5    7    8 2  
     6    3    4 2  
     7    5    6 2  
     8    8    9 1  
     9    1    2 2  
    10    2    3 1  
    11    1   12 1  
    12    1   13 1  
    13    2   14 1  
    14    3   15 1  
    15    4   16 1  
    16    5   17 1  
    17    6   18 1  
    18    7   19 1  
    19    8   20 1  
    20   10   21 1  
# Name:          frag3-212-7/96164
# Creation time: Sat Jun  5 12:53:11 2010


@<TRIPOS>MOLECULE
frag3-212-7/96164
   21    20     1     1     1
SMALL
USER_CHARGES


@<TRIPOS>ATOM
      1 C21         2.7946    1.1503   -0.4054 C.2        1 <1>        0.000
      2 C22         1.8661    1.4722    0.4994 C.2        1 <1>        0.000
      3 C24         0.4928    1.0101    0.5662 C.2        1 <1>        0.000
      4 C25        -0.4720    1.4068    1.4147 C.2        1 <1>        0.000
      5 C26        -1.8533    0.9757    1.4559 C.2        1 <1>        0.000
      6 C27        -2.9140    1.6668    1.9127 C.2        1 <1>        0.000
      7 C29        -4.3155    1.2814    1.9730 C.2        1 <1>        0.000
      8 C30        -4.9628    0.2958    1.3121 C.2        1 <1>        0.000
      9 C31        -4.3520   -0.6111    0.3269 C.2        1 <1>        0.000
     10 O7         -4.1939   -1.9008    0.6561 O.3        1 <1>        0.000
     11 O8         -4.0171   -0.1864   -0.7666 O.2        1 <1>        0.000
     12 H           2.5512    0.4623   -1.2150 H.spc      1 <1>        0.000
     13 H           3.7956    1.5757   -0.3341 H.spc      1 <1>        0.000
     14 H           2.1777    2.1650    1.2810 H.spc      1 <1>        0.000
     15 H           0.2082    0.2485   -0.1598 H.spc      1 <1>        0.000
     16 H          -0.1781    2.1429    2.1629 H.spc      1 <1>        0.000
     17 H          -2.0580   -0.0240    1.0727 H.spc      1 <1>        0.000
     18 H          -2.6897    2.6630    2.2940 H.spc      1 <1>        0.000
     19 H          -4.9330    1.8730    2.6489 H.spc      1 <1>        0.000
     20 H          -6.0231    0.1618    1.5262 H.spc      1 <1>        0.000
     21 H          -4.5134   -2.0432    1.5501 H.spc      1 <1>        0.000
@<TRIPOS>BOND
     1    4    5 1  
     2    9   11 2  
     3    6    7 1  
     4    9   10 1  
     5    7    8 2  
     6    3    4 2  
     7    5    6 2  
     8    8    9 1  
     9    1    2 2  
    10    2    3 1  
    11    1   12 1  
    12    1   13 1  
    13    2   14 1  
    14    3   15 1  
    15    4   16 1  
    16    5   17 1  
    17    6   18 1  
    18    7   19 1  
    19    8   20 1  
    20   10   21 1  
# Name:          frag3-212-7/96164
# Creation time: Sat Jun  5 12:53:11 2010


@<TRIPOS>MOLECULE
frag3-212-7/96164
   21    20     1     1     1
SMALL
USER_CHARGES


@<TRIPOS>ATOM
      1 C21         2.5774    1.6896   -0.1720 C.2        1 <1>        0.000
      2 C22         1.9468    0.7558    0.5469 C.2        1 <1>        0.000
      3 C24         0.5592    0.7515    0.9565 C.2        1 <1>        0.000
      4 C25        -0.0700    1.6536    1.7366 C.2        1 <1>        0.000
      5 C26        -1.4686    1.6761    2.1064 C.2        1 <1>        0.000
      6 C27        -2.4992    1.1872    1.3862 C.2        1 <1>        0.000
      7 C29        -3.9197    1.1698    1.6861 C.2        1 <1>        0.000
      8 C30        -4.9092    0.4015    1.1835 C.2        1 <1>        0.000
      9 C31        -4.7342   -0.6343    0.1531 C.2        1 <1>        0.000
     10 O7         -5.4215   -0.5118   -0.9924 O.3        1 <1>        0.000
     11 O8         -3.9882   -1.5782    0.3543 O.2        1 <1>        0.000
     12 H           2.0355    2.5704   -0.5166 H.spc      1 <1>        0.000
     13 H           3.6336    1.5704   -0.4137 H.spc      1 <1>        0.000
     14 H           2.5458   -0.0993    0.8601 H.spc      1 <1>        0.000
     15 H          -0.0481   -0.0771    0.5922 H.spc      1 <1>        0.000
     16 H           0.5466    2.4594    2.1348 H.spc      1 <1>        0.000
     17 H          -1.7145    2.1347    3.0642 H.spc      1 <1>        0.000
     18 H          -2.2232    0.7361    0.4331 H.spc      1 <1>        0.000
     19 H          -4.2380    1.8927    2.4372 H.spc      1 <1>        0.000
     20 H          -5.9156    0.5606    1.5708 H.spc      1 <1>        0.000
     21 H          -5.9494    0.2895   -0.9634 H.spc      1 <1>        0.000
@<TRIPOS>BOND
     1    4    5 1  
     2    9   11 2  
     3    6    7 1  
     4    9   10 1  
     5    7    8 2  
     6    3    4 2  
     7    5    6 2  
     8    8    9 1  
     9    1    2 2  
    10    2    3 1  
    11    1   12 1  
    12    1   13 1  
    13    2   14 1  
    14    3   15 1  
    15    4   16 1  
    16    5   17 1  
    17    6   18 1  
    18    7   19 1  
    19    8   20 1  
    20   10   21 1  
# Name:          frag3-212-7/96164
# Creation time: Sat Jun  5 12:53:11 2010


@<TRIPOS>MOLECULE
frag3-212-7/96164
   21    20     1     1     1
SMALL
USER_CHARGES


@<TRIPOS>ATOM
      1 C21         2.7399    1.0831   -0.2284 C.2        1 <1>        0.000
      2 C22         2.4351    1.4450    1.0218 C.2        1 <1>        0.000
      3 C24         1.1115    1.6313    1.5843 C.2        1 <1>        0.000
      4 C25        -0.0718    1.4153    0.9731 C.2        1 <1>        0.000
      5 C26        -1.3992    1.5565    1.5317 C.2        1 <1>        0.000
      6 C27        -2.5040    0.8628    1.2016 C.2        1 <1>        0.000
      7 C29        -3.8553    0.9587    1.7296 C.2        1 <1>        0.000
      8 C30        -4.9849    0.3221    1.3537 C.2        1 <1>        0.000
      9 C31        -5.0806   -0.6535    0.2569 C.2        1 <1>        0.000
     10 O7         -5.7190   -0.2940   -0.8661 O.3        1 <1>        0.000
     11 O8         -4.5988   -1.7663    0.3869 O.2        1 <1>        0.000
     12 H           1.9452    0.8934   -0.9500 H.spc      1 <1>        0.000
     13 H           3.7831    0.9777   -0.5263 H.spc      1 <1>        0.000
     14 H           3.2755    1.6196    1.6936 H.spc      1 <1>        0.000
     15 H           1.0678    1.9848    2.6145 H.spc      1 <1>        0.000
     16 H          -0.0218    1.0956   -0.0678 H.spc      1 <1>        0.000
     17 H          -1.5178    2.3114    2.3090 H.spc      1 <1>        0.000
     18 H          -2.3648    0.1159    0.4200 H.spc      1 <1>        0.000
     19 H          -3.9752    1.6544    2.5601 H.spc      1 <1>        0.000
     20 H          -5.8970    0.5486    1.9059 H.spc      1 <1>        0.000
     21 H          -6.0264    0.6116   -0.7822 H.spc      1 <1>        0.000
@<TRIPOS>BOND
     1    4    5 1  
     2    9   11 2  
     3    6    7 1  
     4    9   10 1  
     5    7    8 2  
     6    3    4 2  
     7    5    6 2  
     8    8    9 1  
     9    1    2 2  
    10    2    3 1  
    11    1   12 1  
    12    1   13 1  
    13    2   14 1  
    14    3   15 1  
    15    4   16 1  
    16    5   17 1  
    17    6   18 1  
    18    7   19 1  
    19    8   20 1  
    20   10   21 1  
# Name:          frag3-212-7/96164
# Creation time: Sat Jun  5 12:53:11 2010


@<TRIPOS>MOLECULE
frag3-212-7/96164
   21    20     1     1     1
SMALL
USER_CHARGES


@<TRIPOS>ATOM
      1 C21         2.8234    0.6131    0.3520 C.2        1 <1>        0.000
      2 C22         1.8137    1.4847    0.4149 C.2        1 <1>        0.000
      3 C24         0.4119    1.2063    0.6495 C.2        1 <1>        0.000
      4 C25        -0.5909    2.0864    0.8201 C.2        1 <1>        0.000
      5 C26        -1.9936    1.7983    1.0252 C.2        1 <1>        0.000
      6 C27        -2.5385    1.1066    2.0449 C.2        1 <1>        0.000
      7 C29        -3.9289    0.7665    2.2984 C.2        1 <1>        0.000
      8 C30        -4.7794    0.0179    1.5613 C.2        1 <1>        0.000
      9 C31        -4.4495   -0.6243    0.2789 C.2        1 <1>        0.000
     10 O7         -4.9108   -1.8641    0.0524 O.3        1 <1>        0.000
     11 O8         -3.7845   -0.0304   -0.5524 O.2        1 <1>        0.000
     12 H           2.6332   -0.4518    0.4855 H.spc      1 <1>        0.000
     13 H           3.8378    0.9666    0.1672 H.spc      1 <1>        0.000
     14 H           2.0764    2.5329    0.2724 H.spc      1 <1>        0.000
     15 H           0.1352    0.1529    0.6932 H.spc      1 <1>        0.000
     16 H          -0.3141    3.1405    0.8016 H.spc      1 <1>        0.000
     17 H          -2.6839    2.1821    0.2740 H.spc      1 <1>        0.000
     18 H          -1.8304    0.7482    2.7920 H.spc      1 <1>        0.000
     19 H          -4.3472    1.1753    3.2182 H.spc      1 <1>        0.000
     20 H          -5.7893   -0.1211    1.9472 H.spc      1 <1>        0.000
     21 H          -5.4090   -2.1635    0.8164 H.spc      1 <1>        0.000
@<TRIPOS>BOND
     1    4    5 1  
     2    9   11 2  
     3    6    7 1  
     4    9   10 1  
     5    7    8 2  
     6    3    4 2  
     7    5    6 2  
     8    8    9 1  
     9    1    2 2  
    10    2    3 1  
    11    1   12 1  
    12    1   13 1  
    13    2   14 1  
    14    3   15 1  
    15    4   16 1  
    16    5   17 1  
    17    6   18 1  
    18    7   19 1  
    19    8   20 1  
    20   10   21 1  
# Name:          frag3-212-7/96164
# Creation time: Sat Jun  5 12:53:11 2010


@<TRIPOS>MOLECULE
frag3-212-7/96164
   21    20     1     1     1
SMALL
USER_CHARGES


@<TRIPOS>ATOM
      1 C21         2.7986    0.9817   -0.0983 C.2        1 <1>        0.000
      2 C22         2.2887    2.0091    0.5884 C.2        1 <1>        0.000
      3 C24         0.9770    2.0901    1.2020 C.2        1 <1>        0.000
      4 C25        -0.0424    1.2169    1.0646 C.2        1 <1>        0.000
      5 C26        -1.3443    1.2679    1.6951 C.2        1 <1>        0.000
      6 C27        -2.5269    0.9151    1.1600 C.2        1 <1>        0.000
      7 C29        -3.8589    0.9545    1.7413 C.2        1 <1>        0.000
      8 C30        -4.9667    0.2542    1.4230 C.2        1 <1>        0.000
      9 C31        -5.0640   -0.7349    0.3383 C.2        1 <1>        0.000
     10 O7         -4.7081   -2.0016    0.5876 O.3        1 <1>        0.000
     11 O8         -5.4802   -0.3921   -0.7570 O.2        1 <1>        0.000
     12 H           2.2078    0.0776   -0.2452 H.spc      1 <1>        0.000
     13 H           3.8051    1.0481   -0.5113 H.spc      1 <1>        0.000
     14 H           2.9302    2.8833    0.6996 H.spc      1 <1>        0.000
     15 H           0.7947    2.9512    1.8449 H.spc      1 <1>        0.000
     16 H           0.1358    0.3721    0.3993 H.spc      1 <1>        0.000
     17 H          -1.3693    1.6343    2.7214 H.spc      1 <1>        0.000
     18 H          -2.4794    0.5437    0.1363 H.spc      1 <1>        0.000
     19 H          -3.9814    1.6604    2.5628 H.spc      1 <1>        0.000
     20 H          -5.8622    0.4357    2.0174 H.spc      1 <1>        0.000
     21 H          -4.4089   -2.0757    1.4968 H.spc      1 <1>        0.000
@<TRIPOS>BOND
     1    4    5 1  
     2    9   11 2  
     3    6    7 1  
     4    9   10 1  
     5    7    8 2  
     6    3    4 2  
     7    5    6 2  
     8    8    9 1  
     9    1    2 2  
    10    2    3 1  
    11    1   12 1  
    12    1   13 1  
    13    2   14 1  
    14    3   15 1  
    15    4   16 1  
    16    5   17 1  
    17    6   18 1  
    18    7   19 1  
    19    8   20 1  
    20   10   21 1  
# Name:          frag3-212-7/96164
# Creation time: Sat Jun  5 12:53:11 2010


@<TRIPOS>MOLECULE
frag3-212-7/96164
   21    20     1     1     1
SMALL
USER_CHARGES


@<TRIPOS>ATOM
      1 C21         2.7489    1.3766   -0.0939 C.2        1 <1>        0.000
      2 C22         2.0757    1.4665    1.0560 C.2        1 <1>        0.000
      3 C24         0.6474    1.6229    1.2279 C.2        1 <1>        0.000
      4 C25        -0.3268    1.2193    0.3881 C.2        1 <1>        0.000
      5 C26        -1.7566    1.3360    0.5724 C.2        1 <1>        0.000
      6 C27        -2.4501    1.0532    1.6922 C.2        1 <1>        0.000
      7 C29        -3.8759    1.1442    1.9516 C.2        1 <1>        0.000
      8 C30        -4.8894    0.4092    1.4494 C.2        1 <1>        0.000
      9 C31        -4.7442   -0.6878    0.4786 C.2        1 <1>        0.000
     10 O7         -4.3881   -1.8982    0.9274 O.3        1 <1>        0.000
     11 O8         -4.9682   -0.4807   -0.7048 O.2        1 <1>        0.000
     12 H           2.2146    1.4198   -1.0430 H.spc      1 <1>        0.000
     13 H           3.8326    1.2601   -0.0833 H.spc      1 <1>        0.000
     14 H           2.6695    1.4164    1.9687 H.spc      1 <1>        0.000
     15 H           0.3224    2.1238    2.1398 H.spc      1 <1>        0.000
     16 H           0.0017    0.7497   -0.5391 H.spc      1 <1>        0.000
     17 H          -2.3324    1.6892   -0.2830 H.spc      1 <1>        0.000
     18 H          -1.8494    0.7026    2.5314 H.spc      1 <1>        0.000
     19 H          -4.1709    1.9215    2.6565 H.spc      1 <1>        0.000
     20 H          -5.8972    0.6467    1.7899 H.spc      1 <1>        0.000
     21 H          -4.2572   -1.8601    1.8777 H.spc      1 <1>        0.000
@<TRIPOS>BOND
     1    4    5 1  
     2    9   11 2  
     3    6    7 1  
     4    9   10 1  
     5    7    8 2  
     6    3    4 2  
     7    5    6 2  
     8    8    9 1  
     9    1    2 2  
    10    2    3 1  
    11    1   12 1  
    12    1   13 1  
    13    2   14 1  
    14    3   15 1  
    15    4   16 1  
    16    5   17 1  
    17    6   18 1  
    18    7   19 1  
    19    8   20 1  
    20   10   21 1  
# Name:          frag3-212-7/96164
# Creation time: Sat Jun  5 12:53:11 2010


@<TRIPOS>MOLECULE
frag3-212-7/96164
   21    20     1     1     1
SMALL
USER_CHARGES


@<TRIPOS>ATOM
      1 C21         2.6981    2.0748   -0.2361 C.2        1 <1>        0.000
      2 C22         1.9571    1.3120    0.5713 C.2        1 <1>        0.000
      3 C24         0.5173    1.3006    0.7098 C.2        1 <1>        0.000
      4 C25        -0.2358    0.5148    1.5006 C.2        1 <1>        0.000
      5 C26        -1.6738    0.5409    1.6577 C.2        1 <1>        0.000
      6 C27        -2.5100    1.5214    1.2575 C.2        1 <1>        0.000
      7 C29        -3.9538    1.6167    1.3816 C.2        1 <1>        0.000
      8 C30        -4.9047    0.7081    1.0722 C.2        1 <1>        0.000
      9 C31        -4.6526   -0.6167    0.4833 C.2        1 <1>        0.000
     10 O7         -5.2534   -1.6843    1.0301 O.3        1 <1>        0.000
     11 O8         -3.9154   -0.7272   -0.4830 O.2        1 <1>        0.000
     12 H           2.2176    2.7971   -0.8960 H.spc      1 <1>        0.000
     13 H           3.7835    1.9752   -0.2353 H.spc      1 <1>        0.000
     14 H           2.5040    0.6123    1.2033 H.spc      1 <1>        0.000
     15 H          -0.0260    2.0192    0.0961 H.spc      1 <1>        0.000
     16 H           0.2998   -0.2280    2.0918 H.spc      1 <1>        0.000
     17 H          -2.1281   -0.3193    2.1495 H.spc      1 <1>        0.000
     18 H          -2.0300    2.3687    0.7678 H.spc      1 <1>        0.000
     19 H          -4.3248    2.5596    1.7833 H.spc      1 <1>        0.000
     20 H          -5.9411    0.9779    1.2750 H.spc      1 <1>        0.000
     21 H          -5.7895   -1.4019    1.7748 H.spc      1 <1>        0.000
@<TRIPOS>BOND
     1    4    5 1  
     2    9   11 2  
     3    6    7 1  
     4    9   10 1  
     5    7    8 2  
     6    3    4 2  
     7    5    6 2  
     8    8    9 1  
     9    1    2 2  
    10    2    3 1  
    11    1   12 1  
    12    1   13 1  
    13    2   14 1  
    14    3   15 1  
    15    4   16 1  
    16    5   17 1  
    17    6   18 1  
    18    7   19 1  
    19    8   20 1  
    20   10   21 1  
# Name:          frag3-212-7/96164
# Creation time: Sat Jun  5 12:53:11 2010


@<TRIPOS>MOLECULE
frag3-212-7/96164
   21    20     1     1     1
SMALL
USER_CHARGES


@<TRIPOS>ATOM
      1 C21         2.9169    1.7685   -0.3562 C.2        1 <1>        0.000
      2 C22         2.1502    1.2502    0.6068 C.2        1 <1>        0.000
      3 C24         0.7465    1.5084    0.8606 C.2        1 <1>        0.000
      4 C25        -0.0393    0.9559    1.8028 C.2        1 <1>        0.000
      5 C26        -1.4336    1.2440    2.0680 C.2        1 <1>        0.000
      6 C27        -2.4760    1.0209    1.2456 C.2        1 <1>        0.000
      7 C29        -3.8910    1.2954    1.4419 C.2        1 <1>        0.000
      8 C30        -4.9772    0.5902    1.0555 C.2        1 <1>        0.000
      9 C31        -4.9405   -0.6664    0.2920 C.2        1 <1>        0.000
     10 O7         -6.0960   -1.3164    0.0781 O.3        1 <1>        0.000
     11 O8         -3.8870   -1.0896   -0.1500 O.2        1 <1>        0.000
     12 H           2.4933    2.4770   -1.0680 H.spc      1 <1>        0.000
     13 H           3.9662    1.4830   -0.4303 H.spc      1 <1>        0.000
     14 H           2.6387    0.5488    1.2832 H.spc      1 <1>        0.000
     15 H           0.2692    2.2397    0.2083 H.spc      1 <1>        0.000
     16 H           0.4274    0.2048    2.4400 H.spc      1 <1>        0.000
     17 H          -1.6635    1.6887    3.0362 H.spc      1 <1>        0.000
     18 H          -2.2212    0.5660    0.2884 H.spc      1 <1>        0.000
     19 H          -4.1095    2.2142    1.9861 H.spc      1 <1>        0.000
     20 H          -5.9560    0.9830    1.3309 H.spc      1 <1>        0.000
     21 H          -6.8139   -0.8375    0.4988 H.spc      1 <1>        0.000
@<TRIPOS>BOND
     1    4    5 1  
     2    9   11 2  
     3    6    7 1  
     4    9   10 1  
     5    7    8 2  
     6    3    4 2  
     7    5    6 2  
     8    8    9 1  
     9    1    2 2  
    10    2    3 1  
    11    1   12 1  
    12    1   13 1  
    13    2   14 1  
    14    3   15 1  
    15    4   16 1  
    16    5   17 1  
    17    6   18 1  
    18    7   19 1  
    19    8   20 1  
    20   10   21 1  
# Name:          frag3-212-7/96164
# Creation time: Sat Jun  5 12:53:11 2010


@<TRIPOS>MOLECULE
frag3-212-7/96164
   21    20     1     1     1
SMALL
USER_CHARGES


@<TRIPOS>ATOM
      1 C21         2.7552    0.3560    0.2823 C.2        1 <1>        0.000
      2 C22         1.8690    1.3072    0.5879 C.2        1 <1>        0.000
      3 C24         0.4565    1.1505    0.8624 C.2        1 <1>        0.000
      4 C25        -0.4906    2.1048    0.9117 C.2        1 <1>        0.000
      5 C26        -1.9076    1.9290    1.1507 C.2        1 <1>        0.000
      6 C27        -2.4816    1.0093    1.9502 C.2        1 <1>        0.000
      7 C29        -3.8862    0.7645    2.2261 C.2        1 <1>        0.000
      8 C30        -4.8035    0.0941    1.4981 C.2        1 <1>        0.000
      9 C31        -4.5456   -0.5653    0.2079 C.2        1 <1>        0.000
     10 O7         -4.4355    0.1937   -0.8898 O.3        1 <1>        0.000
     11 O8         -4.4572   -1.7827    0.1575 O.2        1 <1>        0.000
     12 H           2.4370   -0.6844    0.2164 H.spc      1 <1>        0.000
     13 H           3.7967    0.6201    0.0988 H.spc      1 <1>        0.000
     14 H           2.2563    2.3249    0.6365 H.spc      1 <1>        0.000
     15 H           0.1178    0.1321    1.0530 H.spc      1 <1>        0.000
     16 H          -0.1519    3.1287    0.7534 H.spc      1 <1>        0.000
     17 H          -2.5794    2.6113    0.6299 H.spc      1 <1>        0.000
     18 H          -1.7865    0.3488    2.4686 H.spc      1 <1>        0.000
     19 H          -4.2548    1.1854    3.1616 H.spc      1 <1>        0.000
     20 H          -5.8161    0.0363    1.8974 H.spc      1 <1>        0.000
     21 H          -4.5322    1.1181   -0.6494 H.spc      1 <1>        0.000
@<TRIPOS>BOND
     1    4    5 1  
     2    9   11 2  
     3    6    7 1  
     4    9   10 1  
     5    7    8 2  
     6    3    4 2  
     7    5    6 2  
     8    8    9 1  
     9    1    2 2  
    10    2    3 1  
    11    1   12 1  
    12    1   13 1  
    13    2   14 1  
    14    3   15 1  
    15    4   16 1  
    16    5   17 1  
    17    6   18 1  
    18    7   19 1  
    19    8   20 1  
    20   10   21 1  
# Name:          frag3-212-7/96164
# Creation time: Sat Jun  5 12:53:11 2010


@<TRIPOS>MOLECULE
frag3-212-7/96164
   21    20     1     1     1
SMALL
USER_CHARGES


@<TRIPOS>ATOM
      1 C21         2.9705    0.7656    0.9091 C.2        1 <1>        0.000
      2 C22         1.8780    1.3822    0.4517 C.2        1 <1>        0.000
      3 C24         0.4947    1.0854    0.7585 C.2        1 <1>        0.000
      4 C25        -0.6040    1.7564    0.3696 C.2        1 <1>        0.000
      5 C26        -1.9837    1.4361    0.6580 C.2        1 <1>        0.000
      6 C27        -2.5595    1.3451    1.8727 C.2        1 <1>        0.000
      7 C29        -3.9283    1.0103    2.2293 C.2        1 <1>        0.000
      8 C30        -4.7954    0.1760    1.6127 C.2        1 <1>        0.000
      9 C31        -4.5092   -0.5920    0.3900 C.2        1 <1>        0.000
     10 O7         -5.4721   -0.6901   -0.5394 O.3        1 <1>        0.000
     11 O8         -3.4180   -1.1139    0.2327 O.2        1 <1>        0.000
     12 H           2.8747   -0.0710    1.6013 H.spc      1 <1>        0.000
     13 H           3.9581    1.0988    0.5903 H.spc      1 <1>        0.000
     14 H           2.0485    2.2100   -0.2366 H.spc      1 <1>        0.000
     15 H           0.3221    0.2086    1.3826 H.spc      1 <1>        0.000
     16 H          -0.4339    2.6474   -0.2347 H.spc      1 <1>        0.000
     17 H          -2.6283    1.2477   -0.2005 H.spc      1 <1>        0.000
     18 H          -1.8996    1.5540    2.7147 H.spc      1 <1>        0.000
     19 H          -4.3111    1.5031    3.1230 H.spc      1 <1>        0.000
     20 H          -5.7847    0.0632    2.0561 H.spc      1 <1>        0.000
     21 H          -6.2532   -0.2190   -0.2403 H.spc      1 <1>        0.000
@<TRIPOS>BOND
     1    4    5 1  
     2    9   11 2  
     3    6    7 1  
     4    9   10 1  
     5    7    8 2  
     6    3    4 2  
     7    5    6 2  
     8    8    9 1  
     9    1    2 2  
    10    2    3 1  
    11    1   12 1  
    12    1   13 1  
    13    2   14 1  
    14    3   15 1  
    15    4   16 1  
    16    5   17 1  
    17    6   18 1  
    18    7   19 1  
    19    8   20 1  
    20   10   21 1  
# Name:          frag3-212-7/96164
# Creation time: Sat Jun  5 12:53:11 2010


@<TRIPOS>MOLECULE
frag3-212-7/96164
   21    20     1     1     1
SMALL
USER_CHARGES


@<TRIPOS>ATOM
      1 C21         2.8671    1.3954    0.5602 C.2        1 <1>        0.000
      2 C22         1.7504    1.5236   -0.1632 C.2        1 <1>        0.000
      3 C24         0.3832    1.4341    0.3114 C.2        1 <1>        0.000
      4 C25        -0.0288    1.2869    1.5883 C.2        1 <1>        0.000
      5 C26        -1.3947    1.2361    2.0699 C.2        1 <1>        0.000
      6 C27        -2.5118    1.2409    1.3143 C.2        1 <1>        0.000
      7 C29        -3.9067    1.1961    1.7221 C.2        1 <1>        0.000
      8 C30        -4.8973    0.3663    1.3338 C.2        1 <1>        0.000
      9 C31        -4.7652   -0.7046    0.3369 C.2        1 <1>        0.000
     10 O7         -4.6176   -1.9779    0.7258 O.3        1 <1>        0.000
     11 O8         -4.8056   -0.4359   -0.8546 O.2        1 <1>        0.000
     12 H           2.8036    1.2012    1.6309 H.spc      1 <1>        0.000
     13 H           3.8412    1.4850    0.0794 H.spc      1 <1>        0.000
     14 H           1.8822    1.7168   -1.2278 H.spc      1 <1>        0.000
     15 H          -0.3980    1.4921   -0.4466 H.spc      1 <1>        0.000
     16 H           0.7536    1.1960    2.3417 H.spc      1 <1>        0.000
     17 H          -1.5329    1.1894    3.1501 H.spc      1 <1>        0.000
     18 H          -2.3440    1.2849    0.2382 H.spc      1 <1>        0.000
     19 H          -4.1970    1.9492    2.4547 H.spc      1 <1>        0.000
     20 H          -5.8746    0.5015    1.7973 H.spc      1 <1>        0.000
     21 H          -4.6049   -2.0190    1.6848 H.spc      1 <1>        0.000
@<TRIPOS>BOND
     1    4    5 1  
     2    9   11 2  
     3    6    7 1  
     4    9   10 1  
     5    7    8 2  
     6    3    4 2  
     7    5    6 2  
     8    8    9 1  
     9    1    2 2  
    10    2    3 1  
    11    1   12 1  
    12    1   13 1  
    13    2   14 1  
    14    3   15 1  
    15    4   16 1  
    16    5   17 1  
    17    6   18 1  
    18    7   19 1  
    19    8   20 1  
    20   10   21 1  
# Name:          frag3-212-7/96164
# Creation time: Sat Jun  5 12:53:11 2010


@<TRIPOS>MOLECULE
frag3-212-7/96164
   21    20     1     1     1
SMALL
USER_CHARGES


@<TRIPOS>ATOM
      1 C21         2.8186    2.3397    0.1764 C.2        1 <1>        0.000
      2 C22         2.0143    1.3350    0.5319 C.2        1 <1>        0.000
      3 C24         0.5952    1.3871    0.8089 C.2        1 <1>        0.000
      4 C25        -0.2538    0.3601    0.9921 C.2        1 <1>        0.000
      5 C26        -1.6650    0.4289    1.3016 C.2        1 <1>        0.000
      6 C27        -2.4927    1.4672    1.0700 C.2        1 <1>        0.000
      7 C29        -3.9082    1.6079    1.3616 C.2        1 <1>        0.000
      8 C30        -4.9092    0.7179    1.1964 C.2        1 <1>        0.000
      9 C31        -4.7622   -0.6323    0.6292 C.2        1 <1>        0.000
     10 O7         -4.0083   -1.5289    1.2767 O.3        1 <1>        0.000
     11 O8         -5.3556   -0.9215   -0.3998 O.2        1 <1>        0.000
     12 H           2.4162    3.3465    0.0645 H.spc      1 <1>        0.000
     13 H           3.8776    2.1531   -0.0020 H.spc      1 <1>        0.000
     14 H           2.4842    0.3559    0.6248 H.spc      1 <1>        0.000
     15 H           0.1594    2.3838    0.8778 H.spc      1 <1>        0.000
     16 H           0.1706   -0.6393    0.8963 H.spc      1 <1>        0.000
     17 H          -2.1051   -0.4508    1.7712 H.spc      1 <1>        0.000
     18 H          -2.0301    2.3308    0.5921 H.spc      1 <1>        0.000
     19 H          -4.2054    2.5722    1.7737 H.spc      1 <1>        0.000
     20 H          -5.9078    1.0239    1.5084 H.spc      1 <1>        0.000
     21 H          -3.6256   -1.1200    2.0564 H.spc      1 <1>        0.000
@<TRIPOS>BOND
     1    4    5 1  
     2    9   11 2  
     3    6    7 1  
     4    9   10 1  
     5    7    8 2  
     6    3    4 2  
     7    5    6 2  
     8    8    9 1  
     9    1    2 2  
    10    2    3 1  
    11    1   12 1  
    12    1   13 1  
    13    2   14 1  
    14    3   15 1  
    15    4   16 1  
    16    5   17 1  
    17    6   18 1  
    18    7   19 1  
    19    8   20 1  
    20   10   21 1  
# Name:          frag3-212-7/96164
# Creation time: Sat Jun  5 12:53:11 2010


@<TRIPOS>MOLECULE
frag3-212-7/96164
   21    20     1     1     1
SMALL
USER_CHARGES


@<TRIPOS>ATOM
      1 C21         2.7834    1.6978    0.8579 C.2        1 <1>        0.000
      2 C22         1.8927    1.1638    0.0183 C.2        1 <1>        0.000
      3 C24         0.5516    0.7113    0.3269 C.2        1 <1>        0.000
      4 C25        -0.4612    1.4395    0.8360 C.2        1 <1>        0.000
      5 C26        -1.8107    1.0095    1.1237 C.2        1 <1>        0.000
      6 C27        -2.8049    1.7267    1.6778 C.2        1 <1>        0.000
      7 C29        -4.1708    1.3372    1.9880 C.2        1 <1>        0.000
      8 C30        -4.9033    0.3125    1.4963 C.2        1 <1>        0.000
      9 C31        -4.4475   -0.6435    0.4741 C.2        1 <1>        0.000
     10 O7         -4.6586   -1.9510    0.6850 O.3        1 <1>        0.000
     11 O8         -3.8976   -0.2427   -0.5387 O.2        1 <1>        0.000
     12 H           2.5284    1.8336    1.9089 H.spc      1 <1>        0.000
     13 H           3.7654    1.9979    0.4922 H.spc      1 <1>        0.000
     14 H           2.2115    1.0560   -1.0185 H.spc      1 <1>        0.000
     15 H           0.3375   -0.3380    0.1241 H.spc      1 <1>        0.000
     16 H          -0.2347    2.4822    1.0585 H.spc      1 <1>        0.000
     17 H          -2.0521   -0.0202    0.8599 H.spc      1 <1>        0.000
     18 H          -2.5476    2.7548    1.9326 H.spc      1 <1>        0.000
     19 H          -4.6779    1.9617    2.7235 H.spc      1 <1>        0.000
     20 H          -5.9122    0.1841    1.8883 H.spc      1 <1>        0.000
     21 H          -5.1000   -2.0707    1.5291 H.spc      1 <1>        0.000
@<TRIPOS>BOND
     1    4    5 1  
     2    9   11 2  
     3    6    7 1  
     4    9   10 1  
     5    7    8 2  
     6    3    4 2  
     7    5    6 2  
     8    8    9 1  
     9    1    2 2  
    10    2    3 1  
    11    1   12 1  
    12    1   13 1  
    13    2   14 1  
    14    3   15 1  
    15    4   16 1  
    16    5   17 1  
    17    6   18 1  
    18    7   19 1  
    19    8   20 1  
    20   10   21 1  
# Name:          frag3-212-7/96164
# Creation time: Sat Jun  5 12:53:11 2010


@<TRIPOS>MOLECULE
frag3-212-7/96164
   21    20     1     1     1
SMALL
USER_CHARGES


@<TRIPOS>ATOM
      1 C21         2.6163    1.8668    0.8943 C.2        1 <1>        0.000
      2 C22         1.9628    0.8667    0.2948 C.2        1 <1>        0.000
      3 C24         0.5335    0.6291    0.2920 C.2        1 <1>        0.000
      4 C25        -0.3740    1.1004    1.1706 C.2        1 <1>        0.000
      5 C26        -1.8063    0.9099    1.1602 C.2        1 <1>        0.000
      6 C27        -2.7448    1.6880    1.7288 C.2        1 <1>        0.000
      7 C29        -4.1906    1.5404    1.7423 C.2        1 <1>        0.000
      8 C30        -4.9586    0.5756    1.1896 C.2        1 <1>        0.000
      9 C31        -4.4568   -0.5685    0.4110 C.2        1 <1>        0.000
     10 O7         -4.3682   -0.4470   -0.9207 O.3        1 <1>        0.000
     11 O8         -4.1402   -1.6003    0.9822 O.2        1 <1>        0.000
     12 H           2.0638    2.6178    1.4588 H.spc      1 <1>        0.000
     13 H           3.7018    1.9313    0.8186 H.spc      1 <1>        0.000
     14 H           2.5736    0.1495   -0.2534 H.spc      1 <1>        0.000
     15 H           0.1490   -0.0010   -0.5100 H.spc      1 <1>        0.000
     16 H           0.0219    1.6995    1.9906 H.spc      1 <1>        0.000
     17 H          -2.1697    0.0307    0.6281 H.spc      1 <1>        0.000
     18 H          -2.3635    2.5606    2.2593 H.spc      1 <1>        0.000
     19 H          -4.7340    2.3207    2.2752 H.spc      1 <1>        0.000
     20 H          -6.0367    0.6506    1.3318 H.spc      1 <1>        0.000
     21 H          -4.6597    0.4299   -1.1810 H.spc      1 <1>        0.000
@<TRIPOS>BOND
     1    4    5 1  
     2    9   11 2  
     3    6    7 1  
     4    9   10 1  
     5    7    8 2  
     6    3    4 2  
     7    5    6 2  
     8    8    9 1  
     9    1    2 2  
    10    2    3 1  
    11    1   12 1  
    12    1   13 1  
    13    2   14 1  
    14    3   15 1  
    15    4   16 1  
    16    5   17 1  
    17    6   18 1  
    18    7   19 1  
    19    8   20 1  
    20   10   21 1  
# Name:          frag3-212-7/96164
# Creation time: Sat Jun  5 12:53:11 2010


@<TRIPOS>MOLECULE
frag3-212-7/96164
   21    20     1     1     1
SMALL
USER_CHARGES


@<TRIPOS>ATOM
      1 C21         3.4634    1.3982    0.7279 C.2        1 <1>        0.000
      2 C22         2.1958    1.4686    0.3124 C.2        1 <1>        0.000
      3 C24         0.9929    1.2143    1.0842 C.2        1 <1>        0.000
      4 C25        -0.2845    1.3851    0.7005 C.2        1 <1>        0.000
      5 C26        -1.4869    1.0990    1.4591 C.2        1 <1>        0.000
      6 C27        -2.7565    1.3710    1.1112 C.2        1 <1>        0.000
      7 C29        -3.9934    1.1091    1.8318 C.2        1 <1>        0.000
      8 C30        -4.9803    0.2321    1.5613 C.2        1 <1>        0.000
      9 C31        -5.0241   -0.6725    0.4032 C.2        1 <1>        0.000
     10 O7         -4.7422   -0.1942   -0.8142 O.3        1 <1>        0.000
     11 O8         -5.3112   -1.8494    0.5676 O.2        1 <1>        0.000
     12 H           3.6844    1.1220    1.7589 H.spc      1 <1>        0.000
     13 H           4.2767    1.6170    0.0360 H.spc      1 <1>        0.000
     14 H           2.0470    1.7505   -0.7300 H.spc      1 <1>        0.000
     15 H           1.1433    0.8398    2.0967 H.spc      1 <1>        0.000
     16 H          -0.4343    1.7871   -0.3015 H.spc      1 <1>        0.000
     17 H          -1.3449    0.6072    2.4214 H.spc      1 <1>        0.000
     18 H          -2.8776    1.8609    0.1451 H.spc      1 <1>        0.000
     19 H          -4.1446    1.7140    2.7259 H.spc      1 <1>        0.000
     20 H          -5.8161    0.1899    2.2597 H.spc      1 <1>        0.000
     21 H          -4.5417    0.7424   -0.7502 H.spc      1 <1>        0.000
@<TRIPOS>BOND
     1    4    5 1  
     2    9   11 2  
     3    6    7 1  
     4    9   10 1  
     5    7    8 2  
     6    3    4 2  
     7    5    6 2  
     8    8    9 1  
     9    1    2 2  
    10    2    3 1  
    11    1   12 1  
    12    1   13 1  
    13    2   14 1  
    14    3   15 1  
    15    4   16 1  
    16    5   17 1  
    17    6   18 1  
    18    7   19 1  
    19    8   20 1  
    20   10   21 1  
# Name:          frag3-212-7/96164
# Creation time: Sat Jun  5 12:53:11 2010


@<TRIPOS>MOLECULE
frag3-212-7/96164
   21    20     1     1     1
SMALL
USER_CHARGES


@<TRIPOS>ATOM
      1 C21         2.9889    1.4283    1.2136 C.2        1 <1>        0.000
      2 C22         1.9540    1.5455    0.3772 C.2        1 <1>        0.000
      3 C24         0.5464    1.5677    0.7053 C.2        1 <1>        0.000
      4 C25        -0.4847    1.1064   -0.0250 C.2        1 <1>        0.000
      5 C26        -1.8846    1.0950    0.3355 C.2        1 <1>        0.000
      6 C27        -2.4005    1.2155    1.5754 C.2        1 <1>        0.000
      7 C29        -3.7853    1.2091    2.0110 C.2        1 <1>        0.000
      8 C30        -4.7999    0.4033    1.6293 C.2        1 <1>        0.000
      9 C31        -4.6990   -0.6729    0.6294 C.2        1 <1>        0.000
     10 O7         -4.9715   -1.9270    1.0159 O.3        1 <1>        0.000
     11 O8         -4.3909   -0.4100   -0.5225 O.2        1 <1>        0.000
     12 H           2.8153    1.3345    2.2856 H.spc      1 <1>        0.000
     13 H           4.0069    1.4265    0.8241 H.spc      1 <1>        0.000
     14 H           2.2008    1.6353   -0.6807 H.spc      1 <1>        0.000
     15 H           0.2880    2.0145    1.6654 H.spc      1 <1>        0.000
     16 H          -0.2357    0.6931   -1.0024 H.spc      1 <1>        0.000
     17 H          -2.5977    0.9766   -0.4804 H.spc      1 <1>        0.000
     18 H          -1.6661    1.3361    2.3718 H.spc      1 <1>        0.000
     19 H          -4.0437    1.9639    2.7537 H.spc      1 <1>        0.000
     20 H          -5.7706    0.5624    2.0988 H.spc      1 <1>        0.000
     21 H          -5.1912   -1.9320    1.9504 H.spc      1 <1>        0.000
@<TRIPOS>BOND
     1    4    5 1  
     2    9   11 2  
     3    6    7 1  
     4    9   10 1  
     5    7    8 2  
     6    3    4 2  
     7    5    6 2  
     8    8    9 1  
     9    1    2 2  
    10    2    3 1  
    11    1   12 1  
    12    1   13 1  
    13    2   14 1  
    14    3   15 1  
    15    4   16 1  
    16    5   17 1  
    17    6   18 1  
    18    7   19 1  
    19    8   20 1  
    20   10   21 1  
# Name:          frag3-212-7/96164
# Creation time: Sat Jun  5 12:53:11 2010


@<TRIPOS>MOLECULE
frag3-212-7/96164
   21    20     1     1     1
SMALL
USER_CHARGES


@<TRIPOS>ATOM
      1 C21         2.5179    1.4948   -0.5070 C.2        1 <1>        0.000
      2 C22         2.2382    1.5039    0.8002 C.2        1 <1>        0.000
      3 C24         0.9768    1.1663    1.4297 C.2        1 <1>        0.000
      4 C25        -0.2624    1.4013    0.9523 C.2        1 <1>        0.000
      5 C26        -1.5296    1.0368    1.5495 C.2        1 <1>        0.000
      6 C27        -2.7472    1.5242    1.2520 C.2        1 <1>        0.000
      7 C29        -4.0437    1.1968    1.8225 C.2        1 <1>        0.000
      8 C30        -4.9250    0.2353    1.4712 C.2        1 <1>        0.000
      9 C31        -4.7528   -0.7024    0.3505 C.2        1 <1>        0.000
     10 O7         -4.8310   -2.0175    0.6022 O.3        1 <1>        0.000
     11 O8         -4.5682   -0.2783   -0.7781 O.2        1 <1>        0.000
     12 H           1.7503    1.2101   -1.2266 H.spc      1 <1>        0.000
     13 H           3.5135    1.7721   -0.8532 H.spc      1 <1>        0.000
     14 H           3.0488    1.7979    1.4669 H.spc      1 <1>        0.000
     15 H           1.0366    0.6668    2.3967 H.spc      1 <1>        0.000
     16 H          -0.3163    1.9302    0.0007 H.spc      1 <1>        0.000
     17 H          -1.4926    0.2787    2.3318 H.spc      1 <1>        0.000
     18 H          -2.7646    2.2780    0.4649 H.spc      1 <1>        0.000
     19 H          -4.3512    1.8220    2.6608 H.spc      1 <1>        0.000
     20 H          -5.8351    0.1472    2.0645 H.spc      1 <1>        0.000
     21 H          -4.9780   -2.1543    1.5410 H.spc      1 <1>        0.000
@<TRIPOS>BOND
     1    4    5 1  
     2    9   11 2  
     3    6    7 1  
     4    9   10 1  
     5    7    8 2  
     6    3    4 2  
     7    5    6 2  
     8    8    9 1  
     9    1    2 2  
    10    2    3 1  
    11    1   12 1  
    12    1   13 1  
    13    2   14 1  
    14    3   15 1  
    15    4   16 1  
    16    5   17 1  
    17    6   18 1  
    18    7   19 1  
    19    8   20 1  
    20   10   21 1  
# Name:          frag3-212-7/96164
# Creation time: Sat Jun  5 12:53:11 2010


@<TRIPOS>MOLECULE
frag3-212-7/96164
   21    20     1     1     1
SMALL
USER_CHARGES


@<TRIPOS>ATOM
      1 C21         3.1053    0.7410    0.6087 C.2        1 <1>        0.000
      2 C22         1.9511    1.3020    0.2394 C.2        1 <1>        0.000
      3 C24         0.6559    1.1680    0.8752 C.2        1 <1>        0.000
      4 C25        -0.2940    2.1107    1.0215 C.2        1 <1>        0.000
      5 C26        -1.6004    1.9576    1.6285 C.2        1 <1>        0.000
      6 C27        -2.4420    0.9152    1.4719 C.2        1 <1>        0.000
      7 C29        -3.7600    0.6923    2.0425 C.2        1 <1>        0.000
      8 C30        -4.8246    0.0334    1.5389 C.2        1 <1>        0.000
      9 C31        -4.8689   -0.6273    0.2255 C.2        1 <1>        0.000
     10 O7         -5.6328   -0.0922   -0.7377 O.3        1 <1>        0.000
     11 O8         -4.2168   -1.6397    0.0307 O.2        1 <1>        0.000
     12 H           3.1411    0.0945    1.4855 H.spc      1 <1>        0.000
     13 H           4.0116    0.9296    0.0333 H.spc      1 <1>        0.000
     14 H           1.9876    1.9365   -0.6461 H.spc      1 <1>        0.000
     15 H           0.4225    0.1851    1.2845 H.spc      1 <1>        0.000
     16 H          -0.0525    3.1026    0.6395 H.spc      1 <1>        0.000
     17 H          -1.9372    2.7663    2.2771 H.spc      1 <1>        0.000
     18 H          -2.0792    0.1209    0.8196 H.spc      1 <1>        0.000
     19 H          -3.9123    1.1248    3.0314 H.spc      1 <1>        0.000
     20 H          -5.7230   -0.0129    2.1543 H.spc      1 <1>        0.000
     21 H          -6.0666    0.6949   -0.4002 H.spc      1 <1>        0.000
@<TRIPOS>BOND
     1    4    5 1  
     2    9   11 2  
     3    6    7 1  
     4    9   10 1  
     5    7    8 2  
     6    3    4 2  
     7    5    6 2  
     8    8    9 1  
     9    1    2 2  
    10    2    3 1  
    11    1   12 1  
    12    1   13 1  
    13    2   14 1  
    14    3   15 1  
    15    4   16 1  
    16    5   17 1  
    17    6   18 1  
    18    7   19 1  
    19    8   20 1  
    20   10   21 1  
# Name:          frag3-212-7/96164
# Creation time: Sat Jun  5 12:53:11 2010


@<TRIPOS>MOLECULE
frag3-212-7/96164
   21    20     1     1     1
SMALL
USER_CHARGES


@<TRIPOS>ATOM
      1 C21         2.8367    0.5253    0.1608 C.2        1 <1>        0.000
      2 C22         1.9903    1.4917    0.5262 C.2        1 <1>        0.000
      3 C24         0.5447    1.5009    0.3926 C.2        1 <1>        0.000
      4 C25        -0.3702    1.4921    1.3792 C.2        1 <1>        0.000
      5 C26        -1.8143    1.5269    1.2505 C.2        1 <1>        0.000
      6 C27        -2.7244    1.0949    2.1410 C.2        1 <1>        0.000
      7 C29        -4.1778    1.0959    2.0558 C.2        1 <1>        0.000
      8 C30        -4.9897    0.3827    1.2497 C.2        1 <1>        0.000
      9 C31        -4.5482   -0.5906    0.2405 C.2        1 <1>        0.000
     10 O7         -3.6059   -0.2620   -0.6504 O.3        1 <1>        0.000
     11 O8         -5.0682   -1.6968    0.1993 O.2        1 <1>        0.000
     12 H           2.4564   -0.3879   -0.2970 H.spc      1 <1>        0.000
     13 H           3.9077    0.6498    0.3204 H.spc      1 <1>        0.000
     14 H           2.4373    2.3774    0.9777 H.spc      1 <1>        0.000
     15 H           0.1552    1.5168   -0.6253 H.spc      1 <1>        0.000
     16 H           0.0205    1.4543    2.3961 H.spc      1 <1>        0.000
     17 H          -2.2066    1.9517    0.3265 H.spc      1 <1>        0.000
     18 H          -2.3134    0.6832    3.0628 H.spc      1 <1>        0.000
     19 H          -4.6836    1.7724    2.7447 H.spc      1 <1>        0.000
     20 H          -6.0630    0.5410    1.3551 H.spc      1 <1>        0.000
     21 H          -3.3044    0.6334   -0.4801 H.spc      1 <1>        0.000
@<TRIPOS>BOND
     1    4    5 1  
     2    9   11 2  
     3    6    7 1  
     4    9   10 1  
     5    7    8 2  
     6    3    4 2  
     7    5    6 2  
     8    8    9 1  
     9    1    2 2  
    10    2    3 1  
    11    1   12 1  
    12    1   13 1  
    13    2   14 1  
    14    3   15 1  
    15    4   16 1  
    16    5   17 1  
    17    6   18 1  
    18    7   19 1  
    19    8   20 1  
    20   10   21 1  
# Name:          frag3-212-7/96164
# Creation time: Sat Jun  5 12:53:11 2010


@<TRIPOS>MOLECULE
frag3-212-7/96164
   21    20     1     1     1
SMALL
USER_CHARGES


@<TRIPOS>ATOM
      1 C21         2.9767    2.2520    0.4779 C.2        1 <1>        0.000
      2 C22         2.0664    1.2750    0.4930 C.2        1 <1>        0.000
      3 C24         0.6618    1.3741    0.8246 C.2        1 <1>        0.000
      4 C25        -0.2072    0.3762    1.0670 C.2        1 <1>        0.000
      5 C26        -1.6011    0.4918    1.4334 C.2        1 <1>        0.000
      6 C27        -2.4792    1.4143    0.9899 C.2        1 <1>        0.000
      7 C29        -3.8835    1.5934    1.3179 C.2        1 <1>        0.000
      8 C30        -4.9209    0.7403    1.1626 C.2        1 <1>        0.000
      9 C31        -4.8295   -0.6031    0.5704 C.2        1 <1>        0.000
     10 O7         -5.9671   -1.2321    0.2332 O.3        1 <1>        0.000
     11 O8         -3.7433   -1.1209    0.3753 O.2        1 <1>        0.000
     12 H           2.6876    3.2703    0.7377 H.spc      1 <1>        0.000
     13 H           4.0088    2.0311    0.2058 H.spc      1 <1>        0.000
     14 H           2.4255    0.2820    0.2225 H.spc      1 <1>        0.000
     15 H           0.2567    2.3842    0.8857 H.spc      1 <1>        0.000
     16 H           0.1849   -0.6368    0.9767 H.spc      1 <1>        0.000
     17 H          -1.9820   -0.2435    2.1421 H.spc      1 <1>        0.000
     18 H          -2.0746    2.1340    0.2782 H.spc      1 <1>        0.000
     19 H          -4.1385    2.5593    1.7540 H.spc      1 <1>        0.000
     20 H          -5.9013    1.0740    1.5027 H.spc      1 <1>        0.000
     21 H          -6.7173   -0.6773    0.4591 H.spc      1 <1>        0.000
@<TRIPOS>BOND
     1    4    5 1  
     2    9   11 2  
     3    6    7 1  
     4    9   10 1  
     5    7    8 2  
     6    3    4 2  
     7    5    6 2  
     8    8    9 1  
     9    1    2 2  
    10    2    3 1  
    11    1   12 1  
    12    1   13 1  
    13    2   14 1  
    14    3   15 1  
    15    4   16 1  
    16    5   17 1  
    17    6   18 1  
    18    7   19 1  
    19    8   20 1  
    20   10   21 1  
# Name:          frag3-212-7/96164
# Creation time: Sat Jun  5 12:53:11 2010


@<TRIPOS>MOLECULE
frag3-212-7/96164
   21    20     1     1     1
SMALL
USER_CHARGES


@<TRIPOS>ATOM
      1 C21         2.7017    1.6738    0.2719 C.2        1 <1>        0.000
      2 C22         1.9725    0.8892    1.0687 C.2        1 <1>        0.000
      3 C24         0.5405    0.9057    1.2450 C.2        1 <1>        0.000
      4 C25        -0.3890    1.3652    0.3840 C.2        1 <1>        0.000
      5 C26        -1.8224    1.3545    0.5433 C.2        1 <1>        0.000
      6 C27        -2.5076    1.3038    1.7017 C.2        1 <1>        0.000
      7 C29        -3.9370    1.2751    1.9389 C.2        1 <1>        0.000
      8 C30        -4.8789    0.4682    1.4064 C.2        1 <1>        0.000
      9 C31        -4.6265   -0.6027    0.4281 C.2        1 <1>        0.000
     10 O7         -4.0157   -0.3228   -0.7302 O.3        1 <1>        0.000
     11 O8         -4.9646   -1.7489    0.6873 O.2        1 <1>        0.000
     12 H           2.2142    2.4329   -0.3399 H.spc      1 <1>        0.000
     13 H           3.7845    1.5553    0.2331 H.spc      1 <1>        0.000
     14 H           2.5220    0.1513    1.6533 H.spc      1 <1>        0.000
     15 H           0.1667    0.4989    2.1846 H.spc      1 <1>        0.000
     16 H          -0.0124    1.7964   -0.5435 H.spc      1 <1>        0.000
     17 H          -2.4142    1.3914   -0.3713 H.spc      1 <1>        0.000
     18 H          -1.8913    1.2808    2.6004 H.spc      1 <1>        0.000
     19 H          -4.3053    2.0131    2.6516 H.spc      1 <1>        0.000
     20 H          -5.9095    0.6218    1.7265 H.spc      1 <1>        0.000
     21 H          -3.8220    0.6166   -0.7697 H.spc      1 <1>        0.000
@<TRIPOS>BOND
     1    4    5 1  
     2    9   11 2  
     3    6    7 1  
     4    9   10 1  
     5    7    8 2  
     6    3    4 2  
     7    5    6 2  
     8    8    9 1  
     9    1    2 2  
    10    2    3 1  
    11    1   12 1  
    12    1   13 1  
    13    2   14 1  
    14    3   15 1  
    15    4   16 1  
    16    5   17 1  
    17    6   18 1  
    18    7   19 1  
    19    8   20 1  
    20   10   21 1  
# Name:          frag3-212-7/96164
# Creation time: Sat Jun  5 12:53:11 2010


@<TRIPOS>MOLECULE
frag3-212-7/96164
   21    20     1     1     1
SMALL
USER_CHARGES


@<TRIPOS>ATOM
      1 C21         2.9293    0.9425    0.3295 C.2        1 <1>        0.000
      2 C22         2.1080    1.9952    0.3949 C.2        1 <1>        0.000
      3 C24         0.7699    2.0315    0.9534 C.2        1 <1>        0.000
      4 C25        -0.0394    0.9812    1.1984 C.2        1 <1>        0.000
      5 C26        -1.3629    1.0038    1.7853 C.2        1 <1>        0.000
      6 C27        -2.5375    1.0875    1.1360 C.2        1 <1>        0.000
      7 C29        -3.8918    1.1278    1.6659 C.2        1 <1>        0.000
      8 C30        -4.9644    0.3730    1.3571 C.2        1 <1>        0.000
      9 C31        -4.9966   -0.6931    0.3452 C.2        1 <1>        0.000
     10 O7         -3.8894   -1.0240   -0.3277 O.3        1 <1>        0.000
     11 O8         -6.0522   -1.2644    0.1071 O.2        1 <1>        0.000
     12 H           2.6111   -0.0223    0.7244 H.spc      1 <1>        0.000
     13 H           3.9172    1.0490   -0.1187 H.spc      1 <1>        0.000
     14 H           2.4861    2.9307   -0.0175 H.spc      1 <1>        0.000
     15 H           0.3750    3.0164    1.2025 H.spc      1 <1>        0.000
     16 H           0.3480    0.0005    0.9224 H.spc      1 <1>        0.000
     17 H          -1.4125    0.9467    2.8727 H.spc      1 <1>        0.000
     18 H          -2.4639    1.1318    0.0494 H.spc      1 <1>        0.000
     19 H          -4.0655    1.8851    2.4303 H.spc      1 <1>        0.000
     20 H          -5.8866    0.5695    1.9040 H.spc      1 <1>        0.000
     21 H          -3.1567   -0.4848   -0.0210 H.spc      1 <1>        0.000
@<TRIPOS>BOND
     1    4    5 1  
     2    9   11 2  
     3    6    7 1  
     4    9   10 1  
     5    7    8 2  
     6    3    4 2  
     7    5    6 2  
     8    8    9 1  
     9    1    2 2  
    10    2    3 1  
    11    1   12 1  
    12    1   13 1  
    13    2   14 1  
    14    3   15 1  
    15    4   16 1  
    16    5   17 1  
    17    6   18 1  
    18    7   19 1  
    19    8   20 1  
    20   10   21 1  
# Name:          frag3-212-7/96164
# Creation time: Sat Jun  5 12:53:12 2010


@<TRIPOS>MOLECULE
frag3-212-7/96164
   21    20     1     1     1
SMALL
USER_CHARGES


@<TRIPOS>ATOM
      1 C21         2.6274    1.5069   -0.4736 C.2        1 <1>        0.000
      2 C22         1.8798    1.3219    0.6175 C.2        1 <1>        0.000
      3 C24         0.4571    1.0601    0.6868 C.2        1 <1>        0.000
      4 C25        -0.3181    0.9757    1.7821 C.2        1 <1>        0.000
      5 C26        -1.7460    0.7597    1.8445 C.2        1 <1>        0.000
      6 C27        -2.7159    1.6647    1.6002 C.2        1 <1>        0.000
      7 C29        -4.1615    1.5074    1.6340 C.2        1 <1>        0.000
      8 C30        -4.9349    0.5398    1.0905 C.2        1 <1>        0.000
      9 C31        -4.4378   -0.5906    0.2904 C.2        1 <1>        0.000
     10 O7         -5.3196   -1.5139   -0.1249 O.3        1 <1>        0.000
     11 O8         -3.2577   -0.6705   -0.0023 O.2        1 <1>        0.000
     12 H           2.1687    1.4679   -1.4616 H.spc      1 <1>        0.000
     13 H           3.6963    1.6969   -0.3761 H.spc      1 <1>        0.000
     14 H           2.4041    1.3743    1.5717 H.spc      1 <1>        0.000
     15 H          -0.0481    0.9132   -0.2678 H.spc      1 <1>        0.000
     16 H           0.1922    1.0832    2.7393 H.spc      1 <1>        0.000
     17 H          -2.0745   -0.2428    2.1186 H.spc      1 <1>        0.000
     18 H          -2.3639    2.6626    1.3385 H.spc      1 <1>        0.000
     19 H          -4.7009    2.2833    2.1772 H.spc      1 <1>        0.000
     20 H          -6.0101    0.6024    1.2583 H.spc      1 <1>        0.000
     21 H          -6.1944   -1.2880    0.1996 H.spc      1 <1>        0.000
@<TRIPOS>BOND
     1    4    5 1  
     2    9   11 2  
     3    6    7 1  
     4    9   10 1  
     5    7    8 2  
     6    3    4 2  
     7    5    6 2  
     8    8    9 1  
     9    1    2 2  
    10    2    3 1  
    11    1   12 1  
    12    1   13 1  
    13    2   14 1  
    14    3   15 1  
    15    4   16 1  
    16    5   17 1  
    17    6   18 1  
    18    7   19 1  
    19    8   20 1  
    20   10   21 1  
# Name:          frag3-212-7/96164 -- energy: 1.903699
# Creation time: Sat Jun  5 12:53:12 2010


@<TRIPOS>MOLECULE
frag3-212-7/96164 -- energy: 1.903699
   21    20     1     1     1
SMALL
USER_CHARGES


@<TRIPOS>ATOM
      1 C21         2.5639    1.5808   -0.5112 C.2        1 <1>        0.000
      2 C22         1.8703    1.2802    0.5907 C.2        1 <1>        0.000
      3 C24         0.4344    1.0769    0.7058 C.2        1 <1>        0.000
      4 C25        -0.2836    0.9187    1.8320 C.2        1 <1>        0.000
      5 C26        -1.7236    0.7602    1.9416 C.2        1 <1>        0.000
      6 C27        -2.6605    1.6256    1.5046 C.2        1 <1>        0.000
      7 C29        -4.1140    1.5260    1.5776 C.2        1 <1>        0.000
      8 C30        -4.9322    0.5772    1.0804 C.2        1 <1>        0.000
      9 C31        -4.5100   -0.5945    0.3011 C.2        1 <1>        0.000
     10 O7         -3.2492   -0.7165   -0.1235 O.3        1 <1>        0.000
     11 O8         -5.3226   -1.4736    0.0459 O.2        1 <1>        0.000
     12 H           2.0483    1.7001   -1.4641 H.spc      1 <1>        0.000
     13 H           3.6453    1.7067   -0.4571 H.spc      1 <1>        0.000
     14 H           2.4471    1.1752    1.5096 H.spc      1 <1>        0.000
     15 H          -0.1246    1.0496   -0.2295 H.spc      1 <1>        0.000
     16 H           0.2773    0.9082    2.7665 H.spc      1 <1>        0.000
     17 H          -2.0821   -0.1485    2.4251 H.spc      1 <1>        0.000
     18 H          -2.2772    2.5284    1.0289 H.spc      1 <1>        0.000
     19 H          -4.6104    2.3363    2.1116 H.spc      1 <1>        0.000
     20 H          -5.9992    0.6889    1.2732 H.spc      1 <1>        0.000
     21 H          -2.7430    0.0497    0.1562 H.spc      1 <1>        0.000
@<TRIPOS>BOND
     1    4    5 1  
     2    9   11 2  
     3    6    7 1  
     4    9   10 1  
     5    7    8 2  
     6    3    4 2  
     7    5    6 2  
     8    8    9 1  
     9    1    2 2  
    10    2    3 1  
    11    1   12 1  
    12    1   13 1  
    13    2   14 1  
    14    3   15 1  
    15    4   16 1  
    16    5   17 1  
    17    6   18 1  
    18    7   19 1  
    19    8   20 1  
    20   10   21 1  
# Name:          frag3-212-7/96164 -- energy: -1.291637
# Creation time: Sat Jun  5 12:53:12 2010


@<TRIPOS>MOLECULE
frag3-212-7/96164 -- energy: -1.291637
   21    20     1     1     1
SMALL
USER_CHARGES


@<TRIPOS>ATOM
      1 C21         2.9503    0.7365   -0.0576 C.2        1 <1>        0.000
      2 C22         2.0033    1.5820    0.3598 C.2        1 <1>        0.000
      3 C24         0.7635    1.2538    1.0479 C.2        1 <1>        0.000
      4 C25        -0.2628    2.0778    1.3244 C.2        1 <1>        0.000
      5 C26        -1.5179    1.7347    1.9724 C.2        1 <1>        0.000
      6 C27        -2.5643    1.1012    1.4104 C.2        1 <1>        0.000
      7 C29        -3.8442    0.7240    2.0015 C.2        1 <1>        0.000
      8 C30        -4.8381   -0.0416    1.5027 C.2        1 <1>        0.000
      9 C31        -4.8380   -0.6724    0.1761 C.2        1 <1>        0.000
     10 O7         -5.9150   -1.3534   -0.2411 O.3        1 <1>        0.000
     11 O8         -3.8638   -0.5817   -0.5516 O.2        1 <1>        0.000
     12 H           2.8362   -0.3347    0.1085 H.spc      1 <1>        0.000
     13 H           3.8368    1.1181   -0.5641 H.spc      1 <1>        0.000
     14 H           2.1797    2.6393    0.1621 H.spc      1 <1>        0.000
     15 H           0.6541    0.2205    1.3773 H.spc      1 <1>        0.000
     16 H          -0.1396    3.1199    1.0295 H.spc      1 <1>        0.000
     17 H          -1.6224    2.0192    3.0194 H.spc      1 <1>        0.000
     18 H          -2.4373    0.8308    0.3621 H.spc      1 <1>        0.000
     19 H          -4.0258    1.1218    2.9999 H.spc      1 <1>        0.000
     20 H          -5.7107   -0.2047    2.1352 H.spc      1 <1>        0.000
     21 H          -6.5900   -1.3316    0.4411 H.spc      1 <1>        0.000
@<TRIPOS>BOND
     1    4    5 1  
     2    9   11 2  
     3    6    7 1  
     4    9   10 1  
     5    7    8 2  
     6    3    4 2  
     7    5    6 2  
     8    8    9 1  
     9    1    2 2  
    10    2    3 1  
    11    1   12 1  
    12    1   13 1  
    13    2   14 1  
    14    3   15 1  
    15    4   16 1  
    16    5   17 1  
    17    6   18 1  
    18    7   19 1  
    19    8   20 1  
    20   10   21 1  
# Name:          frag3-212-7/96164 -- energy: -0.814665
# Creation time: Sat Jun  5 12:53:12 2010


@<TRIPOS>MOLECULE
frag3-212-7/96164 -- energy: -0.814665
   21    20     1     1     1
SMALL
USER_CHARGES


@<TRIPOS>ATOM
      1 C21         3.4545    1.9438    0.6965 C.2        1 <1>        0.000
      2 C22         2.3293    1.2738    0.4272 C.2        1 <1>        0.000
      3 C24         0.9600    1.7264    0.6402 C.2        1 <1>        0.000
      4 C25        -0.0778    0.9986    1.0892 C.2        1 <1>        0.000
      5 C26        -1.4359    1.4601    1.3402 C.2        1 <1>        0.000
      6 C27        -2.5520    0.7122    1.3579 C.2        1 <1>        0.000
      7 C29        -3.9349    1.1211    1.5919 C.2        1 <1>        0.000
      8 C30        -5.0837    0.5290    1.2144 C.2        1 <1>        0.000
      9 C31        -5.1913   -0.7104    0.4330 C.2        1 <1>        0.000
     10 O7         -4.2121   -1.0777   -0.3987 O.3        1 <1>        0.000
     11 O8         -6.1832   -1.4159    0.5532 O.2        1 <1>        0.000
     12 H           3.4035    2.9451    1.1242 H.spc      1 <1>        0.000
     13 H           4.4229    1.4888    0.4883 H.spc      1 <1>        0.000
     14 H           2.4492    0.2779    0.0007 H.spc      1 <1>        0.000
     15 H           0.7544    2.7717    0.4097 H.spc      1 <1>        0.000
     16 H           0.1197   -0.0549    1.2875 H.spc      1 <1>        0.000
     17 H          -1.5603    2.5254    1.5343 H.spc      1 <1>        0.000
     18 H          -2.4046   -0.3515    1.1710 H.spc      1 <1>        0.000
     19 H          -4.0548    2.0451    2.1575 H.spc      1 <1>        0.000
     20 H          -6.0142    1.0108    1.5145 H.spc      1 <1>        0.000
     21 H          -3.5122   -0.4210   -0.3770 H.spc      1 <1>        0.000
@<TRIPOS>BOND
     1    4    5 1  
     2    9   11 2  
     3    6    7 1  
     4    9   10 1  
     5    7    8 2  
     6    3    4 2  
     7    5    6 2  
     8    8    9 1  
     9    1    2 2  
    10    2    3 1  
    11    1   12 1  
    12    1   13 1  
    13    2   14 1  
    14    3   15 1  
    15    4   16 1  
    16    5   17 1  
    17    6   18 1  
    18    7   19 1  
    19    8   20 1  
    20   10   21 1  
# Name:          frag3-212-7/96164 -- energy: -1.950745
# Creation time: Sat Jun  5 12:53:12 2010


@<TRIPOS>MOLECULE
frag3-212-7/96164 -- energy: -1.950745
   21    20     1     1     1
SMALL
USER_CHARGES


@<TRIPOS>ATOM
      1 C21         3.4923    2.0893    0.4758 C.2        1 <1>        0.000
      2 C22         2.3762    1.3557    0.4565 C.2        1 <1>        0.000
      3 C24         1.0566    1.7348    0.9299 C.2        1 <1>        0.000
      4 C25        -0.1054    1.0857    0.7372 C.2        1 <1>        0.000
      5 C26        -1.4177    1.4447    1.2401 C.2        1 <1>        0.000
      6 C27        -2.5491    0.7226    1.1567 C.2        1 <1>        0.000
      7 C29        -3.8865    1.0331    1.6402 C.2        1 <1>        0.000
      8 C30        -5.0601    0.4166    1.3982 C.2        1 <1>        0.000
      9 C31        -5.2448   -0.7544    0.5275 C.2        1 <1>        0.000
     10 O7         -4.6027   -1.8907    0.8231 O.3        1 <1>        0.000
     11 O8         -5.9858   -0.6764   -0.4402 O.2        1 <1>        0.000
     12 H           3.4730    3.1002    0.8830 H.spc      1 <1>        0.000
     13 H           4.4223    1.6770    0.0844 H.spc      1 <1>        0.000
     14 H           2.4665    0.3542    0.0357 H.spc      1 <1>        0.000
     15 H           1.0014    2.6554    1.5108 H.spc      1 <1>        0.000
     16 H          -0.0550    0.1816    0.1305 H.spc      1 <1>        0.000
     17 H          -1.4956    2.4089    1.7425 H.spc      1 <1>        0.000
     18 H          -2.4499   -0.2383    0.6518 H.spc      1 <1>        0.000
     19 H          -3.9483    1.8983    2.3003 H.spc      1 <1>        0.000
     20 H          -5.9464    0.8193    1.8886 H.spc      1 <1>        0.000
     21 H          -4.0711   -1.7607    1.6118 H.spc      1 <1>        0.000
@<TRIPOS>BOND
     1    4    5 1  
     2    9   11 2  
     3    6    7 1  
     4    9   10 1  
     5    7    8 2  
     6    3    4 2  
     7    5    6 2  
     8    8    9 1  
     9    1    2 2  
    10    2    3 1  
    11    1   12 1  
    12    1   13 1  
    13    2   14 1  
    14    3   15 1  
    15    4   16 1  
    16    5   17 1  
    17    6   18 1  
    18    7   19 1  
    19    8   20 1  
    20   10   21 1  
# Name:          frag3-212-7/96164 -- energy: -1.825358
# Creation time: Sat Jun  5 12:53:12 2010


@<TRIPOS>MOLECULE
frag3-212-7/96164 -- energy: -1.825358
   21    20     1     1     1
SMALL
USER_CHARGES


@<TRIPOS>ATOM
      1 C21         2.7140    1.8410    0.5487 C.2        1 <1>        0.000
      2 C22         1.9078    0.7751    0.5410 C.2        1 <1>        0.000
      3 C24         0.4764    0.7551    0.7798 C.2        1 <1>        0.000
      4 C25        -0.4033    1.7484    0.5365 C.2        1 <1>        0.000
      5 C26        -1.8379    1.7205    0.7436 C.2        1 <1>        0.000
      6 C27        -2.4868    1.1898    1.7981 C.2        1 <1>        0.000
      7 C29        -3.9158    1.1111    2.0636 C.2        1 <1>        0.000
      8 C30        -4.8503    0.3205    1.4990 C.2        1 <1>        0.000
      9 C31        -4.6059   -0.6700    0.4416 C.2        1 <1>        0.000
     10 O7         -3.4202   -1.2785    0.3328 O.3        1 <1>        0.000
     11 O8         -5.5051   -0.9519   -0.3397 O.2        1 <1>        0.000
     12 H           2.3062    2.8314    0.7510 H.spc      1 <1>        0.000
     13 H           3.7794    1.7200    0.3526 H.spc      1 <1>        0.000
     14 H           2.3775   -0.1861    0.3322 H.spc      1 <1>        0.000
     15 H           0.0675   -0.1629    1.2019 H.spc      1 <1>        0.000
     16 H           0.0107    2.6755    0.1399 H.spc      1 <1>        0.000
     17 H          -2.4538    2.1749   -0.0325 H.spc      1 <1>        0.000
     18 H          -1.8471    0.7550    2.5661 H.spc      1 <1>        0.000
     19 H          -4.2843    1.7912    2.8316 H.spc      1 <1>        0.000
     20 H          -5.8744    0.4249    1.8574 H.spc      1 <1>        0.000
     21 H          -2.8291   -0.9492    1.0138 H.spc      1 <1>        0.000
@<TRIPOS>BOND
     1    4    5 1  
     2    9   11 2  
     3    6    7 1  
     4    9   10 1  
     5    7    8 2  
     6    3    4 2  
     7    5    6 2  
     8    8    9 1  
     9    1    2 2  
    10    2    3 1  
    11    1   12 1  
    12    1   13 1  
    13    2   14 1  
    14    3   15 1  
    15    4   16 1  
    16    5   17 1  
    17    6   18 1  
    18    7   19 1  
    19    8   20 1  
    20   10   21 1  
# Name:          frag3-212-7/96164 -- energy: -2.015957
# Creation time: Sat Jun  5 12:53:12 2010


@<TRIPOS>MOLECULE
frag3-212-7/96164 -- energy: -2.015957
   21    20     1     1     1
SMALL
USER_CHARGES


@<TRIPOS>ATOM
      1 C21         2.4779    0.7687   -0.5258 C.2        1 <1>        0.000
      2 C22         1.8865    1.2663    0.5636 C.2        1 <1>        0.000
      3 C24         0.4930    1.1575    0.9452 C.2        1 <1>        0.000
      4 C25        -0.1458    1.7998    1.9407 C.2        1 <1>        0.000
      5 C26        -1.5503    1.7126    2.2859 C.2        1 <1>        0.000
      6 C27        -2.5195    1.1140    1.5635 C.2        1 <1>        0.000
      7 C29        -3.9405    0.9886    1.8391 C.2        1 <1>        0.000
      8 C30        -4.8849    0.2539    1.2183 C.2        1 <1>        0.000
      9 C31        -4.6570   -0.6163    0.0541 C.2        1 <1>        0.000
     10 O7         -4.0726   -0.1002   -1.0341 O.3        1 <1>        0.000
     11 O8         -5.0137   -1.7838    0.0946 O.2        1 <1>        0.000
     12 H           1.8945    0.2034   -1.2525 H.spc      1 <1>        0.000
     13 H           3.5439    0.9280   -0.6881 H.spc      1 <1>        0.000
     14 H           2.5292    1.8206    1.2475 H.spc      1 <1>        0.000
     15 H          -0.1125    0.4711    0.3533 H.spc      1 <1>        0.000
     16 H           0.4629    2.4609    2.5575 H.spc      1 <1>        0.000
     17 H          -1.8543    2.1775    3.2237 H.spc      1 <1>        0.000
     18 H          -2.1864    0.6552    0.6326 H.spc      1 <1>        0.000
     19 H          -4.2993    1.5819    2.6801 H.spc      1 <1>        0.000
     20 H          -5.9003    0.3090    1.6109 H.spc      1 <1>        0.000
     21 H          -3.8657    0.8240   -0.8769 H.spc      1 <1>        0.000
@<TRIPOS>BOND
     1    4    5 1  
     2    9   11 2  
     3    6    7 1  
     4    9   10 1  
     5    7    8 2  
     6    3    4 2  
     7    5    6 2  
     8    8    9 1  
     9    1    2 2  
    10    2    3 1  
    11    1   12 1  
    12    1   13 1  
    13    2   14 1  
    14    3   15 1  
    15    4   16 1  
    16    5   17 1  
    17    6   18 1  
    18    7   19 1  
    19    8   20 1  
    20   10   21 1  
# Name:          frag3-212-7/96164 -- energy: -1.987980
# Creation time: Sat Jun  5 12:53:12 2010


@<TRIPOS>MOLECULE
frag3-212-7/96164 -- energy: -1.987980
   21    20     1     1     1
SMALL
USER_CHARGES


@<TRIPOS>ATOM
      1 C21         2.8432    1.6776    0.9324 C.2        1 <1>        0.000
      2 C22         1.8436    1.4520    0.0740 C.2        1 <1>        0.000
      3 C24         0.4274    1.3893    0.3742 C.2        1 <1>        0.000
      4 C25        -0.1740    0.6557    1.3324 C.2        1 <1>        0.000
      5 C26        -1.5847    0.6269    1.6619 C.2        1 <1>        0.000
      6 C27        -2.5275    1.4888    1.2294 C.2        1 <1>        0.000
      7 C29        -3.9523    1.5245    1.5153 C.2        1 <1>        0.000
      8 C30        -4.9121    0.6306    1.2038 C.2        1 <1>        0.000
      9 C31        -4.7069   -0.6122    0.4466 C.2        1 <1>        0.000
     10 O7         -3.7779   -0.6845   -0.5129 O.3        1 <1>        0.000
     11 O8         -5.4058   -1.5876    0.6880 O.2        1 <1>        0.000
     12 H           2.6284    1.8394    1.9887 H.spc      1 <1>        0.000
     13 H           3.8731    1.6998    0.5760 H.spc      1 <1>        0.000
     14 H           2.1252    1.2981   -0.9677 H.spc      1 <1>        0.000
     15 H          -0.2256    2.0048   -0.2446 H.spc      1 <1>        0.000
     16 H           0.4744    0.0115    1.9263 H.spc      1 <1>        0.000
     17 H          -1.9172   -0.1712    2.3257 H.spc      1 <1>        0.000
     18 H          -2.1675    2.2759    0.5668 H.spc      1 <1>        0.000
     19 H          -4.2950    2.4031    2.0618 H.spc      1 <1>        0.000
     20 H          -5.9253    0.8478    1.5419 H.spc      1 <1>        0.000
     21 H          -3.3197    0.1566   -0.5771 H.spc      1 <1>        0.000
@<TRIPOS>BOND
     1    4    5 1  
     2    9   11 2  
     3    6    7 1  
     4    9   10 1  
     5    7    8 2  
     6    3    4 2  
     7    5    6 2  
     8    8    9 1  
     9    1    2 2  
    10    2    3 1  
    11    1   12 1  
    12    1   13 1  
    13    2   14 1  
    14    3   15 1  
    15    4   16 1  
    16    5   17 1  
    17    6   18 1  
    18    7   19 1  
    19    8   20 1  
    20   10   21 1  
# Name:          frag3-212-7/96164 -- energy: -2.005639
# Creation time: Sat Jun  5 12:53:12 2010


@<TRIPOS>MOLECULE
frag3-212-7/96164 -- energy: -2.005639
   21    20     1     1     1
SMALL
USER_CHARGES


@<TRIPOS>ATOM
      1 C21         2.5245    1.5358   -0.3852 C.2        1 <1>        0.000
      2 C22         2.2426    1.2866    0.8982 C.2        1 <1>        0.000
      3 C24         0.9417    0.9697    1.4648 C.2        1 <1>        0.000
      4 C25        -0.2640    1.3276    0.9787 C.2        1 <1>        0.000
      5 C26        -1.5696    0.9869    1.5130 C.2        1 <1>        0.000
      6 C27        -2.7382    1.6024    1.2598 C.2        1 <1>        0.000
      7 C29        -4.0707    1.3053    1.7716 C.2        1 <1>        0.000
      8 C30        -4.9405    0.3398    1.4012 C.2        1 <1>        0.000
      9 C31        -4.7139   -0.6390    0.3296 C.2        1 <1>        0.000
     10 O7         -5.7577   -1.2520   -0.2493 O.3        1 <1>        0.000
     11 O8         -3.5814   -0.9021   -0.0374 O.2        1 <1>        0.000
     12 H           1.7309    1.5124   -1.1320 H.spc      1 <1>        0.000
     13 H           3.5479    1.7623   -0.6844 H.spc      1 <1>        0.000
     14 H           3.0795    1.3253    1.5955 H.spc      1 <1>        0.000
     15 H           0.9410    0.3793    2.3811 H.spc      1 <1>        0.000
     16 H          -0.2573    1.9445    0.0801 H.spc      1 <1>        0.000
     17 H          -1.6072    0.1378    2.1954 H.spc      1 <1>        0.000
     18 H          -2.6808    2.4460    0.5720 H.spc      1 <1>        0.000
     19 H          -4.4167    1.9593    2.5720 H.spc      1 <1>        0.000
     20 H          -5.8859    0.2827    1.9407 H.spc      1 <1>        0.000
     21 H          -6.5729   -0.9378    0.1487 H.spc      1 <1>        0.000
@<TRIPOS>BOND
     1    4    5 1  
     2    9   11 2  
     3    6    7 1  
     4    9   10 1  
     5    7    8 2  
     6    3    4 2  
     7    5    6 2  
     8    8    9 1  
     9    1    2 2  
    10    2    3 1  
    11    1   12 1  
    12    1   13 1  
    13    2   14 1  
    14    3   15 1  
    15    4   16 1  
    16    5   17 1  
    17    6   18 1  
    18    7   19 1  
    19    8   20 1  
    20   10   21 1  
# Name:          frag3-212-7/96164 -- energy: -2.061445
# Creation time: Sat Jun  5 12:53:12 2010


@<TRIPOS>MOLECULE
frag3-212-7/96164 -- energy: -2.061445
   21    20     1     1     1
SMALL
USER_CHARGES


@<TRIPOS>ATOM
      1 C21         3.0576    1.4755   -0.2688 C.2        1 <1>        0.000
      2 C22         2.0962    1.2444    0.6302 C.2        1 <1>        0.000
      3 C24         0.6608    1.4099    0.4546 C.2        1 <1>        0.000
      4 C25        -0.2961    1.3094    1.3936 C.2        1 <1>        0.000
      5 C26        -1.7262    1.5094    1.2239 C.2        1 <1>        0.000
      6 C27        -2.7086    1.0508    2.0180 C.2        1 <1>        0.000
      7 C29        -4.1530    1.2109    1.8905 C.2        1 <1>        0.000
      8 C30        -5.0397    0.4767    1.1889 C.2        1 <1>        0.000
      9 C31        -4.7149   -0.6902    0.3572 C.2        1 <1>        0.000
     10 O7         -3.9624   -1.6819    0.8445 O.3        1 <1>        0.000
     11 O8         -5.1407   -0.7539   -0.7876 O.2        1 <1>        0.000
     12 H           2.7974    1.8302   -1.2661 H.spc      1 <1>        0.000
     13 H           4.1020    1.3093   -0.0048 H.spc      1 <1>        0.000
     14 H           2.4248    0.8913    1.6076 H.spc      1 <1>        0.000
     15 H           0.3225    1.6422   -0.5552 H.spc      1 <1>        0.000
     16 H           0.0387    1.0479    2.3974 H.spc      1 <1>        0.000
     17 H          -2.0352    2.0952    0.3582 H.spc      1 <1>        0.000
     18 H          -2.3782    0.4757    2.8830 H.spc      1 <1>        0.000
     19 H          -4.5782    2.0479    2.4444 H.spc      1 <1>        0.000
     20 H          -6.0869    0.7741    1.2433 H.spc      1 <1>        0.000
     21 H          -3.7124   -1.4778    1.7486 H.spc      1 <1>        0.000
@<TRIPOS>BOND
     1    4    5 1  
     2    9   11 2  
     3    6    7 1  
     4    9   10 1  
     5    7    8 2  
     6    3    4 2  
     7    5    6 2  
     8    8    9 1  
     9    1    2 2  
    10    2    3 1  
    11    1   12 1  
    12    1   13 1  
    13    2   14 1  
    14    3   15 1  
    15    4   16 1  
    16    5   17 1  
    17    6   18 1  
    18    7   19 1  
    19    8   20 1  
    20   10   21 1  
# Name:          frag3-212-7/96164 -- energy: -2.105410
# Creation time: Sat Jun  5 12:53:12 2010


@<TRIPOS>MOLECULE
frag3-212-7/96164 -- energy: -2.105410
   21    20     1     1     1
SMALL
USER_CHARGES


@<TRIPOS>ATOM
      1 C21         3.1877    0.8972    0.4100 C.2        1 <1>        0.000
      2 C22         1.9847    1.4767    0.3760 C.2        1 <1>        0.000
      3 C24         0.7267    0.9413    0.8614 C.2        1 <1>        0.000
      4 C25        -0.4625    1.5648    0.9350 C.2        1 <1>        0.000
      5 C26        -1.7265    1.0200    1.3879 C.2        1 <1>        0.000
      6 C27        -2.8844    1.6796    1.5699 C.2        1 <1>        0.000
      7 C29        -4.1739    1.1817    2.0231 C.2        1 <1>        0.000
      8 C30        -4.9413    0.1953    1.5125 C.2        1 <1>        0.000
      9 C31        -4.6192   -0.5996    0.3169 C.2        1 <1>        0.000
     10 O7         -4.9506   -0.1142   -0.8866 O.3        1 <1>        0.000
     11 O8         -4.0676   -1.6816    0.4389 O.2        1 <1>        0.000
     12 H           3.3017   -0.0970    0.8420 H.spc      1 <1>        0.000
     13 H           4.0554    1.4186    0.0058 H.spc      1 <1>        0.000
     14 H           1.9432    2.4706   -0.0697 H.spc      1 <1>        0.000
     15 H           0.7481   -0.0917    1.2086 H.spc      1 <1>        0.000
     16 H          -0.4774    2.6067    0.6151 H.spc      1 <1>        0.000
     17 H          -1.7406   -0.0478    1.6063 H.spc      1 <1>        0.000
     18 H          -2.8517    2.7455    1.3443 H.spc      1 <1>        0.000
     19 H          -4.5802    1.6779    2.9044 H.spc      1 <1>        0.000
     20 H          -5.8750   -0.0305    2.0276 H.spc      1 <1>        0.000
     21 H          -5.3721    0.7417   -0.7802 H.spc      1 <1>        0.000
@<TRIPOS>BOND
     1    4    5 1  
     2    9   11 2  
     3    6    7 1  
     4    9   10 1  
     5    7    8 2  
     6    3    4 2  
     7    5    6 2  
     8    8    9 1  
     9    1    2 2  
    10    2    3 1  
    11    1   12 1  
    12    1   13 1  
    13    2   14 1  
    14    3   15 1  
    15    4   16 1  
    16    5   17 1  
    17    6   18 1  
    18    7   19 1  
    19    8   20 1  
    20   10   21 1  
# Name:          frag3-212-7/96164 -- energy: -1.894768
# Creation time: Sat Jun  5 12:53:12 2010


@<TRIPOS>MOLECULE
frag3-212-7/96164 -- energy: -1.894768
   21    20     1     1     1
SMALL
USER_CHARGES


@<TRIPOS>ATOM
      1 C21         3.2283    1.1369    0.3996 C.2        1 <1>        0.000
      2 C22         1.9906    1.5696    0.1417 C.2        1 <1>        0.000
      3 C24         0.7809    1.3003    0.9070 C.2        1 <1>        0.000
      4 C25        -0.3108    2.0792    1.0094 C.2        1 <1>        0.000
      5 C26        -1.5327    1.7886    1.7435 C.2        1 <1>        0.000
      6 C27        -2.5369    0.9865    1.3412 C.2        1 <1>        0.000
      7 C29        -3.7820    0.6515    2.0255 C.2        1 <1>        0.000
      8 C30        -4.8255   -0.0929    1.6073 C.2        1 <1>        0.000
      9 C31        -4.9383   -0.7356    0.2913 C.2        1 <1>        0.000
     10 O7         -5.0298   -2.0684    0.1998 O.3        1 <1>        0.000
     11 O8         -4.9709   -0.0547   -0.7215 O.2        1 <1>        0.000
     12 H           3.4152    0.5065    1.2690 H.spc      1 <1>        0.000
     13 H           4.0510    1.4143   -0.2594 H.spc      1 <1>        0.000
     14 H           1.8728    2.1958   -0.7427 H.spc      1 <1>        0.000
     15 H           0.7577    0.3609    1.4594 H.spc      1 <1>        0.000
     16 H          -0.2762    3.0337    0.4843 H.spc      1 <1>        0.000
     17 H          -1.6468    2.2677    2.7159 H.spc      1 <1>        0.000
     18 H          -2.4004    0.5209    0.3651 H.spc      1 <1>        0.000
     19 H          -3.8837    1.0667    3.0282 H.spc      1 <1>        0.000
     20 H          -5.6535   -0.2290    2.3030 H.spc      1 <1>        0.000
     21 H          -4.9883   -2.4520    1.0789 H.spc      1 <1>        0.000
@<TRIPOS>BOND
     1    4    5 1  
     2    9   11 2  
     3    6    7 1  
     4    9   10 1  
     5    7    8 2  
     6    3    4 2  
     7    5    6 2  
     8    8    9 1  
     9    1    2 2  
    10    2    3 1  
    11    1   12 1  
    12    1   13 1  
    13    2   14 1  
    14    3   15 1  
    15    4   16 1  
    16    5   17 1  
    17    6   18 1  
    18    7   19 1  
    19    8   20 1  
    20   10   21 1  
# Name:          frag3-212-7/96164 -- energy: -1.365563
# Creation time: Sat Jun  5 12:53:12 2010


@<TRIPOS>MOLECULE
frag3-212-7/96164 -- energy: -1.365563
   21    20     1     1     1
SMALL
USER_CHARGES


@<TRIPOS>ATOM
      1 C21         2.8003    0.6837    0.5234 C.2        1 <1>        0.000
      2 C22         2.1757    1.8574    0.3828 C.2        1 <1>        0.000
      3 C24         0.7483    2.1110    0.4908 C.2        1 <1>        0.000
      4 C25        -0.1800    1.3025    1.0404 C.2        1 <1>        0.000
      5 C26        -1.6011    1.5575    1.1880 C.2        1 <1>        0.000
      6 C27        -2.5104    0.7736    1.7919 C.2        1 <1>        0.000
      7 C29        -3.9432    0.9772    1.9633 C.2        1 <1>        0.000
      8 C30        -4.9782    0.3567    1.3631 C.2        1 <1>        0.000
      9 C31        -4.8692   -0.7023    0.3503 C.2        1 <1>        0.000
     10 O7         -3.8308   -1.5445    0.3552 O.3        1 <1>        0.000
     11 O8         -5.7383   -0.8118   -0.5041 O.2        1 <1>        0.000
     12 H           2.2262   -0.2162    0.7439 H.spc      1 <1>        0.000
     13 H           3.8836    0.6267    0.4175 H.spc      1 <1>        0.000
     14 H           2.8061    2.7190    0.1630 H.spc      1 <1>        0.000
     15 H           0.3901    3.0565    0.0836 H.spc      1 <1>        0.000
     16 H           0.1788    0.3451    1.4182 H.spc      1 <1>        0.000
     17 H          -1.9725    2.4892    0.7612 H.spc      1 <1>        0.000
     18 H          -2.1184   -0.1508    2.2161 H.spc      1 <1>        0.000
     19 H          -4.2191    1.7463    2.6848 H.spc      1 <1>        0.000
     20 H          -5.9819    0.6669    1.6538 H.spc      1 <1>        0.000
     21 H          -3.2453   -1.3245    1.0835 H.spc      1 <1>        0.000
@<TRIPOS>BOND
     1    4    5 1  
     2    9   11 2  
     3    6    7 1  
     4    9   10 1  
     5    7    8 2  
     6    3    4 2  
     7    5    6 2  
     8    8    9 1  
     9    1    2 2  
    10    2    3 1  
    11    1   12 1  
    12    1   13 1  
    13    2   14 1  
    14    3   15 1  
    15    4   16 1  
    16    5   17 1  
    17    6   18 1  
    18    7   19 1  
    19    8   20 1  
    20   10   21 1  
# Name:          frag3-212-7/96164 -- energy: -2.153609
# Creation time: Sat Jun  5 12:53:12 2010


@<TRIPOS>MOLECULE
frag3-212-7/96164 -- energy: -2.153609
   21    20     1     1     1
SMALL
USER_CHARGES


@<TRIPOS>ATOM
      1 C21         2.6348    1.9846    0.0120 C.2        1 <1>        0.000
      2 C22         1.9577    0.8703    0.3059 C.2        1 <1>        0.000
      3 C24         0.6311    0.7755    0.8808 C.2        1 <1>        0.000
      4 C25        -0.1109    1.7797    1.3920 C.2        1 <1>        0.000
      5 C26        -1.4530    1.7016    1.9265 C.2        1 <1>        0.000
      6 C27        -2.5354    1.1828    1.3129 C.2        1 <1>        0.000
      7 C29        -3.9037    1.0631    1.7865 C.2        1 <1>        0.000
      8 C30        -4.8985    0.2525    1.3745 C.2        1 <1>        0.000
      9 C31        -4.8029   -0.7232    0.2773 C.2        1 <1>        0.000
     10 O7         -3.8121   -1.6226    0.2953 O.3        1 <1>        0.000
     11 O8         -5.6340   -0.7035   -0.6185 O.2        1 <1>        0.000
     12 H           2.1887    2.9603    0.2049 H.spc      1 <1>        0.000
     13 H           3.6331    1.9177   -0.4205 H.spc      1 <1>        0.000
     14 H           2.4597   -0.0726    0.0888 H.spc      1 <1>        0.000
     15 H           0.1826   -0.2177    0.9027 H.spc      1 <1>        0.000
     16 H           0.3553    2.7649    1.4037 H.spc      1 <1>        0.000
     17 H          -1.6045    2.1035    2.9283 H.spc      1 <1>        0.000
     18 H          -2.3572    0.7945    0.3101 H.spc      1 <1>        0.000
     19 H          -4.1672    1.7346    2.6037 H.spc      1 <1>        0.000
     20 H          -5.8523    0.3257    1.8971 H.spc      1 <1>        0.000
     21 H          -3.2656   -1.4795    1.0715 H.spc      1 <1>        0.000
@<TRIPOS>BOND
     1    4    5 1  
     2    9   11 2  
     3    6    7 1  
     4    9   10 1  
     5    7    8 2  
     6    3    4 2  
     7    5    6 2  
     8    8    9 1  
     9    1    2 2  
    10    2    3 1  
    11    1   12 1  
    12    1   13 1  
    13    2   14 1  
    14    3   15 1  
    15    4   16 1  
    16    5   17 1  
    17    6   18 1  
    18    7   19 1  
    19    8   20 1  
    20   10   21 1  
# Name:          frag3-212-7/96164 -- energy: -1.368957
# Creation time: Sat Jun  5 12:53:12 2010


@<TRIPOS>MOLECULE
frag3-212-7/96164 -- energy: -1.368957
   21    20     1     1     1
SMALL
USER_CHARGES


@<TRIPOS>ATOM
      1 C21         2.8324    0.8115    0.0150 C.2        1 <1>        0.000
      2 C22         2.3676    1.8846    0.6618 C.2        1 <1>        0.000
      3 C24         1.0408    2.0730    1.2097 C.2        1 <1>        0.000
      4 C25        -0.0361    1.2802    1.0347 C.2        1 <1>        0.000
      5 C26        -1.3572    1.4328    1.6003 C.2        1 <1>        0.000
      6 C27        -2.4886    0.8096    1.2310 C.2        1 <1>        0.000
      7 C29        -3.8377    0.9301    1.7575 C.2        1 <1>        0.000
      8 C30        -4.9754    0.2949    1.4005 C.2        1 <1>        0.000
      9 C31        -5.0849   -0.6961    0.3196 C.2        1 <1>        0.000
     10 O7         -6.1998   -1.4360    0.2119 O.3        1 <1>        0.000
     11 O8         -4.1882   -0.8236   -0.4970 O.2        1 <1>        0.000
     12 H           2.1844   -0.0497   -0.1479 H.spc      1 <1>        0.000
     13 H           3.8595    0.7974   -0.3496 H.spc      1 <1>        0.000
     14 H           3.0662    2.7112    0.7915 H.spc      1 <1>        0.000
     15 H           0.8960    2.9548    1.8339 H.spc      1 <1>        0.000
     16 H           0.1080    0.4165    0.3856 H.spc      1 <1>        0.000
     17 H          -1.4464    2.1386    2.4261 H.spc      1 <1>        0.000
     18 H          -2.3773    0.1035    0.4081 H.spc      1 <1>        0.000
     19 H          -3.9496    1.6476    2.5703 H.spc      1 <1>        0.000
     20 H          -5.8817    0.5354    1.9563 H.spc      1 <1>        0.000
     21 H          -6.7997   -1.2148    0.9280 H.spc      1 <1>        0.000
@<TRIPOS>BOND
     1    4    5 1  
     2    9   11 2  
     3    6    7 1  
     4    9   10 1  
     5    7    8 2  
     6    3    4 2  
     7    5    6 2  
     8    8    9 1  
     9    1    2 2  
    10    2    3 1  
    11    1   12 1  
    12    1   13 1  
    13    2   14 1  
    14    3   15 1  
    15    4   16 1  
    16    5   17 1  
    17    6   18 1  
    18    7   19 1  
    19    8   20 1  
    20   10   21 1  
# Name:          frag3-212-7/96164 -- energy: -1.276842
# Creation time: Sat Jun  5 12:53:12 2010


@<TRIPOS>MOLECULE
frag3-212-7/96164 -- energy: -1.276842
   21    20     1     1     1
SMALL
USER_CHARGES


@<TRIPOS>ATOM
      1 C21         2.7844    1.1695    0.5528 C.2        1 <1>        0.000
      2 C22         1.7411    1.8357    0.0493 C.2        1 <1>        0.000
      3 C24         0.3416    1.6464    0.3714 C.2        1 <1>        0.000
      4 C25        -0.1779    0.8176    1.3008 C.2        1 <1>        0.000
      5 C26        -1.5720    0.6549    1.6528 C.2        1 <1>        0.000
      6 C27        -2.5748    1.5151    1.3814 C.2        1 <1>        0.000
      7 C29        -3.9889    1.4195    1.7014 C.2        1 <1>        0.000
      8 C30        -4.8928    0.4923    1.3251 C.2        1 <1>        0.000
      9 C31        -4.6234   -0.6495    0.4397 C.2        1 <1>        0.000
     10 O7         -3.6319   -1.5060    0.7108 O.3        1 <1>        0.000
     11 O8         -5.3325   -0.8344   -0.5404 O.2        1 <1>        0.000
     12 H           2.6246    0.3849    1.2924 H.spc      1 <1>        0.000
     13 H           3.7952    1.4107    0.2239 H.spc      1 <1>        0.000
     14 H           1.9686    2.6077   -0.6858 H.spc      1 <1>        0.000
     15 H          -0.3715    2.2397   -0.2009 H.spc      1 <1>        0.000
     16 H           0.5337    0.2002    1.8490 H.spc      1 <1>        0.000
     17 H          -1.8386   -0.2544    2.1915 H.spc      1 <1>        0.000
     18 H          -2.2808    2.4155    0.8420 H.spc      1 <1>        0.000
     19 H          -4.3759    2.2140    2.3394 H.spc      1 <1>        0.000
     20 H          -5.9073    0.5984    1.7094 H.spc      1 <1>        0.000
     21 H          -3.1740   -1.2225    1.5055 H.spc      1 <1>        0.000
@<TRIPOS>BOND
     1    4    5 1  
     2    9   11 2  
     3    6    7 1  
     4    9   10 1  
     5    7    8 2  
     6    3    4 2  
     7    5    6 2  
     8    8    9 1  
     9    1    2 2  
    10    2    3 1  
    11    1   12 1  
    12    1   13 1  
    13    2   14 1  
    14    3   15 1  
    15    4   16 1  
    16    5   17 1  
    17    6   18 1  
    18    7   19 1  
    19    8   20 1  
    20   10   21 1  
# Name:          frag3-212-7/96164 -- energy: -1.983052
# Creation time: Sat Jun  5 12:53:12 2010


@<TRIPOS>MOLECULE
frag3-212-7/96164 -- energy: -1.983052
   21    20     1     1     1
SMALL
USER_CHARGES


@<TRIPOS>ATOM
      1 C21         2.4961    0.9273   -0.6167 C.2        1 <1>        0.000
      2 C22         1.8808    1.4131    0.4645 C.2        1 <1>        0.000
      3 C24         0.4636    1.3922    0.7648 C.2        1 <1>        0.000
      4 C25        -0.1546    1.8352    1.8754 C.2        1 <1>        0.000
      5 C26        -1.5769    1.8392    2.1495 C.2        1 <1>        0.000
      6 C27        -2.4872    0.9554    1.6921 C.2        1 <1>        0.000
      7 C29        -3.9223    0.9014    1.9128 C.2        1 <1>        0.000
      8 C30        -4.8766    0.2024    1.2643 C.2        1 <1>        0.000
      9 C31        -4.6443   -0.6853    0.1141 C.2        1 <1>        0.000
     10 O7         -4.4834   -1.9962    0.3394 O.3        1 <1>        0.000
     11 O8         -4.6223   -0.2236   -1.0151 O.2        1 <1>        0.000
     12 H           1.9159    0.4452   -1.4035 H.spc      1 <1>        0.000
     13 H           3.5785    1.0129   -0.7123 H.spc      1 <1>        0.000
     14 H           2.5221    1.8818    1.2109 H.spc      1 <1>        0.000
     15 H          -0.1814    0.9652   -0.0031 H.spc      1 <1>        0.000
     16 H           0.4888    2.2370    2.6582 H.spc      1 <1>        0.000
     17 H          -1.9495    2.6379    2.7908 H.spc      1 <1>        0.000
     18 H          -2.0857    0.1619    1.0618 H.spc      1 <1>        0.000
     19 H          -4.2849    1.5236    2.7311 H.spc      1 <1>        0.000
     20 H          -5.9017    0.3033    1.6209 H.spc      1 <1>        0.000
     21 H          -4.5311   -2.1658    1.2831 H.spc      1 <1>        0.000
@<TRIPOS>BOND
     1    4    5 1  
     2    9   11 2  
     3    6    7 1  
     4    9   10 1  
     5    7    8 2  
     6    3    4 2  
     7    5    6 2  
     8    8    9 1  
     9    1    2 2  
    10    2    3 1  
    11    1   12 1  
    12    1   13 1  
    13    2   14 1  
    14    3   15 1  
    15    4   16 1  
    16    5   17 1  
    17    6   18 1  
    18    7   19 1  
    19    8   20 1  
    20   10   21 1  
# Name:          frag3-212-7/96164 -- energy: -1.826151
# Creation time: Sat Jun  5 12:53:12 2010


@<TRIPOS>MOLECULE
frag3-212-7/96164 -- energy: -1.826151
   21    20     1     1     1
SMALL
USER_CHARGES


@<TRIPOS>ATOM
      1 C21         3.0747    1.2879   -0.1436 C.2        1 <1>        0.000
      2 C22         2.1004    1.1567    0.7613 C.2        1 <1>        0.000
      3 C24         0.6718    1.3303    0.5578 C.2        1 <1>        0.000
      4 C25        -0.2970    1.3325    1.4905 C.2        1 <1>        0.000
      5 C26        -1.7198    1.5400    1.2893 C.2        1 <1>        0.000
      6 C27        -2.7261    1.0530    2.0359 C.2        1 <1>        0.000
      7 C29        -4.1654    1.2171    1.8727 C.2        1 <1>        0.000
      8 C30        -5.0340    0.5121    1.1145 C.2        1 <1>        0.000
      9 C31        -4.6779   -0.6225    0.2514 C.2        1 <1>        0.000
     10 O7         -5.6049   -1.1641   -0.5537 O.3        1 <1>        0.000
     11 O8         -3.5489   -1.0819    0.2689 O.2        1 <1>        0.000
     12 H           2.8311    1.5551   -1.1719 H.spc      1 <1>        0.000
     13 H           4.1131    1.1277    0.1465 H.spc      1 <1>        0.000
     14 H           2.4136    0.8880    1.7702 H.spc      1 <1>        0.000
     15 H           0.3473    1.4759   -0.4725 H.spc      1 <1>        0.000
     16 H           0.0234    1.1581    2.5176 H.spc      1 <1>        0.000
     17 H          -2.0036    2.1594    0.4385 H.spc      1 <1>        0.000
     18 H          -2.4210    0.4463    2.8885 H.spc      1 <1>        0.000
     19 H          -4.6072    2.0303    2.4485 H.spc      1 <1>        0.000
     20 H          -6.0824    0.8088    1.1457 H.spc      1 <1>        0.000
     21 H          -6.4336   -0.6908   -0.4494 H.spc      1 <1>        0.000
@<TRIPOS>BOND
     1    4    5 1  
     2    9   11 2  
     3    6    7 1  
     4    9   10 1  
     5    7    8 2  
     6    3    4 2  
     7    5    6 2  
     8    8    9 1  
     9    1    2 2  
    10    2    3 1  
    11    1   12 1  
    12    1   13 1  
    13    2   14 1  
    14    3   15 1  
    15    4   16 1  
    16    5   17 1  
    17    6   18 1  
    18    7   19 1  
    19    8   20 1  
    20   10   21 1  
# Name:          frag3-212-7/96164 -- energy: -1.857144
# Creation time: Sat Jun  5 12:53:12 2010


@<TRIPOS>MOLECULE
frag3-212-7/96164 -- energy: -1.857144
   21    20     1     1     1
SMALL
USER_CHARGES


@<TRIPOS>ATOM
      1 C21         3.2391    1.7210    1.2129 C.2        1 <1>        0.000
      2 C22         2.1824    1.2513    0.5431 C.2        1 <1>        0.000
      3 C24         0.7819    1.5845    0.7509 C.2        1 <1>        0.000
      4 C25        -0.2922    0.9980    0.1935 C.2        1 <1>        0.000
      5 C26        -1.6909    1.3055    0.4385 C.2        1 <1>        0.000
      6 C27        -2.4173    0.9409    1.5126 C.2        1 <1>        0.000
      7 C29        -3.8169    1.2153    1.8189 C.2        1 <1>        0.000
      8 C30        -4.9292    0.5480    1.4400 C.2        1 <1>        0.000
      9 C31        -4.9509   -0.6510    0.5919 C.2        1 <1>        0.000
     10 O7         -6.1236   -1.1886    0.2231 O.3        1 <1>        0.000
     11 O8         -3.9092   -1.1638    0.2195 O.2        1 <1>        0.000
     12 H           3.0973    2.4402    2.0196 H.spc      1 <1>        0.000
     13 H           4.2428    1.3850    0.9525 H.spc      1 <1>        0.000
     14 H           2.3946    0.5355   -0.2510 H.spc      1 <1>        0.000
     15 H           0.5793    2.4054    1.4387 H.spc      1 <1>        0.000
     16 H          -0.0907    0.2018   -0.5232 H.spc      1 <1>        0.000
     17 H          -2.2045    1.8906   -0.3243 H.spc      1 <1>        0.000
     18 H          -1.8821    0.3564    2.2610 H.spc      1 <1>        0.000
     19 H          -3.9915    2.0888    2.4470 H.spc      1 <1>        0.000
     20 H          -5.8873    0.9303    1.7921 H.spc      1 <1>        0.000
     21 H          -6.8422   -0.6720    0.5951 H.spc      1 <1>        0.000
@<TRIPOS>BOND
     1    4    5 1  
     2    9   11 2  
     3    6    7 1  
     4    9   10 1  
     5    7    8 2  
     6    3    4 2  
     7    5    6 2  
     8    8    9 1  
     9    1    2 2  
    10    2    3 1  
    11    1   12 1  
    12    1   13 1  
    13    2   14 1  
    14    3   15 1  
    15    4   16 1  
    16    5   17 1  
    17    6   18 1  
    18    7   19 1  
    19    8   20 1  
    20   10   21 1  
# Name:          frag3-212-7/96164 -- energy: -2.290493
# Creation time: Sat Jun  5 12:53:12 2010


@<TRIPOS>MOLECULE
frag3-212-7/96164 -- energy: -2.290493
   21    20     1     1     1
SMALL
USER_CHARGES


@<TRIPOS>ATOM
      1 C21         2.7940    0.9901    0.9687 C.2        1 <1>        0.000
      2 C22         1.8740    1.8005    0.4359 C.2        1 <1>        0.000
      3 C24         0.4358    1.7143    0.5891 C.2        1 <1>        0.000
      4 C25        -0.2931    0.6088    0.8463 C.2        1 <1>        0.000
      5 C26        -1.7239    0.5263    1.0434 C.2        1 <1>        0.000
      6 C27        -2.5320    1.5074    1.4944 C.2        1 <1>        0.000
      7 C29        -3.9685    1.4963    1.7163 C.2        1 <1>        0.000
      8 C30        -4.8932    0.6101    1.2879 C.2        1 <1>        0.000
      9 C31        -4.6186   -0.5704    0.4564 C.2        1 <1>        0.000
     10 O7         -4.4706   -0.4486   -0.8692 O.3        1 <1>        0.000
     11 O8         -4.5308   -1.6738    0.9760 O.2        1 <1>        0.000
     12 H           2.4859    0.1544    1.5971 H.spc      1 <1>        0.000
     13 H           3.8523    1.1650    0.7748 H.spc      1 <1>        0.000
     14 H           2.2473    2.6168   -0.1825 H.spc      1 <1>        0.000
     15 H          -0.1190    2.6467    0.4849 H.spc      1 <1>        0.000
     16 H           0.2586   -0.3289    0.9132 H.spc      1 <1>        0.000
     17 H          -2.1970   -0.4258    0.8029 H.spc      1 <1>        0.000
     18 H          -2.0338    2.4486    1.7271 H.spc      1 <1>        0.000
     19 H          -4.3548    2.3217    2.3143 H.spc      1 <1>        0.000
     20 H          -5.9279    0.7846    1.5829 H.spc      1 <1>        0.000
     21 H          -4.5671    0.4737   -1.1174 H.spc      1 <1>        0.000
@<TRIPOS>BOND
     1    4    5 1  
     2    9   11 2  
     3    6    7 1  
     4    9   10 1  
     5    7    8 2  
     6    3    4 2  
     7    5    6 2  
     8    8    9 1  
     9    1    2 2  
    10    2    3 1  
    11    1   12 1  
    12    1   13 1  
    13    2   14 1  
    14    3   15 1  
    15    4   16 1  
    16    5   17 1  
    17    6   18 1  
    18    7   19 1  
    19    8   20 1  
    20   10   21 1  
# Name:          frag3-212-7/96164 -- energy: -2.021244
# Creation time: Sat Jun  5 12:53:12 2010


@<TRIPOS>MOLECULE
frag3-212-7/96164 -- energy: -2.021244
   21    20     1     1     1
SMALL
USER_CHARGES


@<TRIPOS>ATOM
      1 C21         2.9406    0.6420    0.5077 C.2        1 <1>        0.000
      2 C22         2.3272    1.8229    0.6410 C.2        1 <1>        0.000
      3 C24         0.9786    2.0620    1.1268 C.2        1 <1>        0.000
      4 C25        -0.1423    1.4045    0.7701 C.2        1 <1>        0.000
      5 C26        -1.4857    1.6027    1.2820 C.2        1 <1>        0.000
      6 C27        -2.4620    0.6829    1.3812 C.2        1 <1>        0.000
      7 C29        -3.8218    0.8254    1.8843 C.2        1 <1>        0.000
      8 C30        -4.9665    0.2602    1.4513 C.2        1 <1>        0.000
      9 C31        -5.0859   -0.6603    0.3121 C.2        1 <1>        0.000
     10 O7         -4.4076   -0.4334   -0.8179 O.3        1 <1>        0.000
     11 O8         -5.8015   -1.6477    0.4065 O.2        1 <1>        0.000
     12 H           2.4195   -0.2764    0.7781 H.spc      1 <1>        0.000
     13 H           3.9616    0.5979    0.1287 H.spc      1 <1>        0.000
     14 H           2.9022    2.7031    0.3536 H.spc      1 <1>        0.000
     15 H           0.8609    2.8602    1.8596 H.spc      1 <1>        0.000
     16 H          -0.0264    0.6338    0.0081 H.spc      1 <1>        0.000
     17 H          -1.7306    2.6083    1.6239 H.spc      1 <1>        0.000
     18 H          -2.1969   -0.3158    1.0342 H.spc      1 <1>        0.000
     19 H          -3.9301    1.4902    2.7413 H.spc      1 <1>        0.000
     20 H          -5.8804    0.5067    1.9917 H.spc      1 <1>        0.000
     21 H          -3.8990    0.3757   -0.7275 H.spc      1 <1>        0.000
@<TRIPOS>BOND
     1    4    5 1  
     2    9   11 2  
     3    6    7 1  
     4    9   10 1  
     5    7    8 2  
     6    3    4 2  
     7    5    6 2  
     8    8    9 1  
     9    1    2 2  
    10    2    3 1  
    11    1   12 1  
    12    1   13 1  
    13    2   14 1  
    14    3   15 1  
    15    4   16 1  
    16    5   17 1  
    17    6   18 1  
    18    7   19 1  
    19    8   20 1  
    20   10   21 1  
# Name:          frag3-212-7/96164 -- energy: -2.297532
# Creation time: Sat Jun  5 12:53:12 2010


@<TRIPOS>MOLECULE
frag3-212-7/96164 -- energy: -2.297532
   21    20     1     1     1
SMALL
USER_CHARGES


@<TRIPOS>ATOM
      1 C21         2.7116    1.9101   -0.1046 C.2        1 <1>        0.000
      2 C22         1.9334    1.1987    0.7152 C.2        1 <1>        0.000
      3 C24         0.4872    1.1374    0.7369 C.2        1 <1>        0.000
      4 C25        -0.3056    0.5779    1.6682 C.2        1 <1>        0.000
      5 C26        -1.7522    0.5613    1.7011 C.2        1 <1>        0.000
      6 C27        -2.5775    1.5838    1.3979 C.2        1 <1>        0.000
      7 C29        -4.0293    1.6369    1.4050 C.2        1 <1>        0.000
      8 C30        -4.9230    0.7211    0.9742 C.2        1 <1>        0.000
      9 C31        -4.5841   -0.5726    0.3594 C.2        1 <1>        0.000
     10 O7         -4.4663   -0.6376   -0.9734 O.3        1 <1>        0.000
     11 O8         -4.4213   -1.5560    1.0652 O.2        1 <1>        0.000
     12 H           2.2623    2.5407   -0.8718 H.spc      1 <1>        0.000
     13 H           3.7960    1.8601   -0.0065 H.spc      1 <1>        0.000
     14 H           2.4498    0.5906    1.4579 H.spc      1 <1>        0.000
     15 H          -0.0227    1.6027   -0.1067 H.spc      1 <1>        0.000
     16 H           0.2005    0.0788    2.4945 H.spc      1 <1>        0.000
     17 H          -2.2235   -0.3743    2.0020 H.spc      1 <1>        0.000
     18 H          -2.0812    2.5085    1.1035 H.spc      1 <1>        0.000
     19 H          -4.4598    2.5490    1.8184 H.spc      1 <1>        0.000
     20 H          -5.9803    0.9589    1.0911 H.spc      1 <1>        0.000
     21 H          -4.6290    0.2301   -1.3506 H.spc      1 <1>        0.000
@<TRIPOS>BOND
     1    4    5 1  
     2    9   11 2  
     3    6    7 1  
     4    9   10 1  
     5    7    8 2  
     6    3    4 2  
     7    5    6 2  
     8    8    9 1  
     9    1    2 2  
    10    2    3 1  
    11    1   12 1  
    12    1   13 1  
    13    2   14 1  
    14    3   15 1  
    15    4   16 1  
    16    5   17 1  
    17    6   18 1  
    18    7   19 1  
    19    8   20 1  
    20   10   21 1  
# Name:          frag3-212-7/96164 -- energy: -1.447981
# Creation time: Sat Jun  5 12:53:12 2010


@<TRIPOS>MOLECULE
frag3-212-7/96164 -- energy: -1.447981
   21    20     1     1     1
SMALL
USER_CHARGES


@<TRIPOS>ATOM
      1 C21         2.8878    1.1118    0.4189 C.2        1 <1>        0.000
      2 C22         1.7074    1.4822   -0.0848 C.2        1 <1>        0.000
      3 C24         0.3890    1.1722    0.4399 C.2        1 <1>        0.000
      4 C25        -0.1433    1.5898    1.6055 C.2        1 <1>        0.000
      5 C26        -1.4739    1.3100    2.1141 C.2        1 <1>        0.000
      6 C27        -2.6280    1.3815    1.4215 C.2        1 <1>        0.000
      7 C29        -3.9896    1.1119    1.8627 C.2        1 <1>        0.000
      8 C30        -4.8904    0.2277    1.3909 C.2        1 <1>        0.000
      9 C31        -4.6832   -0.6784    0.2532 C.2        1 <1>        0.000
     10 O7         -3.4533   -1.0725   -0.0918 O.3        1 <1>        0.000
     11 O8         -5.6494   -1.0753   -0.3850 O.2        1 <1>        0.000
     12 H           2.9282    0.5074    1.3251 H.spc      1 <1>        0.000
     13 H           3.8106    1.4139   -0.0763 H.spc      1 <1>        0.000
     14 H           1.7369    2.0853   -0.9923 H.spc      1 <1>        0.000
     15 H          -0.2397    0.5306   -0.1776 H.spc      1 <1>        0.000
     16 H           0.4966    2.2064    2.2367 H.spc      1 <1>        0.000
     17 H          -1.5469    1.0125    3.1602 H.spc      1 <1>        0.000
     18 H          -2.5277    1.6853    0.3795 H.spc      1 <1>        0.000
     19 H          -4.3320    1.7173    2.7020 H.spc      1 <1>        0.000
     20 H          -5.8549    0.1808    1.8964 H.spc      1 <1>        0.000
     21 H          -2.8127   -0.6759    0.5031 H.spc      1 <1>        0.000
@<TRIPOS>BOND
     1    4    5 1  
     2    9   11 2  
     3    6    7 1  
     4    9   10 1  
     5    7    8 2  
     6    3    4 2  
     7    5    6 2  
     8    8    9 1  
     9    1    2 2  
    10    2    3 1  
    11    1   12 1  
    12    1   13 1  
    13    2   14 1  
    14    3   15 1  
    15    4   16 1  
    16    5   17 1  
    17    6   18 1  
    18    7   19 1  
    19    8   20 1  
    20   10   21 1  
# Name:          frag3-212-7/96164 -- energy: -2.182058
# Creation time: Sat Jun  5 12:53:12 2010


@<TRIPOS>MOLECULE
frag3-212-7/96164 -- energy: -2.182058
   21    20     1     1     1
SMALL
USER_CHARGES


@<TRIPOS>ATOM
      1 C21         2.9350    2.2372    0.7062 C.2        1 <1>        0.000
      2 C22         2.0451    1.2428    0.6606 C.2        1 <1>        0.000
      3 C24         0.6253    1.3068    0.9313 C.2        1 <1>        0.000
      4 C25        -0.2880    0.3264    0.8135 C.2        1 <1>        0.000
      5 C26        -1.6997    0.3963    1.1203 C.2        1 <1>        0.000
      6 C27        -2.4858    1.4897    1.0615 C.2        1 <1>        0.000
      7 C29        -3.8992    1.6341    1.3629 C.2        1 <1>        0.000
      8 C30        -4.9099    0.7584    1.1735 C.2        1 <1>        0.000
      9 C31        -4.7722   -0.5795    0.5745 C.2        1 <1>        0.000
     10 O7         -5.0968   -0.7372   -0.7157 O.3        1 <1>        0.000
     11 O8         -4.3808   -1.5140    1.2566 O.2        1 <1>        0.000
     12 H           2.6141    3.2439    0.9739 H.spc      1 <1>        0.000
     13 H           3.9824    2.0423    0.4758 H.spc      1 <1>        0.000
     14 H           2.4361    0.2631    0.3859 H.spc      1 <1>        0.000
     15 H           0.2484    2.2705    1.2737 H.spc      1 <1>        0.000
     16 H           0.0781   -0.6315    0.4441 H.spc      1 <1>        0.000
     17 H          -2.1780   -0.5324    1.4316 H.spc      1 <1>        0.000
     18 H          -1.9854    2.4029    0.7393 H.spc      1 <1>        0.000
     19 H          -4.1859    2.5876    1.8063 H.spc      1 <1>        0.000
     20 H          -5.9066    1.0666    1.4892 H.spc      1 <1>        0.000
     21 H          -5.3796    0.1053   -1.0786 H.spc      1 <1>        0.000
@<TRIPOS>BOND
     1    4    5 1  
     2    9   11 2  
     3    6    7 1  
     4    9   10 1  
     5    7    8 2  
     6    3    4 2  
     7    5    6 2  
     8    8    9 1  
     9    1    2 2  
    10    2    3 1  
    11    1   12 1  
    12    1   13 1  
    13    2   14 1  
    14    3   15 1  
    15    4   16 1  
    16    5   17 1  
    17    6   18 1  
    18    7   19 1  
    19    8   20 1  
    20   10   21 1  
# Name:          frag3-212-7/96164 -- energy: -2.162529
# Creation time: Sat Jun  5 12:53:12 2010


@<TRIPOS>MOLECULE
frag3-212-7/96164 -- energy: -2.162529
   21    20     1     1     1
SMALL
USER_CHARGES


@<TRIPOS>ATOM
      1 C21         2.8373    1.6522    0.6351 C.2        1 <1>        0.000
      2 C22         1.8213    1.0146    0.0450 C.2        1 <1>        0.000
      3 C24         0.4408    0.9709    0.4835 C.2        1 <1>        0.000
      4 C25        -0.0517    1.3796    1.6716 C.2        1 <1>        0.000
      5 C26        -1.4360    1.3767    2.0978 C.2        1 <1>        0.000
      6 C27        -2.5197    1.2668    1.3028 C.2        1 <1>        0.000
      7 C29        -3.9304    1.2563    1.6521 C.2        1 <1>        0.000
      8 C30        -4.9233    0.4497    1.2262 C.2        1 <1>        0.000
      9 C31        -4.7753   -0.6377    0.2494 C.2        1 <1>        0.000
     10 O7         -4.2950   -0.3907   -0.9756 O.3        1 <1>        0.000
     11 O8         -5.0949   -1.7774    0.5572 O.2        1 <1>        0.000
     12 H           2.6672    2.2184    1.5509 H.spc      1 <1>        0.000
     13 H           3.8358    1.6059    0.2005 H.spc      1 <1>        0.000
     14 H           2.0575    0.4668   -0.8673 H.spc      1 <1>        0.000
     15 H          -0.2799    0.5626   -0.2250 H.spc      1 <1>        0.000
     16 H           0.6749    1.7545    2.3925 H.spc      1 <1>        0.000
     17 H          -1.6202    1.4729    3.1678 H.spc      1 <1>        0.000
     18 H          -2.3054    1.1715    0.2383 H.spc      1 <1>        0.000
     19 H          -4.2327    2.0189    2.3698 H.spc      1 <1>        0.000
     20 H          -5.9173    0.6182    1.6406 H.spc      1 <1>        0.000
     21 H          -4.0936    0.5444   -1.0566 H.spc      1 <1>        0.000
@<TRIPOS>BOND
     1    4    5 1  
     2    9   11 2  
     3    6    7 1  
     4    9   10 1  
     5    7    8 2  
     6    3    4 2  
     7    5    6 2  
     8    8    9 1  
     9    1    2 2  
    10    2    3 1  
    11    1   12 1  
    12    1   13 1  
    13    2   14 1  
    14    3   15 1  
    15    4   16 1  
    16    5   17 1  
    17    6   18 1  
    18    7   19 1  
    19    8   20 1  
    20   10   21 1  
# Name:          frag3-212-7/96164 -- energy: -2.073563
# Creation time: Sat Jun  5 12:53:12 2010


@<TRIPOS>MOLECULE
frag3-212-7/96164 -- energy: -2.073563
   21    20     1     1     1
SMALL
USER_CHARGES


@<TRIPOS>ATOM
      1 C21         2.6130    1.5884   -0.2212 C.2        1 <1>        0.000
      2 C22         2.1838    0.8746    0.8244 C.2        1 <1>        0.000
      3 C24         0.8557    0.8809    1.4053 C.2        1 <1>        0.000
      4 C25        -0.1211    1.7878    1.1981 C.2        1 <1>        0.000
      5 C26        -1.4645    1.7797    1.7356 C.2        1 <1>        0.000
      6 C27        -2.5113    1.0593    1.2875 C.2        1 <1>        0.000
      7 C29        -3.8771    0.9978    1.7810 C.2        1 <1>        0.000
      8 C30        -4.9268    0.2707    1.3484 C.2        1 <1>        0.000
      9 C31        -4.9039   -0.6588    0.2079 C.2        1 <1>        0.000
     10 O7         -4.6159   -0.1796   -1.0086 O.3        1 <1>        0.000
     11 O8         -5.1590   -1.8398    0.3869 O.2        1 <1>        0.000
     12 H           1.9320    2.2678   -0.7337 H.spc      1 <1>        0.000
     13 H           3.6440    1.4910   -0.5613 H.spc      1 <1>        0.000
     14 H           2.9139    0.2142    1.2923 H.spc      1 <1>        0.000
     15 H           0.6202    0.0619    2.0850 H.spc      1 <1>        0.000
     16 H           0.1315    2.6261    0.5488 H.spc      1 <1>        0.000
     17 H          -1.6493    2.4250    2.5944 H.spc      1 <1>        0.000
     18 H          -2.3023    0.4271    0.4245 H.spc      1 <1>        0.000
     19 H          -4.0856    1.6411    2.6358 H.spc      1 <1>        0.000
     20 H          -5.8682    0.3802    1.8868 H.spc      1 <1>        0.000
     21 H          -4.4451    0.7631   -0.9478 H.spc      1 <1>        0.000
@<TRIPOS>BOND
     1    4    5 1  
     2    9   11 2  
     3    6    7 1  
     4    9   10 1  
     5    7    8 2  
     6    3    4 2  
     7    5    6 2  
     8    8    9 1  
     9    1    2 2  
    10    2    3 1  
    11    1   12 1  
    12    1   13 1  
    13    2   14 1  
    14    3   15 1  
    15    4   16 1  
    16    5   17 1  
    17    6   18 1  
    18    7   19 1  
    19    8   20 1  
    20   10   21 1  
# Name:          frag3-212-7/96164 -- energy: -2.047999
# Creation time: Sat Jun  5 12:53:12 2010


@<TRIPOS>MOLECULE
frag3-212-7/96164 -- energy: -2.047999
   21    20     1     1     1
SMALL
USER_CHARGES


@<TRIPOS>ATOM
      1 C21         2.5553    1.4516   -0.6157 C.2        1 <1>        0.000
      2 C22         1.8359    1.4835    0.5088 C.2        1 <1>        0.000
      3 C24         0.4133    1.2570    0.6607 C.2        1 <1>        0.000
      4 C25        -0.2603    0.9455    1.7825 C.2        1 <1>        0.000
      5 C26        -1.6880    0.7592    1.9318 C.2        1 <1>        0.000
      6 C27        -2.6576    1.6017    1.5219 C.2        1 <1>        0.000
      7 C29        -4.1012    1.4767    1.6339 C.2        1 <1>        0.000
      8 C30        -4.9194    0.5219    1.1471 C.2        1 <1>        0.000
      9 C31        -4.4964   -0.6269    0.3325 C.2        1 <1>        0.000
     10 O7         -3.6505   -1.5356    0.8322 O.3        1 <1>        0.000
     11 O8         -4.9581   -0.7735   -0.7907 O.2        1 <1>        0.000
     12 H           2.0700    1.2341   -1.5672 H.spc      1 <1>        0.000
     13 H           3.6278    1.6431   -0.5822 H.spc      1 <1>        0.000
     14 H           2.3857    1.7070    1.4230 H.spc      1 <1>        0.000
     15 H          -0.1850    1.3505   -0.2456 H.spc      1 <1>        0.000
     16 H           0.3387    0.8186    2.6842 H.spc      1 <1>        0.000
     17 H          -2.0126   -0.1563    2.4264 H.spc      1 <1>        0.000
     18 H          -2.3068    2.5113    1.0343 H.spc      1 <1>        0.000
     19 H          -4.5948    2.2713    2.1934 H.spc      1 <1>        0.000
     20 H          -5.9815    0.6087    1.3762 H.spc      1 <1>        0.000
     21 H          -3.3848   -1.2718    1.7162 H.spc      1 <1>        0.000
@<TRIPOS>BOND
     1    4    5 1  
     2    9   11 2  
     3    6    7 1  
     4    9   10 1  
     5    7    8 2  
     6    3    4 2  
     7    5    6 2  
     8    8    9 1  
     9    1    2 2  
    10    2    3 1  
    11    1   12 1  
    12    1   13 1  
    13    2   14 1  
    14    3   15 1  
    15    4   16 1  
    16    5   17 1  
    17    6   18 1  
    18    7   19 1  
    19    8   20 1  
    20   10   21 1  
# Name:          frag3-212-7/96164 -- energy: -0.079905
# Creation time: Sat Jun  5 12:53:12 2010


@<TRIPOS>MOLECULE
frag3-212-7/96164 -- energy: -0.079905
   21    20     1     1     1
SMALL
USER_CHARGES


@<TRIPOS>ATOM
      1 C21         2.8277    0.5057    0.1999 C.2        1 <1>        0.000
      2 C22         1.8921    1.4411    0.3833 C.2        1 <1>        0.000
      3 C24         0.5579    1.2689    0.9224 C.2        1 <1>        0.000
      4 C25        -0.3681    2.2162    1.1579 C.2        1 <1>        0.000
      5 C26        -1.7136    2.0259    1.6626 C.2        1 <1>        0.000
      6 C27        -2.4235    0.8801    1.6421 C.2        1 <1>        0.000
      7 C29        -3.7709    0.6143    2.1196 C.2        1 <1>        0.000
      8 C30        -4.7874   -0.0349    1.5195 C.2        1 <1>        0.000
      9 C31        -4.7450   -0.6338    0.1773 C.2        1 <1>        0.000
     10 O7         -3.7979   -0.2730   -0.6950 O.3        1 <1>        0.000
     11 O8         -5.5983   -1.4494   -0.1444 O.2        1 <1>        0.000
     12 H           2.6225   -0.5305    0.4689 H.spc      1 <1>        0.000
     13 H           3.7964    0.7785   -0.2188 H.spc      1 <1>        0.000
     14 H           2.1647    2.4556    0.0927 H.spc      1 <1>        0.000
     15 H           0.2692    0.2467    1.1671 H.spc      1 <1>        0.000
     16 H          -0.0730    3.2436    0.9449 H.spc      1 <1>        0.000
     17 H          -2.2000    2.8964    2.1027 H.spc      1 <1>        0.000
     18 H          -1.9107    0.0250    1.2017 H.spc      1 <1>        0.000
     19 H          -3.9923    0.9991    3.1151 H.spc      1 <1>        0.000
     20 H          -5.7203   -0.1237    2.0761 H.spc      1 <1>        0.000
     21 H          -3.2143    0.3692   -0.2845 H.spc      1 <1>        0.000
@<TRIPOS>BOND
     1    4    5 1  
     2    9   11 2  
     3    6    7 1  
     4    9   10 1  
     5    7    8 2  
     6    3    4 2  
     7    5    6 2  
     8    8    9 1  
     9    1    2 2  
    10    2    3 1  
    11    1   12 1  
    12    1   13 1  
    13    2   14 1  
    14    3   15 1  
    15    4   16 1  
    16    5   17 1  
    17    6   18 1  
    18    7   19 1  
    19    8   20 1  
    20   10   21 1  
# Name:          frag3-212-7/96164 -- energy: 0.303020
# Creation time: Sat Jun  5 12:53:12 2010


@<TRIPOS>MOLECULE
frag3-212-7/96164 -- energy: 0.303020
   21    20     1     1     1
SMALL
USER_CHARGES


@<TRIPOS>ATOM
      1 C21         2.5953    1.5741   -0.2626 C.2        1 <1>        0.000
      2 C22         2.1451    1.5548    0.9950 C.2        1 <1>        0.000
      3 C24         0.7649    1.4888    1.4337 C.2        1 <1>        0.000
      4 C25        -0.2124    0.7043    0.9378 C.2        1 <1>        0.000
      5 C26        -1.5855    0.6142    1.3866 C.2        1 <1>        0.000
      6 C27        -2.5822    1.4808    1.1262 C.2        1 <1>        0.000
      7 C29        -3.9716    1.4532    1.5552 C.2        1 <1>        0.000
      8 C30        -4.9379    0.5532    1.2817 C.2        1 <1>        0.000
      9 C31        -4.7833   -0.6325    0.4240 C.2        1 <1>        0.000
     10 O7         -3.7499   -0.6977   -0.4222 O.3        1 <1>        0.000
     11 O8         -5.6095   -1.5321    0.4896 O.2        1 <1>        0.000
     12 H           1.8914    1.5383   -1.0941 H.spc      1 <1>        0.000
     13 H           3.6665    1.6256   -0.4573 H.spc      1 <1>        0.000
     14 H           2.9006    1.5930    1.7797 H.spc      1 <1>        0.000
     15 H           0.4865    2.1472    2.2565 H.spc      1 <1>        0.000
     16 H           0.0635    0.0627    0.1009 H.spc      1 <1>        0.000
     17 H          -1.8401   -0.2487    2.0020 H.spc      1 <1>        0.000
     18 H          -2.3069    2.3298    0.5005 H.spc      1 <1>        0.000
     19 H          -4.2772    2.2831    2.1923 H.spc      1 <1>        0.000
     20 H          -5.9158    0.7179    1.7341 H.spc      1 <1>        0.000
     21 H          -3.2135    0.0933   -0.3320 H.spc      1 <1>        0.000
@<TRIPOS>BOND
     1    4    5 1  
     2    9   11 2  
     3    6    7 1  
     4    9   10 1  
     5    7    8 2  
     6    3    4 2  
     7    5    6 2  
     8    8    9 1  
     9    1    2 2  
    10    2    3 1  
    11    1   12 1  
    12    1   13 1  
    13    2   14 1  
    14    3   15 1  
    15    4   16 1  
    16    5   17 1  
    17    6   18 1  
    18    7   19 1  
    19    8   20 1  
    20   10   21 1  
# Name:          frag3-212-7/96164 -- energy: -1.811183
# Creation time: Sat Jun  5 12:53:12 2010


@<TRIPOS>MOLECULE
frag3-212-7/96164 -- energy: -1.811183
   21    20     1     1     1
SMALL
USER_CHARGES


@<TRIPOS>ATOM
      1 C21         3.5884    1.8118    0.7854 C.2        1 <1>        0.000
      2 C22         2.4019    1.2839    0.4715 C.2        1 <1>        0.000
      3 C24         1.1053    1.6169    1.0366 C.2        1 <1>        0.000
      4 C25        -0.0875    1.0738    0.7352 C.2        1 <1>        0.000
      5 C26        -1.3771    1.3805    1.3257 C.2        1 <1>        0.000
      6 C27        -2.5595    0.8045    1.0457 C.2        1 <1>        0.000
      7 C29        -3.8782    1.0732    1.6034 C.2        1 <1>        0.000
      8 C30        -5.0584    0.4562    1.3809 C.2        1 <1>        0.000
      9 C31        -5.2624   -0.6742    0.4636 C.2        1 <1>        0.000
     10 O7         -6.2145   -0.5833   -0.4762 O.3        1 <1>        0.000
     11 O8         -4.5850   -1.6822    0.5733 O.2        1 <1>        0.000
     12 H           3.6551    2.5878    1.5479 H.spc      1 <1>        0.000
     13 H           4.4897    1.4665    0.2790 H.spc      1 <1>        0.000
     14 H           2.4071    0.5129   -0.2990 H.spc      1 <1>        0.000
     15 H           1.0987    2.3999    1.7949 H.spc      1 <1>        0.000
     16 H          -0.0854    0.3129   -0.0453 H.spc      1 <1>        0.000
     17 H          -1.3886    2.1661    2.0812 H.spc      1 <1>        0.000
     18 H          -2.5263    0.0203    0.2893 H.spc      1 <1>        0.000
     19 H          -3.9184    1.9016    2.3107 H.spc      1 <1>        0.000
     20 H          -5.9283    0.8253    1.9242 H.spc      1 <1>        0.000
     21 H          -6.6423    0.2739   -0.4148 H.spc      1 <1>        0.000
@<TRIPOS>BOND
     1    4    5 1  
     2    9   11 2  
     3    6    7 1  
     4    9   10 1  
     5    7    8 2  
     6    3    4 2  
     7    5    6 2  
     8    8    9 1  
     9    1    2 2  
    10    2    3 1  
    11    1   12 1  
    12    1   13 1  
    13    2   14 1  
    14    3   15 1  
    15    4   16 1  
    16    5   17 1  
    17    6   18 1  
    18    7   19 1  
    19    8   20 1  
    20   10   21 1  
# Name:          frag3-212-7/96164 -- energy: -2.361052
# Creation time: Sat Jun  5 12:53:12 2010


@<TRIPOS>MOLECULE
frag3-212-7/96164 -- energy: -2.361052
   21    20     1     1     1
SMALL
USER_CHARGES


@<TRIPOS>ATOM
      1 C21         3.0317    1.7981    1.3274 C.2        1 <1>        0.000
      2 C22         2.0435    1.1949    0.6622 C.2        1 <1>        0.000
      3 C24         0.6177    1.3731    0.8336 C.2        1 <1>        0.000
      4 C25        -0.3799    0.8269    0.1154 C.2        1 <1>        0.000
      5 C26        -1.8035    0.9827    0.3226 C.2        1 <1>        0.000
      6 C27        -2.4256    1.2176    1.4954 C.2        1 <1>        0.000
      7 C29        -3.8407    1.3813    1.7784 C.2        1 <1>        0.000
      8 C30        -4.8838    0.6089    1.4067 C.2        1 <1>        0.000
      9 C31        -4.7864   -0.6159    0.5961 C.2        1 <1>        0.000
     10 O7         -4.6211   -0.4986   -0.7282 O.3        1 <1>        0.000
     11 O8         -4.8789   -1.7080    1.1356 O.2        1 <1>        0.000
     12 H           2.8003    2.5239    2.1070 H.spc      1 <1>        0.000
     13 H           4.0698    1.5647    1.0908 H.spc      1 <1>        0.000
     14 H           2.3479    0.4812   -0.1033 H.spc      1 <1>        0.000
     15 H           0.3141    2.0326    1.6466 H.spc      1 <1>        0.000
     16 H          -0.0812    0.1933   -0.7197 H.spc      1 <1>        0.000
     17 H          -2.4380    0.9019   -0.5600 H.spc      1 <1>        0.000
     18 H          -1.7679    1.2965    2.3610 H.spc      1 <1>        0.000
     19 H          -4.0979    2.2545    2.3779 H.spc      1 <1>        0.000
     20 H          -5.8772    0.9168    1.7329 H.spc      1 <1>        0.000
     21 H          -4.5700    0.4311   -0.9621 H.spc      1 <1>        0.000
@<TRIPOS>BOND
     1    4    5 1  
     2    9   11 2  
     3    6    7 1  
     4    9   10 1  
     5    7    8 2  
     6    3    4 2  
     7    5    6 2  
     8    8    9 1  
     9    1    2 2  
    10    2    3 1  
    11    1   12 1  
    12    1   13 1  
    13    2   14 1  
    14    3   15 1  
    15    4   16 1  
    16    5   17 1  
    17    6   18 1  
    18    7   19 1  
    19    8   20 1  
    20   10   21 1  
# Name:          frag3-212-7/96164 -- energy: -1.661683
# Creation time: Sat Jun  5 12:53:12 2010


@<TRIPOS>MOLECULE
frag3-212-7/96164 -- energy: -1.661683
   21    20     1     1     1
SMALL
USER_CHARGES


@<TRIPOS>ATOM
      1 C21         3.5174    2.0291    0.4983 C.2        1 <1>        0.000
      2 C22         2.3799    1.3368    0.3893 C.2        1 <1>        0.000
      3 C24         1.0614    1.7162    0.8669 C.2        1 <1>        0.000
      4 C25        -0.0526    0.9630    0.8935 C.2        1 <1>        0.000
      5 C26        -1.3603    1.3317    1.4025 C.2        1 <1>        0.000
      6 C27        -2.5451    0.7870    1.0756 C.2        1 <1>        0.000
      7 C29        -3.8827    1.1213    1.5461 C.2        1 <1>        0.000
      8 C30        -5.0600    0.4929    1.3382 C.2        1 <1>        0.000
      9 C31        -5.2406   -0.7181    0.5247 C.2        1 <1>        0.000
     10 O7         -6.1805   -1.6049    0.8841 O.3        1 <1>        0.000
     11 O8         -4.5638   -0.8940   -0.4741 O.2        1 <1>        0.000
     12 H           3.5192    2.9999    0.9940 H.spc      1 <1>        0.000
     13 H           4.4436    1.6231    0.0915 H.spc      1 <1>        0.000
     14 H           2.4493    0.3743   -0.1175 H.spc      1 <1>        0.000
     15 H           0.9632    2.7322    1.2492 H.spc      1 <1>        0.000
     16 H           0.0377   -0.0432    0.4843 H.spc      1 <1>        0.000
     17 H          -1.3849    2.1413    2.1319 H.spc      1 <1>        0.000
     18 H          -2.4979   -0.0256    0.3507 H.spc      1 <1>        0.000
     19 H          -3.9427    2.0186    2.1620 H.spc      1 <1>        0.000
     20 H          -5.9459    0.9171    1.8108 H.spc      1 <1>        0.000
     21 H          -6.6102   -1.3056    1.6887 H.spc      1 <1>        0.000
@<TRIPOS>BOND
     1    4    5 1  
     2    9   11 2  
     3    6    7 1  
     4    9   10 1  
     5    7    8 2  
     6    3    4 2  
     7    5    6 2  
     8    8    9 1  
     9    1    2 2  
    10    2    3 1  
    11    1   12 1  
    12    1   13 1  
    13    2   14 1  
    14    3   15 1  
    15    4   16 1  
    16    5   17 1  
    17    6   18 1  
    18    7   19 1  
    19    8   20 1  
    20   10   21 1  
# Name:          frag3-212-7/96164 -- energy: -1.853089
# Creation time: Sat Jun  5 12:53:12 2010


@<TRIPOS>MOLECULE
frag3-212-7/96164 -- energy: -1.853089
   21    20     1     1     1
SMALL
USER_CHARGES


@<TRIPOS>ATOM
      1 C21         3.3156    1.6792    0.0258 C.2        1 <1>        0.000
      2 C22         2.3617    1.2481    0.8556 C.2        1 <1>        0.000
      3 C24         0.9874    1.7098    0.9438 C.2        1 <1>        0.000
      4 C25        -0.0901    1.0123    1.3467 C.2        1 <1>        0.000
      5 C26        -1.4581    1.4813    1.4635 C.2        1 <1>        0.000
      6 C27        -2.5781    0.7367    1.4667 C.2        1 <1>        0.000
      7 C29        -3.9690    1.1540    1.5709 C.2        1 <1>        0.000
      8 C30        -5.0868    0.5704    1.0928 C.2        1 <1>        0.000
      9 C31        -5.1285   -0.6760    0.3132 C.2        1 <1>        0.000
     10 O7         -5.0333   -0.6083   -1.0209 O.3        1 <1>        0.000
     11 O8         -5.2480   -1.7463    0.8870 O.2        1 <1>        0.000
     12 H           3.0968    2.4691   -0.6927 H.spc      1 <1>        0.000
     13 H           4.3128    1.2411    0.0672 H.spc      1 <1>        0.000
     14 H           2.6484    0.4567    1.5481 H.spc      1 <1>        0.000
     15 H           0.8079    2.7436    0.6487 H.spc      1 <1>        0.000
     16 H           0.0855   -0.0288    1.6176 H.spc      1 <1>        0.000
     17 H          -1.5934    2.5586    1.5595 H.spc      1 <1>        0.000
     18 H          -2.4212   -0.3383    1.3782 H.spc      1 <1>        0.000
     19 H          -4.1320    2.0813    2.1201 H.spc      1 <1>        0.000
     20 H          -6.0368    1.0626    1.3011 H.spc      1 <1>        0.000
     21 H          -4.9460    0.3096   -1.2882 H.spc      1 <1>        0.000
@<TRIPOS>BOND
     1    4    5 1  
     2    9   11 2  
     3    6    7 1  
     4    9   10 1  
     5    7    8 2  
     6    3    4 2  
     7    5    6 2  
     8    8    9 1  
     9    1    2 2  
    10    2    3 1  
    11    1   12 1  
    12    1   13 1  
    13    2   14 1  
    14    3   15 1  
    15    4   16 1  
    16    5   17 1  
    17    6   18 1  
    18    7   19 1  
    19    8   20 1  
    20   10   21 1  
# Name:          frag3-212-7/96164 -- energy: -1.887801
# Creation time: Sat Jun  5 12:53:12 2010


@<TRIPOS>MOLECULE
frag3-212-7/96164 -- energy: -1.887801
   21    20     1     1     1
SMALL
USER_CHARGES


@<TRIPOS>ATOM
      1 C21         2.9814    0.7052    0.8888 C.2        1 <1>        0.000
      2 C22         2.2808    1.7087    0.3503 C.2        1 <1>        0.000
      3 C24         0.8942    2.0476    0.6078 C.2        1 <1>        0.000
      4 C25        -0.0731    1.2280    1.0692 C.2        1 <1>        0.000
      5 C26        -1.4507    1.5593    1.3669 C.2        1 <1>        0.000
      6 C27        -2.4815    0.7104    1.5253 C.2        1 <1>        0.000
      7 C29        -3.8797    0.9888    1.8137 C.2        1 <1>        0.000
      8 C30        -4.9993    0.4220    1.3135 C.2        1 <1>        0.000
      9 C31        -5.0280   -0.6525    0.3093 C.2        1 <1>        0.000
     10 O7         -5.8930   -0.5489   -0.7116 O.3        1 <1>        0.000
     11 O8         -4.2778   -1.6075    0.4120 O.2        1 <1>        0.000
     12 H           2.5095    0.0351    1.6074 H.spc      1 <1>        0.000
     13 H           4.0245    0.5572    0.6092 H.spc      1 <1>        0.000
     14 H           2.8104    2.3424   -0.3611 H.spc      1 <1>        0.000
     15 H           0.6014    3.0780    0.4063 H.spc      1 <1>        0.000
     16 H           0.2177    0.1912    1.2383 H.spc      1 <1>        0.000
     17 H          -1.6787    2.6197    1.4752 H.spc      1 <1>        0.000
     18 H          -2.2316   -0.3455    1.4220 H.spc      1 <1>        0.000
     19 H          -4.0506    1.7769    2.5471 H.spc      1 <1>        0.000
     20 H          -5.9565    0.7897    1.6830 H.spc      1 <1>        0.000
     21 H          -6.3951    0.2645   -0.6228 H.spc      1 <1>        0.000
@<TRIPOS>BOND
     1    4    5 1  
     2    9   11 2  
     3    6    7 1  
     4    9   10 1  
     5    7    8 2  
     6    3    4 2  
     7    5    6 2  
     8    8    9 1  
     9    1    2 2  
    10    2    3 1  
    11    1   12 1  
    12    1   13 1  
    13    2   14 1  
    14    3   15 1  
    15    4   16 1  
    16    5   17 1  
    17    6   18 1  
    18    7   19 1  
    19    8   20 1  
    20   10   21 1  
# Name:          frag3-212-7/96164 -- energy: -2.098301
# Creation time: Sat Jun  5 12:53:12 2010


@<TRIPOS>MOLECULE
frag3-212-7/96164 -- energy: -2.098301
   21    20     1     1     1
SMALL
USER_CHARGES


@<TRIPOS>ATOM
      1 C21         2.7946    1.1503   -0.4054 C.2        1 <1>        0.000
      2 C22         1.8661    1.4722    0.4994 C.2        1 <1>        0.000
      3 C24         0.4928    1.0101    0.5662 C.2        1 <1>        0.000
      4 C25        -0.4720    1.4068    1.4147 C.2        1 <1>        0.000
      5 C26        -1.8533    0.9757    1.4559 C.2        1 <1>        0.000
      6 C27        -2.9140    1.6668    1.9127 C.2        1 <1>        0.000
      7 C29        -4.3155    1.2814    1.9730 C.2        1 <1>        0.000
      8 C30        -4.9628    0.2958    1.3121 C.2        1 <1>        0.000
      9 C31        -4.3520   -0.6111    0.3269 C.2        1 <1>        0.000
     10 O7         -4.1939   -1.9008    0.6561 O.3        1 <1>        0.000
     11 O8         -4.0171   -0.1864   -0.7666 O.2        1 <1>        0.000
     12 H           2.5512    0.4623   -1.2150 H.spc      1 <1>        0.000
     13 H           3.7956    1.5757   -0.3341 H.spc      1 <1>        0.000
     14 H           2.1777    2.1650    1.2810 H.spc      1 <1>        0.000
     15 H           0.2082    0.2485   -0.1598 H.spc      1 <1>        0.000
     16 H          -0.1781    2.1429    2.1629 H.spc      1 <1>        0.000
     17 H          -2.0580   -0.0240    1.0727 H.spc      1 <1>        0.000
     18 H          -2.6897    2.6630    2.2940 H.spc      1 <1>        0.000
     19 H          -4.9330    1.8730    2.6489 H.spc      1 <1>        0.000
     20 H          -6.0231    0.1618    1.5262 H.spc      1 <1>        0.000
     21 H          -4.5134   -2.0432    1.5501 H.spc      1 <1>        0.000
@<TRIPOS>BOND
     1    4    5 1  
     2    9   11 2  
     3    6    7 1  
     4    9   10 1  
     5    7    8 2  
     6    3    4 2  
     7    5    6 2  
     8    8    9 1  
     9    1    2 2  
    10    2    3 1  
    11    1   12 1  
    12    1   13 1  
    13    2   14 1  
    14    3   15 1  
    15    4   16 1  
    16    5   17 1  
    17    6   18 1  
    18    7   19 1  
    19    8   20 1  
    20   10   21 1  
# Name:          frag3-212-7/96164 -- energy: -2.028112
# Creation time: Sat Jun  5 12:53:12 2010


@<TRIPOS>MOLECULE
frag3-212-7/96164 -- energy: -2.028112
   21    20     1     1     1
SMALL
USER_CHARGES


@<TRIPOS>ATOM
      1 C21         2.5774    1.6896   -0.1720 C.2        1 <1>        0.000
      2 C22         1.9468    0.7558    0.5469 C.2        1 <1>        0.000
      3 C24         0.5592    0.7515    0.9565 C.2        1 <1>        0.000
      4 C25        -0.0700    1.6536    1.7366 C.2        1 <1>        0.000
      5 C26        -1.4686    1.6761    2.1064 C.2        1 <1>        0.000
      6 C27        -2.4992    1.1872    1.3862 C.2        1 <1>        0.000
      7 C29        -3.9197    1.1698    1.6861 C.2        1 <1>        0.000
      8 C30        -4.9092    0.4015    1.1835 C.2        1 <1>        0.000
      9 C31        -4.7342   -0.6343    0.1531 C.2        1 <1>        0.000
     10 O7         -5.4215   -0.5118   -0.9924 O.3        1 <1>        0.000
     11 O8         -3.9882   -1.5782    0.3543 O.2        1 <1>        0.000
     12 H           2.0355    2.5704   -0.5166 H.spc      1 <1>        0.000
     13 H           3.6336    1.5704   -0.4137 H.spc      1 <1>        0.000
     14 H           2.5458   -0.0993    0.8601 H.spc      1 <1>        0.000
     15 H          -0.0481   -0.0771    0.5922 H.spc      1 <1>        0.000
     16 H           0.5466    2.4594    2.1348 H.spc      1 <1>        0.000
     17 H          -1.7145    2.1347    3.0642 H.spc      1 <1>        0.000
     18 H          -2.2232    0.7361    0.4331 H.spc      1 <1>        0.000
     19 H          -4.2380    1.8927    2.4372 H.spc      1 <1>        0.000
     20 H          -5.9156    0.5606    1.5708 H.spc      1 <1>        0.000
     21 H          -5.9494    0.2895   -0.9634 H.spc      1 <1>        0.000
@<TRIPOS>BOND
     1    4    5 1  
     2    9   11 2  
     3    6    7 1  
     4    9   10 1  
     5    7    8 2  
     6    3    4 2  
     7    5    6 2  
     8    8    9 1  
     9    1    2 2  
    10    2    3 1  
    11    1   12 1  
    12    1   13 1  
    13    2   14 1  
    14    3   15 1  
    15    4   16 1  
    16    5   17 1  
    17    6   18 1  
    18    7   19 1  
    19    8   20 1  
    20   10   21 1  
# Name:          frag3-212-7/96164 -- energy: -1.871866
# Creation time: Sat Jun  5 12:53:12 2010


@<TRIPOS>MOLECULE
frag3-212-7/96164 -- energy: -1.871866
   21    20     1     1     1
SMALL
USER_CHARGES


@<TRIPOS>ATOM
      1 C21         2.7399    1.0831   -0.2284 C.2        1 <1>        0.000
      2 C22         2.4351    1.4450    1.0218 C.2        1 <1>        0.000
      3 C24         1.1115    1.6313    1.5843 C.2        1 <1>        0.000
      4 C25        -0.0718    1.4153    0.9731 C.2        1 <1>        0.000
      5 C26        -1.3992    1.5565    1.5317 C.2        1 <1>        0.000
      6 C27        -2.5040    0.8628    1.2016 C.2        1 <1>        0.000
      7 C29        -3.8553    0.9587    1.7296 C.2        1 <1>        0.000
      8 C30        -4.9849    0.3221    1.3537 C.2        1 <1>        0.000
      9 C31        -5.0806   -0.6535    0.2569 C.2        1 <1>        0.000
     10 O7         -5.7190   -0.2940   -0.8661 O.3        1 <1>        0.000
     11 O8         -4.5988   -1.7663    0.3869 O.2        1 <1>        0.000
     12 H           1.9452    0.8934   -0.9500 H.spc      1 <1>        0.000
     13 H           3.7831    0.9777   -0.5263 H.spc      1 <1>        0.000
     14 H           3.2755    1.6196    1.6936 H.spc      1 <1>        0.000
     15 H           1.0678    1.9848    2.6145 H.spc      1 <1>        0.000
     16 H          -0.0218    1.0956   -0.0678 H.spc      1 <1>        0.000
     17 H          -1.5178    2.3114    2.3090 H.spc      1 <1>        0.000
     18 H          -2.3648    0.1159    0.4200 H.spc      1 <1>        0.000
     19 H          -3.9752    1.6544    2.5601 H.spc      1 <1>        0.000
     20 H          -5.8970    0.5486    1.9059 H.spc      1 <1>        0.000
     21 H          -6.0264    0.6116   -0.7822 H.spc      1 <1>        0.000
@<TRIPOS>BOND
     1    4    5 1  
     2    9   11 2  
     3    6    7 1  
     4    9   10 1  
     5    7    8 2  
     6    3    4 2  
     7    5    6 2  
     8    8    9 1  
     9    1    2 2  
    10    2    3 1  
    11    1   12 1  
    12    1   13 1  
    13    2   14 1  
    14    3   15 1  
    15    4   16 1  
    16    5   17 1  
    17    6   18 1  
    18    7   19 1  
    19    8   20 1  
    20   10   21 1  
# Name:          frag3-212-7/96164 -- energy: -2.130775
# Creation time: Sat Jun  5 12:53:12 2010


@<TRIPOS>MOLECULE
frag3-212-7/96164 -- energy: -2.130775
   21    20     1     1     1
SMALL
USER_CHARGES


@<TRIPOS>ATOM
      1 C21         2.8234    0.6131    0.3520 C.2        1 <1>        0.000
      2 C22         1.8137    1.4847    0.4149 C.2        1 <1>        0.000
      3 C24         0.4119    1.2063    0.6495 C.2        1 <1>        0.000
      4 C25        -0.5909    2.0864    0.8201 C.2        1 <1>        0.000
      5 C26        -1.9936    1.7983    1.0252 C.2        1 <1>        0.000
      6 C27        -2.5385    1.1066    2.0449 C.2        1 <1>        0.000
      7 C29        -3.9289    0.7665    2.2984 C.2        1 <1>        0.000
      8 C30        -4.7794    0.0179    1.5613 C.2        1 <1>        0.000
      9 C31        -4.4495   -0.6243    0.2789 C.2        1 <1>        0.000
     10 O7         -4.9108   -1.8641    0.0524 O.3        1 <1>        0.000
     11 O8         -3.7845   -0.0304   -0.5524 O.2        1 <1>        0.000
     12 H           2.6332   -0.4518    0.4855 H.spc      1 <1>        0.000
     13 H           3.8378    0.9666    0.1672 H.spc      1 <1>        0.000
     14 H           2.0764    2.5329    0.2724 H.spc      1 <1>        0.000
     15 H           0.1352    0.1529    0.6932 H.spc      1 <1>        0.000
     16 H          -0.3141    3.1405    0.8016 H.spc      1 <1>        0.000
     17 H          -2.6839    2.1821    0.2740 H.spc      1 <1>        0.000
     18 H          -1.8304    0.7482    2.7920 H.spc      1 <1>        0.000
     19 H          -4.3472    1.1753    3.2182 H.spc      1 <1>        0.000
     20 H          -5.7893   -0.1211    1.9472 H.spc      1 <1>        0.000
     21 H          -5.4090   -2.1635    0.8164 H.spc      1 <1>        0.000
@<TRIPOS>BOND
     1    4    5 1  
     2    9   11 2  
     3    6    7 1  
     4    9   10 1  
     5    7    8 2  
     6    3    4 2  
     7    5    6 2  
     8    8    9 1  
     9    1    2 2  
    10    2    3 1  
    11    1   12 1  
    12    1   13 1  
    13    2   14 1  
    14    3   15 1  
    15    4   16 1  
    16    5   17 1  
    17    6   18 1  
    18    7   19 1  
    19    8   20 1  
    20   10   21 1  
# Name:          frag3-212-7/96164 -- energy: -1.915190
# Creation time: Sat Jun  5 12:53:12 2010


@<TRIPOS>MOLECULE
frag3-212-7/96164 -- energy: -1.915190
   21    20     1     1     1
SMALL
USER_CHARGES


@<TRIPOS>ATOM
      1 C21         2.7986    0.9817   -0.0983 C.2        1 <1>        0.000
      2 C22         2.2887    2.0091    0.5884 C.2        1 <1>        0.000
      3 C24         0.9770    2.0901    1.2020 C.2        1 <1>        0.000
      4 C25        -0.0424    1.2169    1.0646 C.2        1 <1>        0.000
      5 C26        -1.3443    1.2679    1.6951 C.2        1 <1>        0.000
      6 C27        -2.5269    0.9151    1.1600 C.2        1 <1>        0.000
      7 C29        -3.8589    0.9545    1.7413 C.2        1 <1>        0.000
      8 C30        -4.9667    0.2542    1.4230 C.2        1 <1>        0.000
      9 C31        -5.0640   -0.7349    0.3383 C.2        1 <1>        0.000
     10 O7         -4.7081   -2.0016    0.5876 O.3        1 <1>        0.000
     11 O8         -5.4802   -0.3921   -0.7570 O.2        1 <1>        0.000
     12 H           2.2078    0.0776   -0.2452 H.spc      1 <1>        0.000
     13 H           3.8051    1.0481   -0.5113 H.spc      1 <1>        0.000
     14 H           2.9302    2.8833    0.6996 H.spc      1 <1>        0.000
     15 H           0.7947    2.9512    1.8449 H.spc      1 <1>        0.000
     16 H           0.1358    0.3721    0.3993 H.spc      1 <1>        0.000
     17 H          -1.3693    1.6343    2.7214 H.spc      1 <1>        0.000
     18 H          -2.4794    0.5437    0.1363 H.spc      1 <1>        0.000
     19 H          -3.9814    1.6604    2.5628 H.spc      1 <1>        0.000
     20 H          -5.8622    0.4357    2.0174 H.spc      1 <1>        0.000
     21 H          -4.4089   -2.0757    1.4968 H.spc      1 <1>        0.000
@<TRIPOS>BOND
     1    4    5 1  
     2    9   11 2  
     3    6    7 1  
     4    9   10 1  
     5    7    8 2  
     6    3    4 2  
     7    5    6 2  
     8    8    9 1  
     9    1    2 2  
    10    2    3 1  
    11    1   12 1  
    12    1   13 1  
    13    2   14 1  
    14    3   15 1  
    15    4   16 1  
    16    5   17 1  
    17    6   18 1  
    18    7   19 1  
    19    8   20 1  
    20   10   21 1  
# Name:          frag3-212-7/96164 -- energy: -2.223660
# Creation time: Sat Jun  5 12:53:12 2010


@<TRIPOS>MOLECULE
frag3-212-7/96164 -- energy: -2.223660
   21    20     1     1     1
SMALL
USER_CHARGES


@<TRIPOS>ATOM
      1 C21         2.7489    1.3766   -0.0939 C.2        1 <1>        0.000
      2 C22         2.0757    1.4665    1.0560 C.2        1 <1>        0.000
      3 C24         0.6474    1.6229    1.2279 C.2        1 <1>        0.000
      4 C25        -0.3268    1.2193    0.3881 C.2        1 <1>        0.000
      5 C26        -1.7566    1.3360    0.5724 C.2        1 <1>        0.000
      6 C27        -2.4501    1.0532    1.6922 C.2        1 <1>        0.000
      7 C29        -3.8759    1.1442    1.9516 C.2        1 <1>        0.000
      8 C30        -4.8894    0.4092    1.4494 C.2        1 <1>        0.000
      9 C31        -4.7442   -0.6878    0.4786 C.2        1 <1>        0.000
     10 O7         -4.3881   -1.8982    0.9274 O.3        1 <1>        0.000
     11 O8         -4.9682   -0.4807   -0.7048 O.2        1 <1>        0.000
     12 H           2.2146    1.4198   -1.0430 H.spc      1 <1>        0.000
     13 H           3.8326    1.2601   -0.0833 H.spc      1 <1>        0.000
     14 H           2.6695    1.4164    1.9687 H.spc      1 <1>        0.000
     15 H           0.3224    2.1238    2.1398 H.spc      1 <1>        0.000
     16 H           0.0017    0.7497   -0.5391 H.spc      1 <1>        0.000
     17 H          -2.3324    1.6892   -0.2830 H.spc      1 <1>        0.000
     18 H          -1.8494    0.7026    2.5314 H.spc      1 <1>        0.000
     19 H          -4.1709    1.9215    2.6565 H.spc      1 <1>        0.000
     20 H          -5.8972    0.6467    1.7899 H.spc      1 <1>        0.000
     21 H          -4.2572   -1.8601    1.8777 H.spc      1 <1>        0.000
@<TRIPOS>BOND
     1    4    5 1  
     2    9   11 2  
     3    6    7 1  
     4    9   10 1  
     5    7    8 2  
     6    3    4 2  
     7    5    6 2  
     8    8    9 1  
     9    1    2 2  
    10    2    3 1  
    11    1   12 1  
    12    1   13 1  
    13    2   14 1  
    14    3   15 1  
    15    4   16 1  
    16    5   17 1  
    17    6   18 1  
    18    7   19 1  
    19    8   20 1  
    20   10   21 1  
# Name:          frag3-212-7/96164 -- energy: -2.156682
# Creation time: Sat Jun  5 12:53:12 2010


@<TRIPOS>MOLECULE
frag3-212-7/96164 -- energy: -2.156682
   21    20     1     1     1
SMALL
USER_CHARGES


@<TRIPOS>ATOM
      1 C21         2.6981    2.0748   -0.2361 C.2        1 <1>        0.000
      2 C22         1.9571    1.3120    0.5713 C.2        1 <1>        0.000
      3 C24         0.5173    1.3006    0.7098 C.2        1 <1>        0.000
      4 C25        -0.2358    0.5148    1.5006 C.2        1 <1>        0.000
      5 C26        -1.6738    0.5409    1.6577 C.2        1 <1>        0.000
      6 C27        -2.5100    1.5214    1.2575 C.2        1 <1>        0.000
      7 C29        -3.9538    1.6167    1.3816 C.2        1 <1>        0.000
      8 C30        -4.9047    0.7081    1.0722 C.2        1 <1>        0.000
      9 C31        -4.6526   -0.6167    0.4833 C.2        1 <1>        0.000
     10 O7         -5.2534   -1.6843    1.0301 O.3        1 <1>        0.000
     11 O8         -3.9154   -0.7272   -0.4830 O.2        1 <1>        0.000
     12 H           2.2176    2.7971   -0.8960 H.spc      1 <1>        0.000
     13 H           3.7835    1.9752   -0.2353 H.spc      1 <1>        0.000
     14 H           2.5040    0.6123    1.2033 H.spc      1 <1>        0.000
     15 H          -0.0260    2.0192    0.0961 H.spc      1 <1>        0.000
     16 H           0.2998   -0.2280    2.0918 H.spc      1 <1>        0.000
     17 H          -2.1281   -0.3193    2.1495 H.spc      1 <1>        0.000
     18 H          -2.0300    2.3687    0.7678 H.spc      1 <1>        0.000
     19 H          -4.3248    2.5596    1.7833 H.spc      1 <1>        0.000
     20 H          -5.9411    0.9779    1.2750 H.spc      1 <1>        0.000
     21 H          -5.7895   -1.4019    1.7748 H.spc      1 <1>        0.000
@<TRIPOS>BOND
     1    4    5 1  
     2    9   11 2  
     3    6    7 1  
     4    9   10 1  
     5    7    8 2  
     6    3    4 2  
     7    5    6 2  
     8    8    9 1  
     9    1    2 2  
    10    2    3 1  
    11    1   12 1  
    12    1   13 1  
    13    2   14 1  
    14    3   15 1  
    15    4   16 1  
    16    5   17 1  
    17    6   18 1  
    18    7   19 1  
    19    8   20 1  
    20   10   21 1  
# Name:          frag3-212-7/96164 -- energy: -1.632629
# Creation time: Sat Jun  5 12:53:12 2010


@<TRIPOS>MOLECULE
frag3-212-7/96164 -- energy: -1.632629
   21    20     1     1     1
SMALL
USER_CHARGES


@<TRIPOS>ATOM
      1 C21         2.9169    1.7685   -0.3562 C.2        1 <1>        0.000
      2 C22         2.1502    1.2502    0.6068 C.2        1 <1>        0.000
      3 C24         0.7465    1.5084    0.8606 C.2        1 <1>        0.000
      4 C25        -0.0393    0.9559    1.8028 C.2        1 <1>        0.000
      5 C26        -1.4336    1.2440    2.0680 C.2        1 <1>        0.000
      6 C27        -2.4760    1.0209    1.2456 C.2        1 <1>        0.000
      7 C29        -3.8910    1.2954    1.4419 C.2        1 <1>        0.000
      8 C30        -4.9772    0.5902    1.0555 C.2        1 <1>        0.000
      9 C31        -4.9405   -0.6664    0.2920 C.2        1 <1>        0.000
     10 O7         -6.0960   -1.3164    0.0781 O.3        1 <1>        0.000
     11 O8         -3.8870   -1.0896   -0.1500 O.2        1 <1>        0.000
     12 H           2.4933    2.4770   -1.0680 H.spc      1 <1>        0.000
     13 H           3.9662    1.4830   -0.4303 H.spc      1 <1>        0.000
     14 H           2.6387    0.5488    1.2832 H.spc      1 <1>        0.000
     15 H           0.2692    2.2397    0.2083 H.spc      1 <1>        0.000
     16 H           0.4274    0.2048    2.4400 H.spc      1 <1>        0.000
     17 H          -1.6635    1.6887    3.0362 H.spc      1 <1>        0.000
     18 H          -2.2212    0.5660    0.2884 H.spc      1 <1>        0.000
     19 H          -4.1095    2.2142    1.9861 H.spc      1 <1>        0.000
     20 H          -5.9560    0.9830    1.3309 H.spc      1 <1>        0.000
     21 H          -6.8139   -0.8375    0.4988 H.spc      1 <1>        0.000
@<TRIPOS>BOND
     1    4    5 1  
     2    9   11 2  
     3    6    7 1  
     4    9   10 1  
     5    7    8 2  
     6    3    4 2  
     7    5    6 2  
     8    8    9 1  
     9    1    2 2  
    10    2    3 1  
    11    1   12 1  
    12    1   13 1  
    13    2   14 1  
    14    3   15 1  
    15    4   16 1  
    16    5   17 1  
    17    6   18 1  
    18    7   19 1  
    19    8   20 1  
    20   10   21 1  
# Name:          frag3-212-7/96164 -- energy: -2.227028
# Creation time: Sat Jun  5 12:53:12 2010


@<TRIPOS>MOLECULE
frag3-212-7/96164 -- energy: -2.227028
   21    20     1     1     1
SMALL
USER_CHARGES


@<TRIPOS>ATOM
      1 C21         2.7552    0.3560    0.2823 C.2        1 <1>        0.000
      2 C22         1.8690    1.3072    0.5879 C.2        1 <1>        0.000
      3 C24         0.4565    1.1505    0.8624 C.2        1 <1>        0.000
      4 C25        -0.4906    2.1048    0.9117 C.2        1 <1>        0.000
      5 C26        -1.9076    1.9290    1.1507 C.2        1 <1>        0.000
      6 C27        -2.4816    1.0093    1.9502 C.2        1 <1>        0.000
      7 C29        -3.8862    0.7645    2.2261 C.2        1 <1>        0.000
      8 C30        -4.8035    0.0941    1.4981 C.2        1 <1>        0.000
      9 C31        -4.5456   -0.5653    0.2079 C.2        1 <1>        0.000
     10 O7         -4.4355    0.1937   -0.8898 O.3        1 <1>        0.000
     11 O8         -4.4572   -1.7827    0.1575 O.2        1 <1>        0.000
     12 H           2.4370   -0.6844    0.2164 H.spc      1 <1>        0.000
     13 H           3.7967    0.6201    0.0988 H.spc      1 <1>        0.000
     14 H           2.2563    2.3249    0.6365 H.spc      1 <1>        0.000
     15 H           0.1178    0.1321    1.0530 H.spc      1 <1>        0.000
     16 H          -0.1519    3.1287    0.7534 H.spc      1 <1>        0.000
     17 H          -2.5794    2.6113    0.6299 H.spc      1 <1>        0.000
     18 H          -1.7865    0.3488    2.4686 H.spc      1 <1>        0.000
     19 H          -4.2548    1.1854    3.1616 H.spc      1 <1>        0.000
     20 H          -5.8161    0.0363    1.8974 H.spc      1 <1>        0.000
     21 H          -4.5322    1.1181   -0.6494 H.spc      1 <1>        0.000
@<TRIPOS>BOND
     1    4    5 1  
     2    9   11 2  
     3    6    7 1  
     4    9   10 1  
     5    7    8 2  
     6    3    4 2  
     7    5    6 2  
     8    8    9 1  
     9    1    2 2  
    10    2    3 1  
    11    1   12 1  
    12    1   13 1  
    13    2   14 1  
    14    3   15 1  
    15    4   16 1  
    16    5   17 1  
    17    6   18 1  
    18    7   19 1  
    19    8   20 1  
    20   10   21 1  
# Name:          frag3-212-7/96164 -- energy: -2.140438
# Creation time: Sat Jun  5 12:53:12 2010


@<TRIPOS>MOLECULE
frag3-212-7/96164 -- energy: -2.140438
   21    20     1     1     1
SMALL
USER_CHARGES


@<TRIPOS>ATOM
      1 C21         2.9705    0.7656    0.9091 C.2        1 <1>        0.000
      2 C22         1.8780    1.3822    0.4517 C.2        1 <1>        0.000
      3 C24         0.4947    1.0854    0.7585 C.2        1 <1>        0.000
      4 C25        -0.6040    1.7564    0.3696 C.2        1 <1>        0.000
      5 C26        -1.9837    1.4361    0.6580 C.2        1 <1>        0.000
      6 C27        -2.5595    1.3451    1.8727 C.2        1 <1>        0.000
      7 C29        -3.9283    1.0103    2.2293 C.2        1 <1>        0.000
      8 C30        -4.7954    0.1760    1.6127 C.2        1 <1>        0.000
      9 C31        -4.5092   -0.5920    0.3900 C.2        1 <1>        0.000
     10 O7         -5.4721   -0.6901   -0.5394 O.3        1 <1>        0.000
     11 O8         -3.4180   -1.1139    0.2327 O.2        1 <1>        0.000
     12 H           2.8747   -0.0710    1.6013 H.spc      1 <1>        0.000
     13 H           3.9581    1.0988    0.5903 H.spc      1 <1>        0.000
     14 H           2.0485    2.2100   -0.2366 H.spc      1 <1>        0.000
     15 H           0.3221    0.2086    1.3826 H.spc      1 <1>        0.000
     16 H          -0.4339    2.6474   -0.2347 H.spc      1 <1>        0.000
     17 H          -2.6283    1.2477   -0.2005 H.spc      1 <1>        0.000
     18 H          -1.8996    1.5540    2.7147 H.spc      1 <1>        0.000
     19 H          -4.3111    1.5031    3.1230 H.spc      1 <1>        0.000
     20 H          -5.7847    0.0632    2.0561 H.spc      1 <1>        0.000
     21 H          -6.2532   -0.2190   -0.2403 H.spc      1 <1>        0.000
@<TRIPOS>BOND
     1    4    5 1  
     2    9   11 2  
     3    6    7 1  
     4    9   10 1  
     5    7    8 2  
     6    3    4 2  
     7    5    6 2  
     8    8    9 1  
     9    1    2 2  
    10    2    3 1  
    11    1   12 1  
    12    1   13 1  
    13    2   14 1  
    14    3   15 1  
    15    4   16 1  
    16    5   17 1  
    17    6   18 1  
    18    7   19 1  
    19    8   20 1  
    20   10   21 1  
# Name:          frag3-212-7/96164 -- energy: -1.926817
# Creation time: Sat Jun  5 12:53:12 2010


@<TRIPOS>MOLECULE
frag3-212-7/96164 -- energy: -1.926817
   21    20     1     1     1
SMALL
USER_CHARGES


@<TRIPOS>ATOM
      1 C21         2.8671    1.3954    0.5602 C.2        1 <1>        0.000
      2 C22         1.7504    1.5236   -0.1632 C.2        1 <1>        0.000
      3 C24         0.3832    1.4341    0.3114 C.2        1 <1>        0.000
      4 C25        -0.0288    1.2869    1.5883 C.2        1 <1>        0.000
      5 C26        -1.3947    1.2361    2.0699 C.2        1 <1>        0.000
      6 C27        -2.5118    1.2409    1.3143 C.2        1 <1>        0.000
      7 C29        -3.9067    1.1961    1.7221 C.2        1 <1>        0.000
      8 C30        -4.8973    0.3663    1.3338 C.2        1 <1>        0.000
      9 C31        -4.7652   -0.7046    0.3369 C.2        1 <1>        0.000
     10 O7         -4.6176   -1.9779    0.7258 O.3        1 <1>        0.000
     11 O8         -4.8056   -0.4359   -0.8546 O.2        1 <1>        0.000
     12 H           2.8036    1.2012    1.6309 H.spc      1 <1>        0.000
     13 H           3.8412    1.4850    0.0794 H.spc      1 <1>        0.000
     14 H           1.8822    1.7168   -1.2278 H.spc      1 <1>        0.000
     15 H          -0.3980    1.4921   -0.4466 H.spc      1 <1>        0.000
     16 H           0.7536    1.1960    2.3417 H.spc      1 <1>        0.000
     17 H          -1.5329    1.1894    3.1501 H.spc      1 <1>        0.000
     18 H          -2.3440    1.2849    0.2382 H.spc      1 <1>        0.000
     19 H          -4.1970    1.9492    2.4547 H.spc      1 <1>        0.000
     20 H          -5.8746    0.5015    1.7973 H.spc      1 <1>        0.000
     21 H          -4.6049   -2.0190    1.6848 H.spc      1 <1>        0.000
@<TRIPOS>BOND
     1    4    5 1  
     2    9   11 2  
     3    6    7 1  
     4    9   10 1  
     5    7    8 2  
     6    3    4 2  
     7    5    6 2  
     8    8    9 1  
     9    1    2 2  
    10    2    3 1  
    11    1   12 1  
    12    1   13 1  
    13    2   14 1  
    14    3   15 1  
    15    4   16 1  
    16    5   17 1  
    17    6   18 1  
    18    7   19 1  
    19    8   20 1  
    20   10   21 1  
# Name:          frag3-212-7/96164 -- energy: 0.227771
# Creation time: Sat Jun  5 12:53:12 2010


@<TRIPOS>MOLECULE
frag3-212-7/96164 -- energy: 0.227771
   21    20     1     1     1
SMALL
USER_CHARGES


@<TRIPOS>ATOM
      1 C21         2.8186    2.3397    0.1764 C.2        1 <1>        0.000
      2 C22         2.0143    1.3350    0.5319 C.2        1 <1>        0.000
      3 C24         0.5952    1.3871    0.8089 C.2        1 <1>        0.000
      4 C25        -0.2538    0.3601    0.9921 C.2        1 <1>        0.000
      5 C26        -1.6650    0.4289    1.3016 C.2        1 <1>        0.000
      6 C27        -2.4927    1.4672    1.0700 C.2        1 <1>        0.000
      7 C29        -3.9082    1.6079    1.3616 C.2        1 <1>        0.000
      8 C30        -4.9092    0.7179    1.1964 C.2        1 <1>        0.000
      9 C31        -4.7622   -0.6323    0.6292 C.2        1 <1>        0.000
     10 O7         -4.0083   -1.5289    1.2767 O.3        1 <1>        0.000
     11 O8         -5.3556   -0.9215   -0.3998 O.2        1 <1>        0.000
     12 H           2.4162    3.3465    0.0645 H.spc      1 <1>        0.000
     13 H           3.8776    2.1531   -0.0020 H.spc      1 <1>        0.000
     14 H           2.4842    0.3559    0.6248 H.spc      1 <1>        0.000
     15 H           0.1594    2.3838    0.8778 H.spc      1 <1>        0.000
     16 H           0.1706   -0.6393    0.8963 H.spc      1 <1>        0.000
     17 H          -2.1051   -0.4508    1.7712 H.spc      1 <1>        0.000
     18 H          -2.0301    2.3308    0.5921 H.spc      1 <1>        0.000
     19 H          -4.2054    2.5722    1.7737 H.spc      1 <1>        0.000
     20 H          -5.9078    1.0239    1.5084 H.spc      1 <1>        0.000
     21 H          -3.6256   -1.1200    2.0564 H.spc      1 <1>        0.000
@<TRIPOS>BOND
     1    4    5 1  
     2    9   11 2  
     3    6    7 1  
     4    9   10 1  
     5    7    8 2  
     6    3    4 2  
     7    5    6 2  
     8    8    9 1  
     9    1    2 2  
    10    2    3 1  
    11    1   12 1  
    12    1   13 1  
    13    2   14 1  
    14    3   15 1  
    15    4   16 1  
    16    5   17 1  
    17    6   18 1  
    18    7   19 1  
    19    8   20 1  
    20   10   21 1  
# Name:          frag3-212-7/96164 -- energy: -1.885040
# Creation time: Sat Jun  5 12:53:12 2010


@<TRIPOS>MOLECULE
frag3-212-7/96164 -- energy: -1.885040
   21    20     1     1     1
SMALL
USER_CHARGES


@<TRIPOS>ATOM
      1 C21         2.7834    1.6978    0.8579 C.2        1 <1>        0.000
      2 C22         1.8927    1.1638    0.0183 C.2        1 <1>        0.000
      3 C24         0.5516    0.7113    0.3269 C.2        1 <1>        0.000
      4 C25        -0.4612    1.4395    0.8360 C.2        1 <1>        0.000
      5 C26        -1.8107    1.0095    1.1237 C.2        1 <1>        0.000
      6 C27        -2.8049    1.7267    1.6778 C.2        1 <1>        0.000
      7 C29        -4.1708    1.3372    1.9880 C.2        1 <1>        0.000
      8 C30        -4.9033    0.3125    1.4963 C.2        1 <1>        0.000
      9 C31        -4.4475   -0.6435    0.4741 C.2        1 <1>        0.000
     10 O7         -4.6586   -1.9510    0.6850 O.3        1 <1>        0.000
     11 O8         -3.8976   -0.2427   -0.5387 O.2        1 <1>        0.000
     12 H           2.5284    1.8336    1.9089 H.spc      1 <1>        0.000
     13 H           3.7654    1.9979    0.4922 H.spc      1 <1>        0.000
     14 H           2.2115    1.0560   -1.0185 H.spc      1 <1>        0.000
     15 H           0.3375   -0.3380    0.1241 H.spc      1 <1>        0.000
     16 H          -0.2347    2.4822    1.0585 H.spc      1 <1>        0.000
     17 H          -2.0521   -0.0202    0.8599 H.spc      1 <1>        0.000
     18 H          -2.5476    2.7548    1.9326 H.spc      1 <1>        0.000
     19 H          -4.6779    1.9617    2.7235 H.spc      1 <1>        0.000
     20 H          -5.9122    0.1841    1.8883 H.spc      1 <1>        0.000
     21 H          -5.1000   -2.0707    1.5291 H.spc      1 <1>        0.000
@<TRIPOS>BOND
     1    4    5 1  
     2    9   11 2  
     3    6    7 1  
     4    9   10 1  
     5    7    8 2  
     6    3    4 2  
     7    5    6 2  
     8    8    9 1  
     9    1    2 2  
    10    2    3 1  
    11    1   12 1  
    12    1   13 1  
    13    2   14 1  
    14    3   15 1  
    15    4   16 1  
    16    5   17 1  
    17    6   18 1  
    18    7   19 1  
    19    8   20 1  
    20   10   21 1  
# Name:          frag3-212-7/96164 -- energy: -2.002213
# Creation time: Sat Jun  5 12:53:12 2010


@<TRIPOS>MOLECULE
frag3-212-7/96164 -- energy: -2.002213
   21    20     1     1     1
SMALL
USER_CHARGES


@<TRIPOS>ATOM
      1 C21         2.6163    1.8668    0.8943 C.2        1 <1>        0.000
      2 C22         1.9628    0.8667    0.2948 C.2        1 <1>        0.000
      3 C24         0.5335    0.6291    0.2920 C.2        1 <1>        0.000
      4 C25        -0.3740    1.1004    1.1706 C.2        1 <1>        0.000
      5 C26        -1.8063    0.9099    1.1602 C.2        1 <1>        0.000
      6 C27        -2.7448    1.6880    1.7288 C.2        1 <1>        0.000
      7 C29        -4.1906    1.5404    1.7423 C.2        1 <1>        0.000
      8 C30        -4.9586    0.5756    1.1896 C.2        1 <1>        0.000
      9 C31        -4.4568   -0.5685    0.4110 C.2        1 <1>        0.000
     10 O7         -4.3682   -0.4470   -0.9207 O.3        1 <1>        0.000
     11 O8         -4.1402   -1.6003    0.9822 O.2        1 <1>        0.000
     12 H           2.0638    2.6178    1.4588 H.spc      1 <1>        0.000
     13 H           3.7018    1.9313    0.8186 H.spc      1 <1>        0.000
     14 H           2.5736    0.1495   -0.2534 H.spc      1 <1>        0.000
     15 H           0.1490   -0.0010   -0.5100 H.spc      1 <1>        0.000
     16 H           0.0219    1.6995    1.9906 H.spc      1 <1>        0.000
     17 H          -2.1697    0.0307    0.6281 H.spc      1 <1>        0.000
     18 H          -2.3635    2.5606    2.2593 H.spc      1 <1>        0.000
     19 H          -4.7340    2.3207    2.2752 H.spc      1 <1>        0.000
     20 H          -6.0367    0.6506    1.3318 H.spc      1 <1>        0.000
     21 H          -4.6597    0.4299   -1.1810 H.spc      1 <1>        0.000
@<TRIPOS>BOND
     1    4    5 1  
     2    9   11 2  
     3    6    7 1  
     4    9   10 1  
     5    7    8 2  
     6    3    4 2  
     7    5    6 2  
     8    8    9 1  
     9    1    2 2  
    10    2    3 1  
    11    1   12 1  
    12    1   13 1  
    13    2   14 1  
    14    3   15 1  
    15    4   16 1  
    16    5   17 1  
    17    6   18 1  
    18    7   19 1  
    19    8   20 1  
    20   10   21 1  
# Name:          frag3-212-7/96164 -- energy: -1.919060
# Creation time: Sat Jun  5 12:53:12 2010


@<TRIPOS>MOLECULE
frag3-212-7/96164 -- energy: -1.919060
   21    20     1     1     1
SMALL
USER_CHARGES


@<TRIPOS>ATOM
      1 C21         3.4634    1.3982    0.7279 C.2        1 <1>        0.000
      2 C22         2.1958    1.4686    0.3124 C.2        1 <1>        0.000
      3 C24         0.9929    1.2143    1.0842 C.2        1 <1>        0.000
      4 C25        -0.2845    1.3851    0.7005 C.2        1 <1>        0.000
      5 C26        -1.4869    1.0990    1.4591 C.2        1 <1>        0.000
      6 C27        -2.7565    1.3710    1.1112 C.2        1 <1>        0.000
      7 C29        -3.9934    1.1091    1.8318 C.2        1 <1>        0.000
      8 C30        -4.9803    0.2321    1.5613 C.2        1 <1>        0.000
      9 C31        -5.0241   -0.6725    0.4032 C.2        1 <1>        0.000
     10 O7         -4.7422   -0.1942   -0.8142 O.3        1 <1>        0.000
     11 O8         -5.3112   -1.8494    0.5676 O.2        1 <1>        0.000
     12 H           3.6844    1.1220    1.7589 H.spc      1 <1>        0.000
     13 H           4.2767    1.6170    0.0360 H.spc      1 <1>        0.000
     14 H           2.0470    1.7505   -0.7300 H.spc      1 <1>        0.000
     15 H           1.1433    0.8398    2.0967 H.spc      1 <1>        0.000
     16 H          -0.4343    1.7871   -0.3015 H.spc      1 <1>        0.000
     17 H          -1.3449    0.6072    2.4214 H.spc      1 <1>        0.000
     18 H          -2.8776    1.8609    0.1451 H.spc      1 <1>        0.000
     19 H          -4.1446    1.7140    2.7259 H.spc      1 <1>        0.000
     20 H          -5.8161    0.1899    2.2597 H.spc      1 <1>        0.000
     21 H          -4.5417    0.7424   -0.7502 H.spc      1 <1>        0.000
@<TRIPOS>BOND
     1    4    5 1  
     2    9   11 2  
     3    6    7 1  
     4    9   10 1  
     5    7    8 2  
     6    3    4 2  
     7    5    6 2  
     8    8    9 1  
     9    1    2 2  
    10    2    3 1  
    11    1   12 1  
    12    1   13 1  
    13    2   14 1  
    14    3   15 1  
    15    4   16 1  
    16    5   17 1  
    17    6   18 1  
    18    7   19 1  
    19    8   20 1  
    20   10   21 1  
# Name:          frag3-212-7/96164 -- energy: -1.915428
# Creation time: Sat Jun  5 12:53:12 2010


@<TRIPOS>MOLECULE
frag3-212-7/96164 -- energy: -1.915428
   21    20     1     1     1
SMALL
USER_CHARGES


@<TRIPOS>ATOM
      1 C21         2.9889    1.4283    1.2136 C.2        1 <1>        0.000
      2 C22         1.9540    1.5455    0.3772 C.2        1 <1>        0.000
      3 C24         0.5464    1.5677    0.7053 C.2        1 <1>        0.000
      4 C25        -0.4847    1.1064   -0.0250 C.2        1 <1>        0.000
      5 C26        -1.8846    1.0950    0.3355 C.2        1 <1>        0.000
      6 C27        -2.4005    1.2155    1.5754 C.2        1 <1>        0.000
      7 C29        -3.7853    1.2091    2.0110 C.2        1 <1>        0.000
      8 C30        -4.7999    0.4033    1.6293 C.2        1 <1>        0.000
      9 C31        -4.6990   -0.6729    0.6294 C.2        1 <1>        0.000
     10 O7         -4.9715   -1.9270    1.0159 O.3        1 <1>        0.000
     11 O8         -4.3909   -0.4100   -0.5225 O.2        1 <1>        0.000
     12 H           2.8153    1.3345    2.2856 H.spc      1 <1>        0.000
     13 H           4.0069    1.4265    0.8241 H.spc      1 <1>        0.000
     14 H           2.2008    1.6353   -0.6807 H.spc      1 <1>        0.000
     15 H           0.2880    2.0145    1.6654 H.spc      1 <1>        0.000
     16 H          -0.2357    0.6931   -1.0024 H.spc      1 <1>        0.000
     17 H          -2.5977    0.9766   -0.4804 H.spc      1 <1>        0.000
     18 H          -1.6661    1.3361    2.3718 H.spc      1 <1>        0.000
     19 H          -4.0437    1.9639    2.7537 H.spc      1 <1>        0.000
     20 H          -5.7706    0.5624    2.0988 H.spc      1 <1>        0.000
     21 H          -5.1912   -1.9320    1.9504 H.spc      1 <1>        0.000
@<TRIPOS>BOND
     1    4    5 1  
     2    9   11 2  
     3    6    7 1  
     4    9   10 1  
     5    7    8 2  
     6    3    4 2  
     7    5    6 2  
     8    8    9 1  
     9    1    2 2  
    10    2    3 1  
    11    1   12 1  
    12    1   13 1  
    13    2   14 1  
    14    3   15 1  
    15    4   16 1  
    16    5   17 1  
    17    6   18 1  
    18    7   19 1  
    19    8   20 1  
    20   10   21 1  
# Name:          frag3-212-7/96164 -- energy: -1.976994
# Creation time: Sat Jun  5 12:53:12 2010


@<TRIPOS>MOLECULE
frag3-212-7/96164 -- energy: -1.976994
   21    20     1     1     1
SMALL
USER_CHARGES


@<TRIPOS>ATOM
      1 C21         2.5179    1.4948   -0.5070 C.2        1 <1>        0.000
      2 C22         2.2382    1.5039    0.8002 C.2        1 <1>        0.000
      3 C24         0.9768    1.1663    1.4297 C.2        1 <1>        0.000
      4 C25        -0.2624    1.4013    0.9523 C.2        1 <1>        0.000
      5 C26        -1.5296    1.0368    1.5495 C.2        1 <1>        0.000
      6 C27        -2.7472    1.5242    1.2520 C.2        1 <1>        0.000
      7 C29        -4.0437    1.1968    1.8225 C.2        1 <1>        0.000
      8 C30        -4.9250    0.2353    1.4712 C.2        1 <1>        0.000
      9 C31        -4.7528   -0.7024    0.3505 C.2        1 <1>        0.000
     10 O7         -4.8310   -2.0175    0.6022 O.3        1 <1>        0.000
     11 O8         -4.5682   -0.2783   -0.7781 O.2        1 <1>        0.000
     12 H           1.7503    1.2101   -1.2266 H.spc      1 <1>        0.000
     13 H           3.5135    1.7721   -0.8532 H.spc      1 <1>        0.000
     14 H           3.0488    1.7979    1.4669 H.spc      1 <1>        0.000
     15 H           1.0366    0.6668    2.3967 H.spc      1 <1>        0.000
     16 H          -0.3163    1.9302    0.0007 H.spc      1 <1>        0.000
     17 H          -1.4926    0.2787    2.3318 H.spc      1 <1>        0.000
     18 H          -2.7646    2.2780    0.4649 H.spc      1 <1>        0.000
     19 H          -4.3512    1.8220    2.6608 H.spc      1 <1>        0.000
     20 H          -5.8351    0.1472    2.0645 H.spc      1 <1>        0.000
     21 H          -4.9780   -2.1543    1.5410 H.spc      1 <1>        0.000
@<TRIPOS>BOND
     1    4    5 1  
     2    9   11 2  
     3    6    7 1  
     4    9   10 1  
     5    7    8 2  
     6    3    4 2  
     7    5    6 2  
     8    8    9 1  
     9    1    2 2  
    10    2    3 1  
    11    1   12 1  
    12    1   13 1  
    13    2   14 1  
    14    3   15 1  
    15    4   16 1  
    16    5   17 1  
    17    6   18 1  
    18    7   19 1  
    19    8   20 1  
    20   10   21 1  
# Name:          frag3-212-7/96164 -- energy: -1.961217
# Creation time: Sat Jun  5 12:53:12 2010


@<TRIPOS>MOLECULE
frag3-212-7/96164 -- energy: -1.961217
   21    20     1     1     1
SMALL
USER_CHARGES


@<TRIPOS>ATOM
      1 C21         3.1053    0.7410    0.6087 C.2        1 <1>        0.000
      2 C22         1.9511    1.3020    0.2394 C.2        1 <1>        0.000
      3 C24         0.6559    1.1680    0.8752 C.2        1 <1>        0.000
      4 C25        -0.2940    2.1107    1.0215 C.2        1 <1>        0.000
      5 C26        -1.6004    1.9576    1.6285 C.2        1 <1>        0.000
      6 C27        -2.4420    0.9152    1.4719 C.2        1 <1>        0.000
      7 C29        -3.7600    0.6923    2.0425 C.2        1 <1>        0.000
      8 C30        -4.8246    0.0334    1.5389 C.2        1 <1>        0.000
      9 C31        -4.8689   -0.6273    0.2255 C.2        1 <1>        0.000
     10 O7         -5.6328   -0.0922   -0.7377 O.3        1 <1>        0.000
     11 O8         -4.2168   -1.6397    0.0307 O.2        1 <1>        0.000
     12 H           3.1411    0.0945    1.4855 H.spc      1 <1>        0.000
     13 H           4.0116    0.9296    0.0333 H.spc      1 <1>        0.000
     14 H           1.9876    1.9365   -0.6461 H.spc      1 <1>        0.000
     15 H           0.4225    0.1851    1.2845 H.spc      1 <1>        0.000
     16 H          -0.0525    3.1026    0.6395 H.spc      1 <1>        0.000
     17 H          -1.9372    2.7663    2.2771 H.spc      1 <1>        0.000
     18 H          -2.0792    0.1209    0.8196 H.spc      1 <1>        0.000
     19 H          -3.9123    1.1248    3.0314 H.spc      1 <1>        0.000
     20 H          -5.7230   -0.0129    2.1543 H.spc      1 <1>        0.000
     21 H          -6.0666    0.6949   -0.4002 H.spc      1 <1>        0.000
@<TRIPOS>BOND
     1    4    5 1  
     2    9   11 2  
     3    6    7 1  
     4    9   10 1  
     5    7    8 2  
     6    3    4 2  
     7    5    6 2  
     8    8    9 1  
     9    1    2 2  
    10    2    3 1  
    11    1   12 1  
    12    1   13 1  
    13    2   14 1  
    14    3   15 1  
    15    4   16 1  
    16    5   17 1  
    17    6   18 1  
    18    7   19 1  
    19    8   20 1  
    20   10   21 1  
# Name:          frag3-212-7/96164 -- energy: -1.731195
# Creation time: Sat Jun  5 12:53:12 2010


@<TRIPOS>MOLECULE
frag3-212-7/96164 -- energy: -1.731195
   21    20     1     1     1
SMALL
USER_CHARGES


@<TRIPOS>ATOM
      1 C21         2.8367    0.5253    0.1608 C.2        1 <1>        0.000
      2 C22         1.9903    1.4917    0.5262 C.2        1 <1>        0.000
      3 C24         0.5447    1.5009    0.3926 C.2        1 <1>        0.000
      4 C25        -0.3702    1.4921    1.3792 C.2        1 <1>        0.000
      5 C26        -1.8143    1.5269    1.2505 C.2        1 <1>        0.000
      6 C27        -2.7244    1.0949    2.1410 C.2        1 <1>        0.000
      7 C29        -4.1778    1.0959    2.0558 C.2        1 <1>        0.000
      8 C30        -4.9897    0.3827    1.2497 C.2        1 <1>        0.000
      9 C31        -4.5482   -0.5906    0.2405 C.2        1 <1>        0.000
     10 O7         -3.6059   -0.2620   -0.6504 O.3        1 <1>        0.000
     11 O8         -5.0682   -1.6968    0.1993 O.2        1 <1>        0.000
     12 H           2.4564   -0.3879   -0.2970 H.spc      1 <1>        0.000
     13 H           3.9077    0.6498    0.3204 H.spc      1 <1>        0.000
     14 H           2.4373    2.3774    0.9777 H.spc      1 <1>        0.000
     15 H           0.1552    1.5168   -0.6253 H.spc      1 <1>        0.000
     16 H           0.0205    1.4543    2.3961 H.spc      1 <1>        0.000
     17 H          -2.2066    1.9517    0.3265 H.spc      1 <1>        0.000
     18 H          -2.3134    0.6832    3.0628 H.spc      1 <1>        0.000
     19 H          -4.6836    1.7724    2.7447 H.spc      1 <1>        0.000
     20 H          -6.0630    0.5410    1.3551 H.spc      1 <1>        0.000
     21 H          -3.3044    0.6334   -0.4801 H.spc      1 <1>        0.000
@<TRIPOS>BOND
     1    4    5 1  
     2    9   11 2  
     3    6    7 1  
     4    9   10 1  
     5    7    8 2  
     6    3    4 2  
     7    5    6 2  
     8    8    9 1  
     9    1    2 2  
    10    2    3 1  
    11    1   12 1  
    12    1   13 1  
    13    2   14 1  
    14    3   15 1  
    15    4   16 1  
    16    5   17 1  
    17    6   18 1  
    18    7   19 1  
    19    8   20 1  
    20   10   21 1  
# Name:          frag3-212-7/96164 -- energy: -1.930512
# Creation time: Sat Jun  5 12:53:12 2010


@<TRIPOS>MOLECULE
frag3-212-7/96164 -- energy: -1.930512
   21    20     1     1     1
SMALL
USER_CHARGES


@<TRIPOS>ATOM
      1 C21         2.9767    2.2520    0.4779 C.2        1 <1>        0.000
      2 C22         2.0664    1.2750    0.4930 C.2        1 <1>        0.000
      3 C24         0.6618    1.3741    0.8246 C.2        1 <1>        0.000
      4 C25        -0.2072    0.3762    1.0670 C.2        1 <1>        0.000
      5 C26        -1.6011    0.4918    1.4334 C.2        1 <1>        0.000
      6 C27        -2.4792    1.4143    0.9899 C.2        1 <1>        0.000
      7 C29        -3.8835    1.5934    1.3179 C.2        1 <1>        0.000
      8 C30        -4.9209    0.7403    1.1626 C.2        1 <1>        0.000
      9 C31        -4.8295   -0.6031    0.5704 C.2        1 <1>        0.000
     10 O7         -5.9671   -1.2321    0.2332 O.3        1 <1>        0.000
     11 O8         -3.7433   -1.1209    0.3753 O.2        1 <1>        0.000
     12 H           2.6876    3.2703    0.7377 H.spc      1 <1>        0.000
     13 H           4.0088    2.0311    0.2058 H.spc      1 <1>        0.000
     14 H           2.4255    0.2820    0.2225 H.spc      1 <1>        0.000
     15 H           0.2567    2.3842    0.8857 H.spc      1 <1>        0.000
     16 H           0.1849   -0.6368    0.9767 H.spc      1 <1>        0.000
     17 H          -1.9820   -0.2435    2.1421 H.spc      1 <1>        0.000
     18 H          -2.0746    2.1340    0.2782 H.spc      1 <1>        0.000
     19 H          -4.1385    2.5593    1.7540 H.spc      1 <1>        0.000
     20 H          -5.9013    1.0740    1.5027 H.spc      1 <1>        0.000
     21 H          -6.7173   -0.6773    0.4591 H.spc      1 <1>        0.000
@<TRIPOS>BOND
     1    4    5 1  
     2    9   11 2  
     3    6    7 1  
     4    9   10 1  
     5    7    8 2  
     6    3    4 2  
     7    5    6 2  
     8    8    9 1  
     9    1    2 2  
    10    2    3 1  
    11    1   12 1  
    12    1   13 1  
    13    2   14 1  
    14    3   15 1  
    15    4   16 1  
    16    5   17 1  
    17    6   18 1  
    18    7   19 1  
    19    8   20 1  
    20   10   21 1  
# Name:          frag3-212-7/96164 -- energy: 0.595268
# Creation time: Sat Jun  5 12:53:12 2010


@<TRIPOS>MOLECULE
frag3-212-7/96164 -- energy: 0.595268
   21    20     1     1     1
SMALL
USER_CHARGES


@<TRIPOS>ATOM
      1 C21         2.7017    1.6738    0.2719 C.2        1 <1>        0.000
      2 C22         1.9725    0.8892    1.0687 C.2        1 <1>        0.000
      3 C24         0.5405    0.9057    1.2450 C.2        1 <1>        0.000
      4 C25        -0.3890    1.3652    0.3840 C.2        1 <1>        0.000
      5 C26        -1.8224    1.3545    0.5433 C.2        1 <1>        0.000
      6 C27        -2.5076    1.3038    1.7017 C.2        1 <1>        0.000
      7 C29        -3.9370    1.2751    1.9389 C.2        1 <1>        0.000
      8 C30        -4.8789    0.4682    1.4064 C.2        1 <1>        0.000
      9 C31        -4.6265   -0.6027    0.4281 C.2        1 <1>        0.000
     10 O7         -4.0157   -0.3228   -0.7302 O.3        1 <1>        0.000
     11 O8         -4.9646   -1.7489    0.6873 O.2        1 <1>        0.000
     12 H           2.2142    2.4329   -0.3399 H.spc      1 <1>        0.000
     13 H           3.7845    1.5553    0.2331 H.spc      1 <1>        0.000
     14 H           2.5220    0.1513    1.6533 H.spc      1 <1>        0.000
     15 H           0.1667    0.4989    2.1846 H.spc      1 <1>        0.000
     16 H          -0.0124    1.7964   -0.5435 H.spc      1 <1>        0.000
     17 H          -2.4142    1.3914   -0.3713 H.spc      1 <1>        0.000
     18 H          -1.8913    1.2808    2.6004 H.spc      1 <1>        0.000
     19 H          -4.3053    2.0131    2.6516 H.spc      1 <1>        0.000
     20 H          -5.9095    0.6218    1.7265 H.spc      1 <1>        0.000
     21 H          -3.8220    0.6166   -0.7697 H.spc      1 <1>        0.000
@<TRIPOS>BOND
     1    4    5 1  
     2    9   11 2  
     3    6    7 1  
     4    9   10 1  
     5    7    8 2  
     6    3    4 2  
     7    5    6 2  
     8    8    9 1  
     9    1    2 2  
    10    2    3 1  
    11    1   12 1  
    12    1   13 1  
    13    2   14 1  
    14    3   15 1  
    15    4   16 1  
    16    5   17 1  
    17    6   18 1  
    18    7   19 1  
    19    8   20 1  
    20   10   21 1  
# Name:          frag3-212-7/96164 -- energy: 2.684546
# Creation time: Sat Jun  5 12:53:12 2010


@<TRIPOS>MOLECULE
frag3-212-7/96164 -- energy: 2.684546
   21    20     1     1     1
SMALL
USER_CHARGES


@<TRIPOS>ATOM
      1 C21         2.9293    0.9425    0.3295 C.2        1 <1>        0.000
      2 C22         2.1080    1.9952    0.3949 C.2        1 <1>        0.000
      3 C24         0.7699    2.0315    0.9534 C.2        1 <1>        0.000
      4 C25        -0.0394    0.9812    1.1984 C.2        1 <1>        0.000
      5 C26        -1.3629    1.0038    1.7853 C.2        1 <1>        0.000
      6 C27        -2.5375    1.0875    1.1360 C.2        1 <1>        0.000
      7 C29        -3.8918    1.1278    1.6659 C.2        1 <1>        0.000
      8 C30        -4.9644    0.3730    1.3571 C.2        1 <1>        0.000
      9 C31        -4.9966   -0.6931    0.3452 C.2        1 <1>        0.000
     10 O7         -3.8894   -1.0240   -0.3277 O.3        1 <1>        0.000
     11 O8         -6.0522   -1.2644    0.1071 O.2        1 <1>        0.000
     12 H           2.6111   -0.0223    0.7244 H.spc      1 <1>        0.000
     13 H           3.9172    1.0490   -0.1187 H.spc      1 <1>        0.000
     14 H           2.4861    2.9307   -0.0175 H.spc      1 <1>        0.000
     15 H           0.3750    3.0164    1.2025 H.spc      1 <1>        0.000
     16 H           0.3480    0.0005    0.9224 H.spc      1 <1>        0.000
     17 H          -1.4125    0.9467    2.8727 H.spc      1 <1>        0.000
     18 H          -2.4639    1.1318    0.0494 H.spc      1 <1>        0.000
     19 H          -4.0655    1.8851    2.4303 H.spc      1 <1>        0.000
     20 H          -5.8866    0.5695    1.9040 H.spc      1 <1>        0.000
     21 H          -3.1567   -0.4848   -0.0210 H.spc      1 <1>        0.000
@<TRIPOS>BOND
     1    4    5 1  
     2    9   11 2  
     3    6    7 1  
     4    9   10 1  
     5    7    8 2  
     6    3    4 2  
     7    5    6 2  
     8    8    9 1  
     9    1    2 2  
    10    2    3 1  
    11    1   12 1  
    12    1   13 1  
    13    2   14 1  
    14    3   15 1  
    15    4   16 1  
    16    5   17 1  
    17    6   18 1  
    18    7   19 1  
    19    8   20 1  
    20   10   21 1  
# Name:          frag3-212-7/96164 -- energy: -1.791925
# Creation time: Sat Jun  5 12:53:12 2010


@<TRIPOS>MOLECULE
frag3-212-7/96164 -- energy: -1.791925
   21    20     1     1     1
SMALL
USER_CHARGES


@<TRIPOS>ATOM
      1 C21         2.6274    1.5069   -0.4736 C.2        1 <1>        0.000
      2 C22         1.8798    1.3219    0.6175 C.2        1 <1>        0.000
      3 C24         0.4571    1.0601    0.6868 C.2        1 <1>        0.000
      4 C25        -0.3181    0.9757    1.7821 C.2        1 <1>        0.000
      5 C26        -1.7460    0.7597    1.8445 C.2        1 <1>        0.000
      6 C27        -2.7159    1.6647    1.6002 C.2        1 <1>        0.000
      7 C29        -4.1615    1.5074    1.6340 C.2        1 <1>        0.000
      8 C30        -4.9349    0.5398    1.0905 C.2        1 <1>        0.000
      9 C31        -4.4378   -0.5906    0.2904 C.2        1 <1>        0.000
     10 O7         -5.3196   -1.5139   -0.1249 O.3        1 <1>        0.000
     11 O8         -3.2577   -0.6705   -0.0023 O.2        1 <1>        0.000
     12 H           2.1687    1.4679   -1.4616 H.spc      1 <1>        0.000
     13 H           3.6963    1.6969   -0.3761 H.spc      1 <1>        0.000
     14 H           2.4041    1.3743    1.5717 H.spc      1 <1>        0.000
     15 H          -0.0481    0.9132   -0.2678 H.spc      1 <1>        0.000
     16 H           0.1922    1.0832    2.7393 H.spc      1 <1>        0.000
     17 H          -2.0745   -0.2428    2.1186 H.spc      1 <1>        0.000
     18 H          -2.3639    2.6626    1.3385 H.spc      1 <1>        0.000
     19 H          -4.7009    2.2833    2.1772 H.spc      1 <1>        0.000
     20 H          -6.0101    0.6024    1.2583 H.spc      1 <1>        0.000
     21 H          -6.1944   -1.2880    0.1996 H.spc      1 <1>        0.000
@<TRIPOS>BOND
     1    4    5 1  
     2    9   11 2  
     3    6    7 1  
     4    9   10 1  
     5    7    8 2  
     6    3    4 2  
     7    5    6 2  
     8    8    9 1  
     9    1    2 2  
    10    2    3 1  
    11    1   12 1  
    12    1   13 1  
    13    2   14 1  
    14    3   15 1  
    15    4   16 1  
    16    5   17 1  
    17    6   18 1  
    18    7   19 1  
    19    8   20 1  
    20   10   21 1  
