#      Rotatable Fragment
#      Build by yxyuan
#
# Name:          frag4-294-3267/150395
# Creation time: Sat Jun  5 12:53:30 2010


@<TRIPOS>MOLECULE
frag4-294-3267/150395
   14    14     1     1     1
SMALL
USER_CHARGES


@<TRIPOS>ATOM
      1 N1         -0.7245   -0.3778    0.5710 N.3        1 <1>        0.000
      2 C1         -0.1684   -0.7912   -0.6668 C.3        1 <1>        0.000
      3 C3         -1.9620   -0.9912    0.9333 C.3        1 <1>        0.000
      4 C5         -1.1666   -1.8007   -1.1778 C.3        1 <1>        0.000
      5 C7         -1.9364   -2.2234    0.0547 C.3        1 <1>        0.000
      6 H          -0.9134    0.6206    0.4823 H.spc      1 <1>        0.000
      7 H           0.8322   -1.2095   -0.5578 H.spc      1 <1>        0.000
      8 H          -0.0206    0.0387   -1.3578 H.spc      1 <1>        0.000
      9 H          -2.8335   -0.3551    0.7783 H.spc      1 <1>        0.000
     10 H          -2.0536   -1.2082    1.9975 H.spc      1 <1>        0.000
     11 H          -0.6817   -2.6449   -1.6680 H.spc      1 <1>        0.000
     12 H          -1.8181   -1.3813   -1.9444 H.spc      1 <1>        0.000
     13 H          -2.9407   -2.5681   -0.1915 H.spc      1 <1>        0.000
     14 H          -1.4681   -3.0705    0.5559 H.spc      1 <1>        0.000
@<TRIPOS>BOND
     1    1    2 1  
     2    1    3 1  
     3    2    4 1  
     4    3    5 1  
     5    4    5 1  
     6    1    6 1  
     7    2    7 1  
     8    2    8 1  
     9    3    9 1  
    10    3   10 1  
    11    4   11 1  
    12    4   12 1  
    13    5   13 1  
    14    5   14 1  
# Name:          frag4-294-3267/150395 -- energy: -0.833475
# Creation time: Sat Jun  5 12:53:30 2010


@<TRIPOS>MOLECULE
frag4-294-3267/150395 -- energy: -0.833475
   14    14     1     1     1
SMALL
USER_CHARGES


@<TRIPOS>ATOM
      1 N1         -0.7245   -0.3778    0.5710 N.3        1 <1>        0.000
      2 C1         -0.1684   -0.7912   -0.6668 C.3        1 <1>        0.000
      3 C3         -1.9620   -0.9912    0.9333 C.3        1 <1>        0.000
      4 C5         -1.1666   -1.8007   -1.1778 C.3        1 <1>        0.000
      5 C7         -1.9364   -2.2234    0.0547 C.3        1 <1>        0.000
      6 H          -0.9134    0.6206    0.4823 H.spc      1 <1>        0.000
      7 H           0.8322   -1.2095   -0.5578 H.spc      1 <1>        0.000
      8 H          -0.0206    0.0387   -1.3578 H.spc      1 <1>        0.000
      9 H          -2.8335   -0.3551    0.7783 H.spc      1 <1>        0.000
     10 H          -2.0536   -1.2082    1.9975 H.spc      1 <1>        0.000
     11 H          -0.6817   -2.6449   -1.6680 H.spc      1 <1>        0.000
     12 H          -1.8181   -1.3813   -1.9444 H.spc      1 <1>        0.000
     13 H          -2.9407   -2.5681   -0.1915 H.spc      1 <1>        0.000
     14 H          -1.4681   -3.0705    0.5559 H.spc      1 <1>        0.000
@<TRIPOS>BOND
     1    1    2 1  
     2    1    3 1  
     3    2    4 1  
     4    3    5 1  
     5    4    5 1  
     6    1    6 1  
     7    2    7 1  
     8    2    8 1  
     9    3    9 1  
    10    3   10 1  
    11    4   11 1  
    12    4   12 1  
    13    5   13 1  
    14    5   14 1  
