#      Rotatable Fragment
#      Build by yxyuan
#
# Name:          frag5-626-87/138278
# Creation time: Sat Jun  5 12:53:48 2010


@<TRIPOS>MOLECULE
frag5-626-87/138278
   19    19     1     1     1
SMALL
USER_CHARGES


@<TRIPOS>ATOM
      1 N1         -0.5840   -1.3030   -1.4461 N.am       1 <1>        0.000
      2 S1         -0.5421   -0.6056   -0.0134 S.o2       1 <1>        0.000
      3 C12        -1.3665   -2.3157   -1.9264 C.2        1 <1>        0.000
      4 C13        -2.0352    0.2272   -0.0546 C.ar       1 <1>        0.000
      5 O4         -0.6651   -1.6657    0.9595 O.2        1 <1>        0.000
      6 O5          0.5608    0.3161   -0.0265 O.2        1 <1>        0.000
      7 O6         -1.3171   -2.6635   -3.0912 O.2        1 <1>        0.000
      8 C15        -3.2407   -0.3499    0.3715 C.ar       1 <1>        0.000
      9 C16        -2.3061    1.4094   -0.7490 C.ar       1 <1>        0.000
     10 C17        -4.4949    0.2531    0.3798 C.ar       1 <1>        0.000
     11 C19        -3.4952    2.1394   -0.6608 C.ar       1 <1>        0.000
     12 C20        -4.5738    1.5686   -0.0148 C.ar       1 <1>        0.000
     13 H           0.0866   -0.9305   -2.1183 H.spc      1 <1>        0.000
     14 H          -2.0520   -2.8245   -1.2487 H.spc      1 <1>        0.000
     15 H          -3.1898   -1.3768    0.7335 H.spc      1 <1>        0.000
     16 H          -1.5295    1.7923   -1.4112 H.spc      1 <1>        0.000
     17 H          -5.3836   -0.2976    0.6881 H.spc      1 <1>        0.000
     18 H          -3.5692    3.1375   -1.0926 H.spc      1 <1>        0.000
     19 H          -5.4741    2.1515    0.1796 H.spc      1 <1>        0.000
@<TRIPOS>BOND
     1    4    9 ar 
     2    9   11 ar 
     3    8   10 ar 
     4   11   12 ar 
     5   10   12 ar 
     6    3    7 2  
     7    4    8 ar 
     8    1    2 1  
     9    1    3 am 
    10    2    5 2  
    11    2    4 1  
    12    2    6 2  
    13    1   13 1  
    14    3   14 1  
    15    8   15 1  
    16    9   16 1  
    17   10   17 1  
    18   11   18 1  
    19   12   19 1  
# Name:          frag5-626-87/138278
# Creation time: Sat Jun  5 12:53:48 2010


@<TRIPOS>MOLECULE
frag5-626-87/138278
   19    19     1     1     1
SMALL
USER_CHARGES


@<TRIPOS>ATOM
      1 N1         -1.0418   -1.5066   -1.6163 N.am       1 <1>        0.000
      2 S1         -0.9863   -0.8792   -0.1600 S.o2       1 <1>        0.000
      3 C12        -0.0551   -2.1483   -2.2705 C.2        1 <1>        0.000
      4 C13        -2.3054    0.1766   -0.0991 C.ar       1 <1>        0.000
      5 O4         -1.2527   -1.9889    0.7184 O.2        1 <1>        0.000
      6 O5          0.2140   -0.1188   -0.0331 O.2        1 <1>        0.000
      7 O6         -0.2850   -2.7196   -3.3272 O.2        1 <1>        0.000
      8 C15        -2.9847    0.7858   -1.1561 C.ar       1 <1>        0.000
      9 C16        -2.9394    0.3903    1.1020 C.ar       1 <1>        0.000
     10 C17        -3.9412    1.7913   -1.0010 C.ar       1 <1>        0.000
     11 C19        -3.9635    1.2911    1.3263 C.ar       1 <1>        0.000
     12 C20        -4.5187    1.9368    0.2444 C.ar       1 <1>        0.000
     13 H          -1.9270   -1.4131   -2.1144 H.spc      1 <1>        0.000
     14 H           0.9531   -2.1586   -1.8564 H.spc      1 <1>        0.000
     15 H          -2.7532    0.4548   -2.1685 H.spc      1 <1>        0.000
     16 H          -2.6048   -0.2033    1.9528 H.spc      1 <1>        0.000
     17 H          -4.2215    2.4376   -1.8328 H.spc      1 <1>        0.000
     18 H          -4.3233    1.4858    2.3366 H.spc      1 <1>        0.000
     19 H          -5.4061    2.5572    0.3701 H.spc      1 <1>        0.000
@<TRIPOS>BOND
     1    4    9 ar 
     2    9   11 ar 
     3    8   10 ar 
     4   11   12 ar 
     5   10   12 ar 
     6    3    7 2  
     7    4    8 ar 
     8    1    2 1  
     9    1    3 am 
    10    2    5 2  
    11    2    4 1  
    12    2    6 2  
    13    1   13 1  
    14    3   14 1  
    15    8   15 1  
    16    9   16 1  
    17   10   17 1  
    18   11   18 1  
    19   12   19 1  
# Name:          frag5-626-87/138278
# Creation time: Sat Jun  5 12:53:48 2010


@<TRIPOS>MOLECULE
frag5-626-87/138278
   19    19     1     1     1
SMALL
USER_CHARGES


@<TRIPOS>ATOM
      1 N1         -1.0588   -2.1039   -0.9064 N.am       1 <1>        0.000
      2 S1         -0.6872   -0.8287   -0.0128 S.o2       1 <1>        0.000
      3 C12        -1.0636   -2.2380   -2.2585 C.2        1 <1>        0.000
      4 C13        -2.1333    0.0817   -0.0800 C.ar       1 <1>        0.000
      5 O4         -0.5428   -1.3311    1.3334 O.2        1 <1>        0.000
      6 O5          0.3588   -0.1833   -0.7417 O.2        1 <1>        0.000
      7 O6         -0.7573   -1.2979   -2.9773 O.2        1 <1>        0.000
      8 C15        -3.2576   -0.2126    0.7089 C.ar       1 <1>        0.000
      9 C16        -2.4356    1.0410   -1.0449 C.ar       1 <1>        0.000
     10 C17        -4.4425    0.5231    0.7358 C.ar       1 <1>        0.000
     11 C19        -3.5347    1.8982   -0.9906 C.ar       1 <1>        0.000
     12 C20        -4.5054    1.6622   -0.0381 C.ar       1 <1>        0.000
     13 H          -1.3317   -2.9369   -0.3849 H.spc      1 <1>        0.000
     14 H          -1.3429   -3.1919   -2.7060 H.spc      1 <1>        0.000
     15 H          -3.1993   -1.0892    1.3541 H.spc      1 <1>        0.000
     16 H          -1.7668    1.1274   -1.9013 H.spc      1 <1>        0.000
     17 H          -5.2885    0.2085    1.3469 H.spc      1 <1>        0.000
     18 H          -3.6249    2.7345   -1.6838 H.spc      1 <1>        0.000
     19 H          -5.3189    2.3741    0.1017 H.spc      1 <1>        0.000
@<TRIPOS>BOND
     1    4    9 ar 
     2    9   11 ar 
     3    8   10 ar 
     4   11   12 ar 
     5   10   12 ar 
     6    3    7 2  
     7    4    8 ar 
     8    1    2 1  
     9    1    3 am 
    10    2    5 2  
    11    2    4 1  
    12    2    6 2  
    13    1   13 1  
    14    3   14 1  
    15    8   15 1  
    16    9   16 1  
    17   10   17 1  
    18   11   18 1  
    19   12   19 1  
# Name:          frag5-626-87/138278
# Creation time: Sat Jun  5 12:53:48 2010


@<TRIPOS>MOLECULE
frag5-626-87/138278
   19    19     1     1     1
SMALL
USER_CHARGES


@<TRIPOS>ATOM
      1 N1         -1.0807   -1.5125   -1.6104 N.am       1 <1>        0.000
      2 S1         -0.8568   -0.6661   -0.2762 S.o2       1 <1>        0.000
      3 C12        -0.2141   -2.3948   -2.1484 C.2        1 <1>        0.000
      4 C13        -2.2770    0.2391   -0.1016 C.ar       1 <1>        0.000
      5 O4         -0.8282   -1.6259    0.7907 O.2        1 <1>        0.000
      6 O5          0.2499    0.1993   -0.5476 O.2        1 <1>        0.000
      7 O6         -0.6266   -3.3383   -2.8122 O.2        1 <1>        0.000
      8 C15        -2.3554    1.5523   -0.5075 C.ar       1 <1>        0.000
      9 C16        -3.5361   -0.2681    0.2078 C.ar       1 <1>        0.000
     10 C17        -3.3382    2.4218   -0.0751 C.ar       1 <1>        0.000
     11 C19        -4.6442    0.5216    0.5158 C.ar       1 <1>        0.000
     12 C20        -4.5525    1.8819    0.2925 C.ar       1 <1>        0.000
     13 H          -1.9629   -1.3730   -2.1030 H.spc      1 <1>        0.000
     14 H           0.8572   -2.2680   -1.9921 H.spc      1 <1>        0.000
     15 H          -1.6048    1.9246   -1.2047 H.spc      1 <1>        0.000
     16 H          -3.6642   -1.3505    0.2095 H.spc      1 <1>        0.000
     17 H          -3.1600    3.4960   -0.0263 H.spc      1 <1>        0.000
     18 H          -5.5544    0.0789    0.9202 H.spc      1 <1>        0.000
     19 H          -5.4289    2.5201    0.4055 H.spc      1 <1>        0.000
@<TRIPOS>BOND
     1    4    9 ar 
     2    9   11 ar 
     3    8   10 ar 
     4   11   12 ar 
     5   10   12 ar 
     6    3    7 2  
     7    4    8 ar 
     8    1    2 1  
     9    1    3 am 
    10    2    5 2  
    11    2    4 1  
    12    2    6 2  
    13    1   13 1  
    14    3   14 1  
    15    8   15 1  
    16    9   16 1  
    17   10   17 1  
    18   11   18 1  
    19   12   19 1  
# Name:          frag5-626-87/138278
# Creation time: Sat Jun  5 12:53:48 2010


@<TRIPOS>MOLECULE
frag5-626-87/138278
   19    19     1     1     1
SMALL
USER_CHARGES


@<TRIPOS>ATOM
      1 N1         -0.6416   -1.8323   -1.0502 N.am       1 <1>        0.000
      2 S1         -0.5076   -0.5959   -0.0372 S.o2       1 <1>        0.000
      3 C12        -1.2927   -1.9208   -2.2536 C.2        1 <1>        0.000
      4 C13        -2.0799    0.1063   -0.0882 C.ar       1 <1>        0.000
      5 O4         -0.2924   -1.0520    1.3060 O.2        1 <1>        0.000
      6 O5          0.4175    0.3077   -0.6939 O.2        1 <1>        0.000
      7 O6         -1.5579   -2.9939   -2.7779 O.2        1 <1>        0.000
      8 C15        -2.2130    1.4840   -0.0166 C.ar       1 <1>        0.000
      9 C16        -3.3493   -0.4562   -0.4009 C.ar       1 <1>        0.000
     10 C17        -3.3878    2.1716    0.2351 C.ar       1 <1>        0.000
     11 C19        -4.5816    0.2202   -0.3776 C.ar       1 <1>        0.000
     12 C20        -4.5736    1.5717   -0.1172 C.ar       1 <1>        0.000
     13 H          -0.1687   -2.6857   -0.7528 H.spc      1 <1>        0.000
     14 H          -1.5846   -1.0017   -2.7616 H.spc      1 <1>        0.000
     15 H          -1.3129    2.0788   -0.1723 H.spc      1 <1>        0.000
     16 H          -3.3678   -1.5085   -0.6846 H.spc      1 <1>        0.000
     17 H          -3.3731    3.1582    0.6983 H.spc      1 <1>        0.000
     18 H          -5.5161   -0.3102   -0.5604 H.spc      1 <1>        0.000
     19 H          -5.4910    2.1559   -0.1890 H.spc      1 <1>        0.000
@<TRIPOS>BOND
     1    4    9 ar 
     2    9   11 ar 
     3    8   10 ar 
     4   11   12 ar 
     5   10   12 ar 
     6    3    7 2  
     7    4    8 ar 
     8    1    2 1  
     9    1    3 am 
    10    2    5 2  
    11    2    4 1  
    12    2    6 2  
    13    1   13 1  
    14    3   14 1  
    15    8   15 1  
    16    9   16 1  
    17   10   17 1  
    18   11   18 1  
    19   12   19 1  
# Name:          frag5-626-87/138278
# Creation time: Sat Jun  5 12:53:48 2010


@<TRIPOS>MOLECULE
frag5-626-87/138278
   19    19     1     1     1
SMALL
USER_CHARGES


@<TRIPOS>ATOM
      1 N1         -0.7703   -2.0767   -0.7644 N.am       1 <1>        0.000
      2 S1         -0.4931   -0.7103   -0.0229 S.o2       1 <1>        0.000
      3 C12        -1.3892   -2.3127   -1.9538 C.2        1 <1>        0.000
      4 C13        -2.0434    0.0466   -0.0812 C.ar       1 <1>        0.000
      5 O4         -0.2185   -0.9744    1.3770 O.2        1 <1>        0.000
      6 O5          0.4439   -0.0119   -0.8653 O.2        1 <1>        0.000
      7 O6         -1.6037   -1.4066   -2.7365 O.2        1 <1>        0.000
      8 C15        -3.3241   -0.5648    0.0198 C.ar       1 <1>        0.000
      9 C16        -2.1867    1.3762   -0.4519 C.ar       1 <1>        0.000
     10 C17        -4.5588    0.0815   -0.1242 C.ar       1 <1>        0.000
     11 C19        -3.3620    2.1075   -0.4516 C.ar       1 <1>        0.000
     12 C20        -4.5541    1.4560   -0.2172 C.ar       1 <1>        0.000
     13 H          -0.4348   -2.9085   -0.2786 H.spc      1 <1>        0.000
     14 H          -1.6966   -3.3271   -2.2081 H.spc      1 <1>        0.000
     15 H          -3.3468   -1.6344    0.2284 H.spc      1 <1>        0.000
     16 H          -1.2848    1.8960   -0.7752 H.spc      1 <1>        0.000
     17 H          -5.4903   -0.4833   -0.1613 H.spc      1 <1>        0.000
     18 H          -3.3452    3.1820   -0.6339 H.spc      1 <1>        0.000
     19 H          -5.4800    2.0205   -0.1070 H.spc      1 <1>        0.000
@<TRIPOS>BOND
     1    4    9 ar 
     2    9   11 ar 
     3    8   10 ar 
     4   11   12 ar 
     5   10   12 ar 
     6    3    7 2  
     7    4    8 ar 
     8    1    2 1  
     9    1    3 am 
    10    2    5 2  
    11    2    4 1  
    12    2    6 2  
    13    1   13 1  
    14    3   14 1  
    15    8   15 1  
    16    9   16 1  
    17   10   17 1  
    18   11   18 1  
    19   12   19 1  
# Name:          frag5-626-87/138278
# Creation time: Sat Jun  5 12:53:48 2010


@<TRIPOS>MOLECULE
frag5-626-87/138278
   19    19     1     1     1
SMALL
USER_CHARGES


@<TRIPOS>ATOM
      1 N1         -0.2632   -1.0954   -1.5193 N.am       1 <1>        0.000
      2 S1         -0.5132   -0.6976    0.0102 S.o2       1 <1>        0.000
      3 C12        -0.9612   -1.8925   -2.3842 C.2        1 <1>        0.000
      4 C13        -1.9864    0.1526   -0.1288 C.ar       1 <1>        0.000
      5 O4         -0.7609   -1.9523    0.6986 O.2        1 <1>        0.000
      6 O5          0.5426    0.1827    0.4118 O.2        1 <1>        0.000
      7 O6         -2.1332   -2.1301   -2.1762 O.2        1 <1>        0.000
      8 C15        -3.0928   -0.2288    0.6214 C.ar       1 <1>        0.000
      9 C16        -2.3805    1.1001   -1.1062 C.ar       1 <1>        0.000
     10 C17        -4.3582    0.3281    0.5904 C.ar       1 <1>        0.000
     11 C19        -3.5971    1.7968   -1.1092 C.ar       1 <1>        0.000
     12 C20        -4.5557    1.4470   -0.1806 C.ar       1 <1>        0.000
     13 H           0.5733   -0.6760   -1.9253 H.spc      1 <1>        0.000
     14 H          -0.4658   -2.3137   -3.2589 H.spc      1 <1>        0.000
     15 H          -2.9466   -1.0599    1.3113 H.spc      1 <1>        0.000
     16 H          -1.6833    1.3030   -1.9191 H.spc      1 <1>        0.000
     17 H          -5.1765   -0.1092    1.1624 H.spc      1 <1>        0.000
     18 H          -3.7812    2.5955   -1.8278 H.spc      1 <1>        0.000
     19 H          -5.4560    2.0496   -0.0609 H.spc      1 <1>        0.000
@<TRIPOS>BOND
     1    4    9 ar 
     2    9   11 ar 
     3    8   10 ar 
     4   11   12 ar 
     5   10   12 ar 
     6    3    7 2  
     7    4    8 ar 
     8    1    2 1  
     9    1    3 am 
    10    2    5 2  
    11    2    4 1  
    12    2    6 2  
    13    1   13 1  
    14    3   14 1  
    15    8   15 1  
    16    9   16 1  
    17   10   17 1  
    18   11   18 1  
    19   12   19 1  
# Name:          frag5-626-87/138278
# Creation time: Sat Jun  5 12:53:48 2010


@<TRIPOS>MOLECULE
frag5-626-87/138278
   19    19     1     1     1
SMALL
USER_CHARGES


@<TRIPOS>ATOM
      1 N1         -0.8960   -2.1138   -0.5263 N.am       1 <1>        0.000
      2 S1         -0.5758   -0.5949   -0.2446 S.o2       1 <1>        0.000
      3 C12        -1.0848   -2.7271   -1.7347 C.2        1 <1>        0.000
      4 C13        -2.1090    0.1393   -0.2761 C.ar       1 <1>        0.000
      5 O4         -0.0836   -0.5625    1.1235 O.2        1 <1>        0.000
      6 O5          0.2224   -0.1139   -1.3394 O.2        1 <1>        0.000
      7 O6         -1.3498   -2.0646   -2.7209 O.2        1 <1>        0.000
      8 C15        -2.3038    1.2451    0.5320 C.ar       1 <1>        0.000
      9 C16        -3.3317   -0.2528   -0.8855 C.ar       1 <1>        0.000
     10 C17        -3.4764    1.9375    0.7241 C.ar       1 <1>        0.000
     11 C19        -4.5226    0.4836   -0.8428 C.ar       1 <1>        0.000
     12 C20        -4.5485    1.6344   -0.0813 C.ar       1 <1>        0.000
     13 H          -0.9717   -2.7136    0.2952 H.spc      1 <1>        0.000
     14 H          -0.9978   -3.8107   -1.8144 H.spc      1 <1>        0.000
     15 H          -1.4318    1.6075    1.0764 H.spc      1 <1>        0.000
     16 H          -3.3437   -1.1985   -1.4273 H.spc      1 <1>        0.000
     17 H          -3.5536    2.7055    1.4938 H.spc      1 <1>        0.000
     18 H          -5.4037    0.1571   -1.3952 H.spc      1 <1>        0.000
     19 H          -5.4125    2.2979   -0.1182 H.spc      1 <1>        0.000
@<TRIPOS>BOND
     1    4    9 ar 
     2    9   11 ar 
     3    8   10 ar 
     4   11   12 ar 
     5   10   12 ar 
     6    3    7 2  
     7    4    8 ar 
     8    1    2 1  
     9    1    3 am 
    10    2    5 2  
    11    2    4 1  
    12    2    6 2  
    13    1   13 1  
    14    3   14 1  
    15    8   15 1  
    16    9   16 1  
    17   10   17 1  
    18   11   18 1  
    19   12   19 1  
# Name:          frag5-626-87/138278 -- energy: -1.574305
# Creation time: Sat Jun  5 12:53:48 2010


@<TRIPOS>MOLECULE
frag5-626-87/138278 -- energy: -1.574305
   19    19     1     1     1
SMALL
USER_CHARGES


@<TRIPOS>ATOM
      1 N1         -0.5840   -1.3030   -1.4461 N.am       1 <1>        0.000
      2 S1         -0.5421   -0.6056   -0.0134 S.o2       1 <1>        0.000
      3 C12        -1.3665   -2.3157   -1.9264 C.2        1 <1>        0.000
      4 C13        -2.0352    0.2272   -0.0546 C.ar       1 <1>        0.000
      5 O4         -0.6651   -1.6657    0.9595 O.2        1 <1>        0.000
      6 O5          0.5608    0.3161   -0.0265 O.2        1 <1>        0.000
      7 O6         -1.3171   -2.6635   -3.0912 O.2        1 <1>        0.000
      8 C15        -3.2407   -0.3499    0.3715 C.ar       1 <1>        0.000
      9 C16        -2.3061    1.4094   -0.7490 C.ar       1 <1>        0.000
     10 C17        -4.4949    0.2531    0.3798 C.ar       1 <1>        0.000
     11 C19        -3.4952    2.1394   -0.6608 C.ar       1 <1>        0.000
     12 C20        -4.5738    1.5686   -0.0148 C.ar       1 <1>        0.000
     13 H           0.0866   -0.9305   -2.1183 H.spc      1 <1>        0.000
     14 H          -2.0520   -2.8245   -1.2487 H.spc      1 <1>        0.000
     15 H          -3.1898   -1.3768    0.7335 H.spc      1 <1>        0.000
     16 H          -1.5295    1.7923   -1.4112 H.spc      1 <1>        0.000
     17 H          -5.3836   -0.2976    0.6881 H.spc      1 <1>        0.000
     18 H          -3.5692    3.1375   -1.0926 H.spc      1 <1>        0.000
     19 H          -5.4741    2.1515    0.1796 H.spc      1 <1>        0.000
@<TRIPOS>BOND
     1    4    9 ar 
     2    9   11 ar 
     3    8   10 ar 
     4   11   12 ar 
     5   10   12 ar 
     6    3    7 2  
     7    4    8 ar 
     8    1    2 1  
     9    1    3 am 
    10    2    5 2  
    11    2    4 1  
    12    2    6 2  
    13    1   13 1  
    14    3   14 1  
    15    8   15 1  
    16    9   16 1  
    17   10   17 1  
    18   11   18 1  
    19   12   19 1  
# Name:          frag5-626-87/138278 -- energy: -1.138340
# Creation time: Sat Jun  5 12:53:48 2010


@<TRIPOS>MOLECULE
frag5-626-87/138278 -- energy: -1.138340
   19    19     1     1     1
SMALL
USER_CHARGES


@<TRIPOS>ATOM
      1 N1         -1.0418   -1.5066   -1.6163 N.am       1 <1>        0.000
      2 S1         -0.9863   -0.8792   -0.1600 S.o2       1 <1>        0.000
      3 C12        -0.0551   -2.1483   -2.2705 C.2        1 <1>        0.000
      4 C13        -2.3054    0.1766   -0.0991 C.ar       1 <1>        0.000
      5 O4         -1.2527   -1.9889    0.7184 O.2        1 <1>        0.000
      6 O5          0.2140   -0.1188   -0.0331 O.2        1 <1>        0.000
      7 O6         -0.2850   -2.7196   -3.3272 O.2        1 <1>        0.000
      8 C15        -2.9847    0.7858   -1.1561 C.ar       1 <1>        0.000
      9 C16        -2.9394    0.3903    1.1020 C.ar       1 <1>        0.000
     10 C17        -3.9412    1.7913   -1.0010 C.ar       1 <1>        0.000
     11 C19        -3.9635    1.2911    1.3263 C.ar       1 <1>        0.000
     12 C20        -4.5187    1.9368    0.2444 C.ar       1 <1>        0.000
     13 H          -1.9270   -1.4131   -2.1144 H.spc      1 <1>        0.000
     14 H           0.9531   -2.1586   -1.8564 H.spc      1 <1>        0.000
     15 H          -2.7532    0.4548   -2.1685 H.spc      1 <1>        0.000
     16 H          -2.6048   -0.2033    1.9528 H.spc      1 <1>        0.000
     17 H          -4.2215    2.4376   -1.8328 H.spc      1 <1>        0.000
     18 H          -4.3233    1.4858    2.3366 H.spc      1 <1>        0.000
     19 H          -5.4061    2.5572    0.3701 H.spc      1 <1>        0.000
@<TRIPOS>BOND
     1    4    9 ar 
     2    9   11 ar 
     3    8   10 ar 
     4   11   12 ar 
     5   10   12 ar 
     6    3    7 2  
     7    4    8 ar 
     8    1    2 1  
     9    1    3 am 
    10    2    5 2  
    11    2    4 1  
    12    2    6 2  
    13    1   13 1  
    14    3   14 1  
    15    8   15 1  
    16    9   16 1  
    17   10   17 1  
    18   11   18 1  
    19   12   19 1  
# Name:          frag5-626-87/138278 -- energy: -1.618831
# Creation time: Sat Jun  5 12:53:48 2010


@<TRIPOS>MOLECULE
frag5-626-87/138278 -- energy: -1.618831
   19    19     1     1     1
SMALL
USER_CHARGES


@<TRIPOS>ATOM
      1 N1         -1.0588   -2.1039   -0.9064 N.am       1 <1>        0.000
      2 S1         -0.6872   -0.8287   -0.0128 S.o2       1 <1>        0.000
      3 C12        -1.0636   -2.2380   -2.2585 C.2        1 <1>        0.000
      4 C13        -2.1333    0.0817   -0.0800 C.ar       1 <1>        0.000
      5 O4         -0.5428   -1.3311    1.3334 O.2        1 <1>        0.000
      6 O5          0.3588   -0.1833   -0.7417 O.2        1 <1>        0.000
      7 O6         -0.7573   -1.2979   -2.9773 O.2        1 <1>        0.000
      8 C15        -3.2576   -0.2126    0.7089 C.ar       1 <1>        0.000
      9 C16        -2.4356    1.0410   -1.0449 C.ar       1 <1>        0.000
     10 C17        -4.4425    0.5231    0.7358 C.ar       1 <1>        0.000
     11 C19        -3.5347    1.8982   -0.9906 C.ar       1 <1>        0.000
     12 C20        -4.5054    1.6622   -0.0381 C.ar       1 <1>        0.000
     13 H          -1.3317   -2.9369   -0.3849 H.spc      1 <1>        0.000
     14 H          -1.3429   -3.1919   -2.7060 H.spc      1 <1>        0.000
     15 H          -3.1993   -1.0892    1.3541 H.spc      1 <1>        0.000
     16 H          -1.7668    1.1274   -1.9013 H.spc      1 <1>        0.000
     17 H          -5.2885    0.2085    1.3469 H.spc      1 <1>        0.000
     18 H          -3.6249    2.7345   -1.6838 H.spc      1 <1>        0.000
     19 H          -5.3189    2.3741    0.1017 H.spc      1 <1>        0.000
@<TRIPOS>BOND
     1    4    9 ar 
     2    9   11 ar 
     3    8   10 ar 
     4   11   12 ar 
     5   10   12 ar 
     6    3    7 2  
     7    4    8 ar 
     8    1    2 1  
     9    1    3 am 
    10    2    5 2  
    11    2    4 1  
    12    2    6 2  
    13    1   13 1  
    14    3   14 1  
    15    8   15 1  
    16    9   16 1  
    17   10   17 1  
    18   11   18 1  
    19   12   19 1  
# Name:          frag5-626-87/138278 -- energy: -1.305966
# Creation time: Sat Jun  5 12:53:48 2010


@<TRIPOS>MOLECULE
frag5-626-87/138278 -- energy: -1.305966
   19    19     1     1     1
SMALL
USER_CHARGES


@<TRIPOS>ATOM
      1 N1         -1.0807   -1.5125   -1.6104 N.am       1 <1>        0.000
      2 S1         -0.8568   -0.6661   -0.2762 S.o2       1 <1>        0.000
      3 C12        -0.2141   -2.3948   -2.1484 C.2        1 <1>        0.000
      4 C13        -2.2770    0.2391   -0.1016 C.ar       1 <1>        0.000
      5 O4         -0.8282   -1.6259    0.7907 O.2        1 <1>        0.000
      6 O5          0.2499    0.1993   -0.5476 O.2        1 <1>        0.000
      7 O6         -0.6266   -3.3383   -2.8122 O.2        1 <1>        0.000
      8 C15        -2.3554    1.5523   -0.5075 C.ar       1 <1>        0.000
      9 C16        -3.5361   -0.2681    0.2078 C.ar       1 <1>        0.000
     10 C17        -3.3382    2.4218   -0.0751 C.ar       1 <1>        0.000
     11 C19        -4.6442    0.5216    0.5158 C.ar       1 <1>        0.000
     12 C20        -4.5525    1.8819    0.2925 C.ar       1 <1>        0.000
     13 H          -1.9629   -1.3730   -2.1030 H.spc      1 <1>        0.000
     14 H           0.8572   -2.2680   -1.9921 H.spc      1 <1>        0.000
     15 H          -1.6048    1.9246   -1.2047 H.spc      1 <1>        0.000
     16 H          -3.6642   -1.3505    0.2095 H.spc      1 <1>        0.000
     17 H          -3.1600    3.4960   -0.0263 H.spc      1 <1>        0.000
     18 H          -5.5544    0.0789    0.9202 H.spc      1 <1>        0.000
     19 H          -5.4289    2.5201    0.4055 H.spc      1 <1>        0.000
@<TRIPOS>BOND
     1    4    9 ar 
     2    9   11 ar 
     3    8   10 ar 
     4   11   12 ar 
     5   10   12 ar 
     6    3    7 2  
     7    4    8 ar 
     8    1    2 1  
     9    1    3 am 
    10    2    5 2  
    11    2    4 1  
    12    2    6 2  
    13    1   13 1  
    14    3   14 1  
    15    8   15 1  
    16    9   16 1  
    17   10   17 1  
    18   11   18 1  
    19   12   19 1  
# Name:          frag5-626-87/138278 -- energy: -1.524620
# Creation time: Sat Jun  5 12:53:48 2010


@<TRIPOS>MOLECULE
frag5-626-87/138278 -- energy: -1.524620
   19    19     1     1     1
SMALL
USER_CHARGES


@<TRIPOS>ATOM
      1 N1         -0.6416   -1.8323   -1.0502 N.am       1 <1>        0.000
      2 S1         -0.5076   -0.5959   -0.0372 S.o2       1 <1>        0.000
      3 C12        -1.2927   -1.9208   -2.2536 C.2        1 <1>        0.000
      4 C13        -2.0799    0.1063   -0.0882 C.ar       1 <1>        0.000
      5 O4         -0.2924   -1.0520    1.3060 O.2        1 <1>        0.000
      6 O5          0.4175    0.3077   -0.6939 O.2        1 <1>        0.000
      7 O6         -1.5579   -2.9939   -2.7779 O.2        1 <1>        0.000
      8 C15        -2.2130    1.4840   -0.0166 C.ar       1 <1>        0.000
      9 C16        -3.3493   -0.4562   -0.4009 C.ar       1 <1>        0.000
     10 C17        -3.3878    2.1716    0.2351 C.ar       1 <1>        0.000
     11 C19        -4.5816    0.2202   -0.3776 C.ar       1 <1>        0.000
     12 C20        -4.5736    1.5717   -0.1172 C.ar       1 <1>        0.000
     13 H          -0.1687   -2.6857   -0.7528 H.spc      1 <1>        0.000
     14 H          -1.5846   -1.0017   -2.7616 H.spc      1 <1>        0.000
     15 H          -1.3129    2.0788   -0.1723 H.spc      1 <1>        0.000
     16 H          -3.3678   -1.5085   -0.6846 H.spc      1 <1>        0.000
     17 H          -3.3731    3.1582    0.6983 H.spc      1 <1>        0.000
     18 H          -5.5161   -0.3102   -0.5604 H.spc      1 <1>        0.000
     19 H          -5.4910    2.1559   -0.1890 H.spc      1 <1>        0.000
@<TRIPOS>BOND
     1    4    9 ar 
     2    9   11 ar 
     3    8   10 ar 
     4   11   12 ar 
     5   10   12 ar 
     6    3    7 2  
     7    4    8 ar 
     8    1    2 1  
     9    1    3 am 
    10    2    5 2  
    11    2    4 1  
    12    2    6 2  
    13    1   13 1  
    14    3   14 1  
    15    8   15 1  
    16    9   16 1  
    17   10   17 1  
    18   11   18 1  
    19   12   19 1  
# Name:          frag5-626-87/138278 -- energy: -1.833731
# Creation time: Sat Jun  5 12:53:48 2010


@<TRIPOS>MOLECULE
frag5-626-87/138278 -- energy: -1.833731
   19    19     1     1     1
SMALL
USER_CHARGES


@<TRIPOS>ATOM
      1 N1         -0.7703   -2.0767   -0.7644 N.am       1 <1>        0.000
      2 S1         -0.4931   -0.7103   -0.0229 S.o2       1 <1>        0.000
      3 C12        -1.3892   -2.3127   -1.9538 C.2        1 <1>        0.000
      4 C13        -2.0434    0.0466   -0.0812 C.ar       1 <1>        0.000
      5 O4         -0.2185   -0.9744    1.3770 O.2        1 <1>        0.000
      6 O5          0.4439   -0.0119   -0.8653 O.2        1 <1>        0.000
      7 O6         -1.6037   -1.4066   -2.7365 O.2        1 <1>        0.000
      8 C15        -3.3241   -0.5648    0.0198 C.ar       1 <1>        0.000
      9 C16        -2.1867    1.3762   -0.4519 C.ar       1 <1>        0.000
     10 C17        -4.5588    0.0815   -0.1242 C.ar       1 <1>        0.000
     11 C19        -3.3620    2.1075   -0.4516 C.ar       1 <1>        0.000
     12 C20        -4.5541    1.4560   -0.2172 C.ar       1 <1>        0.000
     13 H          -0.4348   -2.9085   -0.2786 H.spc      1 <1>        0.000
     14 H          -1.6966   -3.3271   -2.2081 H.spc      1 <1>        0.000
     15 H          -3.3468   -1.6344    0.2284 H.spc      1 <1>        0.000
     16 H          -1.2848    1.8960   -0.7752 H.spc      1 <1>        0.000
     17 H          -5.4903   -0.4833   -0.1613 H.spc      1 <1>        0.000
     18 H          -3.3452    3.1820   -0.6339 H.spc      1 <1>        0.000
     19 H          -5.4800    2.0205   -0.1070 H.spc      1 <1>        0.000
@<TRIPOS>BOND
     1    4    9 ar 
     2    9   11 ar 
     3    8   10 ar 
     4   11   12 ar 
     5   10   12 ar 
     6    3    7 2  
     7    4    8 ar 
     8    1    2 1  
     9    1    3 am 
    10    2    5 2  
    11    2    4 1  
    12    2    6 2  
    13    1   13 1  
    14    3   14 1  
    15    8   15 1  
    16    9   16 1  
    17   10   17 1  
    18   11   18 1  
    19   12   19 1  
# Name:          frag5-626-87/138278 -- energy: -1.741355
# Creation time: Sat Jun  5 12:53:48 2010


@<TRIPOS>MOLECULE
frag5-626-87/138278 -- energy: -1.741355
   19    19     1     1     1
SMALL
USER_CHARGES


@<TRIPOS>ATOM
      1 N1         -0.2632   -1.0954   -1.5193 N.am       1 <1>        0.000
      2 S1         -0.5132   -0.6976    0.0102 S.o2       1 <1>        0.000
      3 C12        -0.9612   -1.8925   -2.3842 C.2        1 <1>        0.000
      4 C13        -1.9864    0.1526   -0.1288 C.ar       1 <1>        0.000
      5 O4         -0.7609   -1.9523    0.6986 O.2        1 <1>        0.000
      6 O5          0.5426    0.1827    0.4118 O.2        1 <1>        0.000
      7 O6         -2.1332   -2.1301   -2.1762 O.2        1 <1>        0.000
      8 C15        -3.0928   -0.2288    0.6214 C.ar       1 <1>        0.000
      9 C16        -2.3805    1.1001   -1.1062 C.ar       1 <1>        0.000
     10 C17        -4.3582    0.3281    0.5904 C.ar       1 <1>        0.000
     11 C19        -3.5971    1.7968   -1.1092 C.ar       1 <1>        0.000
     12 C20        -4.5557    1.4470   -0.1806 C.ar       1 <1>        0.000
     13 H           0.5733   -0.6760   -1.9253 H.spc      1 <1>        0.000
     14 H          -0.4658   -2.3137   -3.2589 H.spc      1 <1>        0.000
     15 H          -2.9466   -1.0599    1.3113 H.spc      1 <1>        0.000
     16 H          -1.6833    1.3030   -1.9191 H.spc      1 <1>        0.000
     17 H          -5.1765   -0.1092    1.1624 H.spc      1 <1>        0.000
     18 H          -3.7812    2.5955   -1.8278 H.spc      1 <1>        0.000
     19 H          -5.4560    2.0496   -0.0609 H.spc      1 <1>        0.000
@<TRIPOS>BOND
     1    4    9 ar 
     2    9   11 ar 
     3    8   10 ar 
     4   11   12 ar 
     5   10   12 ar 
     6    3    7 2  
     7    4    8 ar 
     8    1    2 1  
     9    1    3 am 
    10    2    5 2  
    11    2    4 1  
    12    2    6 2  
    13    1   13 1  
    14    3   14 1  
    15    8   15 1  
    16    9   16 1  
    17   10   17 1  
    18   11   18 1  
    19   12   19 1  
# Name:          frag5-626-87/138278 -- energy: -1.607563
# Creation time: Sat Jun  5 12:53:48 2010


@<TRIPOS>MOLECULE
frag5-626-87/138278 -- energy: -1.607563
   19    19     1     1     1
SMALL
USER_CHARGES


@<TRIPOS>ATOM
      1 N1         -0.8960   -2.1138   -0.5263 N.am       1 <1>        0.000
      2 S1         -0.5758   -0.5949   -0.2446 S.o2       1 <1>        0.000
      3 C12        -1.0848   -2.7271   -1.7347 C.2        1 <1>        0.000
      4 C13        -2.1090    0.1393   -0.2761 C.ar       1 <1>        0.000
      5 O4         -0.0836   -0.5625    1.1235 O.2        1 <1>        0.000
      6 O5          0.2224   -0.1139   -1.3394 O.2        1 <1>        0.000
      7 O6         -1.3498   -2.0646   -2.7209 O.2        1 <1>        0.000
      8 C15        -2.3038    1.2451    0.5320 C.ar       1 <1>        0.000
      9 C16        -3.3317   -0.2528   -0.8855 C.ar       1 <1>        0.000
     10 C17        -3.4764    1.9375    0.7241 C.ar       1 <1>        0.000
     11 C19        -4.5226    0.4836   -0.8428 C.ar       1 <1>        0.000
     12 C20        -4.5485    1.6344   -0.0813 C.ar       1 <1>        0.000
     13 H          -0.9717   -2.7136    0.2952 H.spc      1 <1>        0.000
     14 H          -0.9978   -3.8107   -1.8144 H.spc      1 <1>        0.000
     15 H          -1.4318    1.6075    1.0764 H.spc      1 <1>        0.000
     16 H          -3.3437   -1.1985   -1.4273 H.spc      1 <1>        0.000
     17 H          -3.5536    2.7055    1.4938 H.spc      1 <1>        0.000
     18 H          -5.4037    0.1571   -1.3952 H.spc      1 <1>        0.000
     19 H          -5.4125    2.2979   -0.1182 H.spc      1 <1>        0.000
@<TRIPOS>BOND
     1    4    9 ar 
     2    9   11 ar 
     3    8   10 ar 
     4   11   12 ar 
     5   10   12 ar 
     6    3    7 2  
     7    4    8 ar 
     8    1    2 1  
     9    1    3 am 
    10    2    5 2  
    11    2    4 1  
    12    2    6 2  
    13    1   13 1  
    14    3   14 1  
    15    8   15 1  
    16    9   16 1  
    17   10   17 1  
    18   11   18 1  
    19   12   19 1  
