#      Rotatable Fragment
#      Build by yxyuan
#
# Name:          frag4-407-56/48856
# Creation time: Sat Jun  5 12:51:56 2010


@<TRIPOS>MOLECULE
frag4-407-56/48856
   16    17     1     1     1
SMALL
USER_CHARGES


@<TRIPOS>ATOM
      1 C11         1.7178   -1.0526    0.1349 C.3        1 <1>        0.000
      2 C12         2.4597    0.2092   -0.0714 C.2        1 <1>        0.000
      3 N2          1.5874    1.1734   -0.2115 N.2        1 <1>        0.000
      4 C13         0.2633    0.6946   -0.1042 C.ar       1 <1>        0.000
      5 C14         0.3177   -0.7194    0.1103 C.ar       1 <1>        0.000
      6 C15        -0.8471   -1.4422    0.2295 C.ar       1 <1>        0.000
      7 C16        -2.0840   -0.8019    0.1565 C.ar       1 <1>        0.000
      8 C17        -2.1513    0.5841   -0.0492 C.ar       1 <1>        0.000
      9 C18        -0.9732    1.3433   -0.1827 C.ar       1 <1>        0.000
     10 H           1.9906   -1.5121    1.0849 H.spc      1 <1>        0.000
     11 H           1.9582   -1.7758   -0.6444 H.spc      1 <1>        0.000
     12 H           3.5439    0.3171   -0.1015 H.spc      1 <1>        0.000
     13 H          -0.8029   -2.5206    0.3817 H.spc      1 <1>        0.000
     14 H          -3.0019   -1.3807    0.2597 H.spc      1 <1>        0.000
     15 H          -3.1221    1.0765   -0.1060 H.spc      1 <1>        0.000
     16 H          -1.0240    2.4200   -0.3447 H.spc      1 <1>        0.000
@<TRIPOS>BOND
     1    8    9 ar 
     2    7    8 ar 
     3    1    2 1  
     4    2    3 2  
     5    1    5 1  
     6    3    4 1  
     7    4    5 ar 
     8    4    9 ar 
     9    5    6 ar 
    10    6    7 ar 
    11    1   10 1  
    12    1   11 1  
    13    2   12 1  
    14    6   13 1  
    15    7   14 1  
    16    8   15 1  
    17    9   16 1  
# Name:          frag4-407-56/48856 -- energy: -0.625956
# Creation time: Sat Jun  5 12:51:56 2010


@<TRIPOS>MOLECULE
frag4-407-56/48856 -- energy: -0.625956
   16    17     1     1     1
SMALL
USER_CHARGES


@<TRIPOS>ATOM
      1 C11         1.7178   -1.0526    0.1349 C.3        1 <1>        0.000
      2 C12         2.4597    0.2092   -0.0714 C.2        1 <1>        0.000
      3 N2          1.5874    1.1734   -0.2115 N.2        1 <1>        0.000
      4 C13         0.2633    0.6946   -0.1042 C.ar       1 <1>        0.000
      5 C14         0.3177   -0.7194    0.1103 C.ar       1 <1>        0.000
      6 C15        -0.8471   -1.4422    0.2295 C.ar       1 <1>        0.000
      7 C16        -2.0840   -0.8019    0.1565 C.ar       1 <1>        0.000
      8 C17        -2.1513    0.5841   -0.0492 C.ar       1 <1>        0.000
      9 C18        -0.9732    1.3433   -0.1827 C.ar       1 <1>        0.000
     10 H           1.9906   -1.5121    1.0849 H.spc      1 <1>        0.000
     11 H           1.9582   -1.7758   -0.6444 H.spc      1 <1>        0.000
     12 H           3.5439    0.3171   -0.1015 H.spc      1 <1>        0.000
     13 H          -0.8029   -2.5206    0.3817 H.spc      1 <1>        0.000
     14 H          -3.0019   -1.3807    0.2597 H.spc      1 <1>        0.000
     15 H          -3.1221    1.0765   -0.1060 H.spc      1 <1>        0.000
     16 H          -1.0240    2.4200   -0.3447 H.spc      1 <1>        0.000
@<TRIPOS>BOND
     1    8    9 ar 
     2    7    8 ar 
     3    1    2 1  
     4    2    3 2  
     5    1    5 1  
     6    3    4 1  
     7    4    5 ar 
     8    4    9 ar 
     9    5    6 ar 
    10    6    7 ar 
    11    1   10 1  
    12    1   11 1  
    13    2   12 1  
    14    6   13 1  
    15    7   14 1  
    16    8   15 1  
    17    9   16 1  
