#      Rotatable Fragment
#      Build by yxyuan
#
# Name:          frag4-446-118/150395
# Creation time: Sat Jun  5 12:53:36 2010


@<TRIPOS>MOLECULE
frag4-446-118/150395
   19    20     1     1     1
SMALL
USER_CHARGES


@<TRIPOS>ATOM
      1 C1         -0.9541   -1.4516    0.5315 C.3        1 <1>        0.000
      2 C2         -0.6340    0.0662    0.5167 C.3        1 <1>        0.000
      3 C4         -2.4911   -1.4509    0.3967 C.3        1 <1>        0.000
      4 C5         -1.8980    0.6642    1.1308 C.3        1 <1>        0.000
      5 C6         -0.7726    0.5773   -0.9365 C.3        1 <1>        0.000
      6 N2         -2.8052   -0.0128    0.1693 N.4        1 <1>        0.000
      7 C7         -2.2848    0.4035   -1.1698 C.3        1 <1>        0.000
      8 H          -0.5975   -1.9613    1.4266 H.spc      1 <1>        0.000
      9 H          -0.4498   -2.0089   -0.2579 H.spc      1 <1>        0.000
     10 H           0.3321    0.2867    0.9706 H.spc      1 <1>        0.000
     11 H          -2.8453   -2.0938   -0.4091 H.spc      1 <1>        0.000
     12 H          -2.9928   -1.8599    1.2737 H.spc      1 <1>        0.000
     13 H          -2.0722    0.5026    2.1946 H.spc      1 <1>        0.000
     14 H          -1.9602    1.7495    1.2110 H.spc      1 <1>        0.000
     15 H          -0.4202    1.5989   -1.0789 H.spc      1 <1>        0.000
     16 H          -0.1523    0.0389   -1.6531 H.spc      1 <1>        0.000
     17 H          -3.8026    0.1845    0.2505 H.spc      1 <1>        0.000
     18 H          -2.7568    1.3161   -1.5337 H.spc      1 <1>        0.000
     19 H          -2.5040   -0.3288   -1.9469 H.spc      1 <1>        0.000
@<TRIPOS>BOND
     1    6    7 1  
     2    4    6 1  
     3    3    6 1  
     4    5    7 1  
     5    1    2 1  
     6    1    3 1  
     7    2    4 1  
     8    2    5 1  
     9    1    8 1  
    10    1    9 1  
    11    2   10 1  
    12    3   11 1  
    13    3   12 1  
    14    4   13 1  
    15    4   14 1  
    16    5   15 1  
    17    5   16 1  
    18    6   17 1  
    19    7   18 1  
    20    7   19 1  
# Name:          frag4-446-118/150395 -- energy: -1.681867
# Creation time: Sat Jun  5 12:53:36 2010


@<TRIPOS>MOLECULE
frag4-446-118/150395 -- energy: -1.681867
   19    20     1     1     1
SMALL
USER_CHARGES


@<TRIPOS>ATOM
      1 C1         -0.9541   -1.4516    0.5315 C.3        1 <1>        0.000
      2 C2         -0.6340    0.0662    0.5167 C.3        1 <1>        0.000
      3 C4         -2.4911   -1.4509    0.3967 C.3        1 <1>        0.000
      4 C5         -1.8980    0.6642    1.1308 C.3        1 <1>        0.000
      5 C6         -0.7726    0.5773   -0.9365 C.3        1 <1>        0.000
      6 N2         -2.8052   -0.0128    0.1693 N.4        1 <1>        0.000
      7 C7         -2.2848    0.4035   -1.1698 C.3        1 <1>        0.000
      8 H          -0.5975   -1.9613    1.4266 H.spc      1 <1>        0.000
      9 H          -0.4498   -2.0089   -0.2579 H.spc      1 <1>        0.000
     10 H           0.3321    0.2867    0.9706 H.spc      1 <1>        0.000
     11 H          -2.8453   -2.0938   -0.4091 H.spc      1 <1>        0.000
     12 H          -2.9928   -1.8599    1.2737 H.spc      1 <1>        0.000
     13 H          -2.0722    0.5026    2.1946 H.spc      1 <1>        0.000
     14 H          -1.9602    1.7495    1.2110 H.spc      1 <1>        0.000
     15 H          -0.4202    1.5989   -1.0789 H.spc      1 <1>        0.000
     16 H          -0.1523    0.0389   -1.6531 H.spc      1 <1>        0.000
     17 H          -3.8026    0.1845    0.2505 H.spc      1 <1>        0.000
     18 H          -2.7568    1.3161   -1.5337 H.spc      1 <1>        0.000
     19 H          -2.5040   -0.3288   -1.9469 H.spc      1 <1>        0.000
@<TRIPOS>BOND
     1    6    7 1  
     2    4    6 1  
     3    3    6 1  
     4    5    7 1  
     5    1    2 1  
     6    1    3 1  
     7    2    4 1  
     8    2    5 1  
     9    1    8 1  
    10    1    9 1  
    11    2   10 1  
    12    3   11 1  
    13    3   12 1  
    14    4   13 1  
    15    4   14 1  
    16    5   15 1  
    17    5   16 1  
    18    6   17 1  
    19    7   18 1  
    20    7   19 1  
