#      Rotatable Fragment
#      Build by yxyuan
#
# Name:          frag4-479-92/150395
# Creation time: Sat Jun  5 12:53:38 2010


@<TRIPOS>MOLECULE
frag4-479-92/150395
    7     7     1     1     1
SMALL
USER_CHARGES


@<TRIPOS>ATOM
      1 C2          1.0780   -0.1525   -0.0206 C.ar       1 <1>        0.000
      2 O1         -0.0106   -0.9146   -0.0428 O.3        1 <1>        0.000
      3 N1          0.6945    1.0907    0.0027 N.ar       1 <1>        0.000
      4 C7         -1.0722   -0.2059   -0.0009 C.ar       1 <1>        0.000
      5 N3         -0.6555    1.0815    0.0356 N.ar       1 <1>        0.000
      6 H           2.1090   -0.5061   -0.0217 H.spc      1 <1>        0.000
      7 H          -2.1017   -0.5639    0.0044 H.spc      1 <1>        0.000
@<TRIPOS>BOND
     1    1    2 ar 
     2    1    3 ar 
     3    2    4 ar 
     4    3    5 ar 
     5    4    5 ar 
     6    1    6 1  
     7    4    7 1  
# Name:          frag4-479-92/150395 -- energy: -0.096081
# Creation time: Sat Jun  5 12:53:38 2010


@<TRIPOS>MOLECULE
frag4-479-92/150395 -- energy: -0.096081
    7     7     1     1     1
SMALL
USER_CHARGES


@<TRIPOS>ATOM
      1 C2          1.0780   -0.1525   -0.0206 C.ar       1 <1>        0.000
      2 O1         -0.0106   -0.9146   -0.0428 O.3        1 <1>        0.000
      3 N1          0.6945    1.0907    0.0027 N.ar       1 <1>        0.000
      4 C7         -1.0722   -0.2059   -0.0009 C.ar       1 <1>        0.000
      5 N3         -0.6555    1.0815    0.0356 N.ar       1 <1>        0.000
      6 H           2.1090   -0.5061   -0.0217 H.spc      1 <1>        0.000
      7 H          -2.1017   -0.5639    0.0044 H.spc      1 <1>        0.000
@<TRIPOS>BOND
     1    1    2 ar 
     2    1    3 ar 
     3    2    4 ar 
     4    3    5 ar 
     5    4    5 ar 
     6    1    6 1  
     7    4    7 1  
