#      Rotatable Fragment
#      Build by yxyuan
#
# Name:          frag5-605-98/138278
# Creation time: Sat Jun  5 12:53:46 2010


@<TRIPOS>MOLECULE
frag5-605-98/138278
   26    27     1     1     1
SMALL
USER_CHARGES


@<TRIPOS>ATOM
      1 N2         -0.2688    1.2861    0.3853 N.4        1 <1>        0.000
      2 C14         0.8004    2.2147   -0.0165 C.3        1 <1>        0.000
      3 C15        -0.1347    0.0233   -0.3755 C.3        1 <1>        0.000
      4 C16         2.1828    1.6494    0.3255 C.3        1 <1>        0.000
      5 C17         1.2509   -0.5367   -0.3727 C.2        1 <1>        0.000
      6 C18         2.3452    0.1823   -0.0147 C.2        1 <1>        0.000
      7 C19         3.6797   -0.4904    0.0337 C.ar       1 <1>        0.000
      8 C20         4.0738   -1.5035   -0.8526 C.ar       1 <1>        0.000
      9 C21         4.6210   -0.1040    1.0172 C.ar       1 <1>        0.000
     10 C22         5.3047   -2.1461   -0.7289 C.ar       1 <1>        0.000
     11 C23         5.8151   -0.7986    1.2012 C.ar       1 <1>        0.000
     12 C24         6.1534   -1.8348    0.3332 C.ar       1 <1>        0.000
     13 H          -0.1939    1.0918    1.3838 H.spc      1 <1>        0.000
     14 H          -1.1770    1.7070    0.1894 H.spc      1 <1>        0.000
     15 H           0.7432    2.3656   -1.0945 H.spc      1 <1>        0.000
     16 H           0.6658    3.1536    0.5207 H.spc      1 <1>        0.000
     17 H          -0.7843   -0.7127    0.0982 H.spc      1 <1>        0.000
     18 H          -0.3970    0.2380   -1.4115 H.spc      1 <1>        0.000
     19 H           2.9146    2.2024   -0.2633 H.spc      1 <1>        0.000
     20 H           2.3175    1.7500    1.4025 H.spc      1 <1>        0.000
     21 H           1.3898   -1.5752   -0.6734 H.spc      1 <1>        0.000
     22 H           3.4006   -1.7958   -1.6585 H.spc      1 <1>        0.000
     23 H           4.4065    0.7593    1.6472 H.spc      1 <1>        0.000
     24 H           5.6045   -2.8933   -1.4637 H.spc      1 <1>        0.000
     25 H           6.4820   -0.5322    2.0212 H.spc      1 <1>        0.000
     26 H           7.0745   -2.3979    0.4831 H.spc      1 <1>        0.000
@<TRIPOS>BOND
     1    9   11 ar 
     2    7    9 ar 
     3    4    6 1  
     4   10   12 ar 
     5   11   12 ar 
     6    5    6 2  
     7    3    5 1  
     8    6    7 1  
     9    7    8 ar 
    10    2    4 1  
    11    1    3 1  
    12    1    2 1  
    13    8   10 ar 
    14    1   13 1  
    15    1   14 1  
    16    2   15 1  
    17    2   16 1  
    18    3   17 1  
    19    3   18 1  
    20    4   19 1  
    21    4   20 1  
    22    5   21 1  
    23    8   22 1  
    24    9   23 1  
    25   10   24 1  
    26   11   25 1  
    27   12   26 1  
# Name:          frag5-605-98/138278
# Creation time: Sat Jun  5 12:53:46 2010


@<TRIPOS>MOLECULE
frag5-605-98/138278
   26    27     1     1     1
SMALL
USER_CHARGES


@<TRIPOS>ATOM
      1 N2         -0.3513    1.1197    0.2557 N.4        1 <1>        0.000
      2 C14         0.7240    2.0681    0.5884 C.3        1 <1>        0.000
      3 C15         0.0298    0.3490   -0.9493 C.3        1 <1>        0.000
      4 C16         2.0232    1.3362    0.9358 C.3        1 <1>        0.000
      5 C17         1.4080   -0.2234   -0.8876 C.2        1 <1>        0.000
      6 C18         2.3464    0.1851    0.0054 C.2        1 <1>        0.000
      7 C19         3.6740   -0.4996    0.0395 C.ar       1 <1>        0.000
      8 C20         3.8414   -1.8615   -0.2907 C.ar       1 <1>        0.000
      9 C21         4.8286    0.2003    0.4354 C.ar       1 <1>        0.000
     10 C22         5.0788   -2.4922   -0.1751 C.ar       1 <1>        0.000
     11 C23         6.0486   -0.4417    0.6349 C.ar       1 <1>        0.000
     12 C24         6.1722   -1.7984    0.3429 C.ar       1 <1>        0.000
     13 H          -0.4963    0.4807    1.0374 H.spc      1 <1>        0.000
     14 H          -1.2140    1.6325    0.0737 H.spc      1 <1>        0.000
     15 H           0.9053    2.7049   -0.2774 H.spc      1 <1>        0.000
     16 H           0.4141    2.6546    1.4533 H.spc      1 <1>        0.000
     17 H          -0.6655   -0.4861   -1.0345 H.spc      1 <1>        0.000
     18 H          -0.0000    1.0343   -1.7964 H.spc      1 <1>        0.000
     19 H           2.8349    2.0588    0.8519 H.spc      1 <1>        0.000
     20 H           1.9038    0.9208    1.9364 H.spc      1 <1>        0.000
     21 H           1.6742   -1.0087   -1.5950 H.spc      1 <1>        0.000
     22 H           2.9833   -2.4331   -0.6442 H.spc      1 <1>        0.000
     23 H           4.7665    1.2774    0.5907 H.spc      1 <1>        0.000
     24 H           5.1923   -3.5295   -0.4901 H.spc      1 <1>        0.000
     25 H           6.9035    0.1154    1.0181 H.spc      1 <1>        0.000
     26 H           7.1165   -2.3138    0.5180 H.spc      1 <1>        0.000
@<TRIPOS>BOND
     1    9   11 ar 
     2    7    9 ar 
     3    4    6 1  
     4   10   12 ar 
     5   11   12 ar 
     6    5    6 2  
     7    3    5 1  
     8    6    7 1  
     9    7    8 ar 
    10    2    4 1  
    11    1    3 1  
    12    1    2 1  
    13    8   10 ar 
    14    1   13 1  
    15    1   14 1  
    16    2   15 1  
    17    2   16 1  
    18    3   17 1  
    19    3   18 1  
    20    4   19 1  
    21    4   20 1  
    22    5   21 1  
    23    8   22 1  
    24    9   23 1  
    25   10   24 1  
    26   11   25 1  
    27   12   26 1  
# Name:          frag5-605-98/138278 -- energy: -2.157589
# Creation time: Sat Jun  5 12:53:46 2010


@<TRIPOS>MOLECULE
frag5-605-98/138278 -- energy: -2.157589
   26    27     1     1     1
SMALL
USER_CHARGES


@<TRIPOS>ATOM
      1 N2         -0.2688    1.2861    0.3853 N.4        1 <1>        0.000
      2 C14         0.8004    2.2147   -0.0165 C.3        1 <1>        0.000
      3 C15        -0.1347    0.0233   -0.3755 C.3        1 <1>        0.000
      4 C16         2.1828    1.6494    0.3255 C.3        1 <1>        0.000
      5 C17         1.2509   -0.5367   -0.3727 C.2        1 <1>        0.000
      6 C18         2.3452    0.1823   -0.0147 C.2        1 <1>        0.000
      7 C19         3.6797   -0.4904    0.0337 C.ar       1 <1>        0.000
      8 C20         4.0738   -1.5035   -0.8526 C.ar       1 <1>        0.000
      9 C21         4.6210   -0.1040    1.0172 C.ar       1 <1>        0.000
     10 C22         5.3047   -2.1461   -0.7289 C.ar       1 <1>        0.000
     11 C23         5.8151   -0.7986    1.2012 C.ar       1 <1>        0.000
     12 C24         6.1534   -1.8348    0.3332 C.ar       1 <1>        0.000
     13 H          -0.1939    1.0918    1.3838 H.spc      1 <1>        0.000
     14 H          -1.1770    1.7070    0.1894 H.spc      1 <1>        0.000
     15 H           0.7432    2.3656   -1.0945 H.spc      1 <1>        0.000
     16 H           0.6658    3.1536    0.5207 H.spc      1 <1>        0.000
     17 H          -0.7843   -0.7127    0.0982 H.spc      1 <1>        0.000
     18 H          -0.3970    0.2380   -1.4115 H.spc      1 <1>        0.000
     19 H           2.9146    2.2024   -0.2633 H.spc      1 <1>        0.000
     20 H           2.3175    1.7500    1.4025 H.spc      1 <1>        0.000
     21 H           1.3898   -1.5752   -0.6734 H.spc      1 <1>        0.000
     22 H           3.4006   -1.7958   -1.6585 H.spc      1 <1>        0.000
     23 H           4.4065    0.7593    1.6472 H.spc      1 <1>        0.000
     24 H           5.6045   -2.8933   -1.4637 H.spc      1 <1>        0.000
     25 H           6.4820   -0.5322    2.0212 H.spc      1 <1>        0.000
     26 H           7.0745   -2.3979    0.4831 H.spc      1 <1>        0.000
@<TRIPOS>BOND
     1    9   11 ar 
     2    7    9 ar 
     3    4    6 1  
     4   10   12 ar 
     5   11   12 ar 
     6    5    6 2  
     7    3    5 1  
     8    6    7 1  
     9    7    8 ar 
    10    2    4 1  
    11    1    3 1  
    12    1    2 1  
    13    8   10 ar 
    14    1   13 1  
    15    1   14 1  
    16    2   15 1  
    17    2   16 1  
    18    3   17 1  
    19    3   18 1  
    20    4   19 1  
    21    4   20 1  
    22    5   21 1  
    23    8   22 1  
    24    9   23 1  
    25   10   24 1  
    26   11   25 1  
    27   12   26 1  
# Name:          frag5-605-98/138278 -- energy: -2.016744
# Creation time: Sat Jun  5 12:53:46 2010


@<TRIPOS>MOLECULE
frag5-605-98/138278 -- energy: -2.016744
   26    27     1     1     1
SMALL
USER_CHARGES


@<TRIPOS>ATOM
      1 N2         -0.3513    1.1197    0.2557 N.4        1 <1>        0.000
      2 C14         0.7240    2.0681    0.5884 C.3        1 <1>        0.000
      3 C15         0.0298    0.3490   -0.9493 C.3        1 <1>        0.000
      4 C16         2.0232    1.3362    0.9358 C.3        1 <1>        0.000
      5 C17         1.4080   -0.2234   -0.8876 C.2        1 <1>        0.000
      6 C18         2.3464    0.1851    0.0054 C.2        1 <1>        0.000
      7 C19         3.6740   -0.4996    0.0395 C.ar       1 <1>        0.000
      8 C20         3.8414   -1.8615   -0.2907 C.ar       1 <1>        0.000
      9 C21         4.8286    0.2003    0.4354 C.ar       1 <1>        0.000
     10 C22         5.0788   -2.4922   -0.1751 C.ar       1 <1>        0.000
     11 C23         6.0486   -0.4417    0.6349 C.ar       1 <1>        0.000
     12 C24         6.1722   -1.7984    0.3429 C.ar       1 <1>        0.000
     13 H          -0.4963    0.4807    1.0374 H.spc      1 <1>        0.000
     14 H          -1.2140    1.6325    0.0737 H.spc      1 <1>        0.000
     15 H           0.9053    2.7049   -0.2774 H.spc      1 <1>        0.000
     16 H           0.4141    2.6546    1.4533 H.spc      1 <1>        0.000
     17 H          -0.6655   -0.4861   -1.0345 H.spc      1 <1>        0.000
     18 H          -0.0000    1.0343   -1.7964 H.spc      1 <1>        0.000
     19 H           2.8349    2.0588    0.8519 H.spc      1 <1>        0.000
     20 H           1.9038    0.9208    1.9364 H.spc      1 <1>        0.000
     21 H           1.6742   -1.0087   -1.5950 H.spc      1 <1>        0.000
     22 H           2.9833   -2.4331   -0.6442 H.spc      1 <1>        0.000
     23 H           4.7665    1.2774    0.5907 H.spc      1 <1>        0.000
     24 H           5.1923   -3.5295   -0.4901 H.spc      1 <1>        0.000
     25 H           6.9035    0.1154    1.0181 H.spc      1 <1>        0.000
     26 H           7.1165   -2.3138    0.5180 H.spc      1 <1>        0.000
@<TRIPOS>BOND
     1    9   11 ar 
     2    7    9 ar 
     3    4    6 1  
     4   10   12 ar 
     5   11   12 ar 
     6    5    6 2  
     7    3    5 1  
     8    6    7 1  
     9    7    8 ar 
    10    2    4 1  
    11    1    3 1  
    12    1    2 1  
    13    8   10 ar 
    14    1   13 1  
    15    1   14 1  
    16    2   15 1  
    17    2   16 1  
    18    3   17 1  
    19    3   18 1  
    20    4   19 1  
    21    4   20 1  
    22    5   21 1  
    23    8   22 1  
    24    9   23 1  
    25   10   24 1  
    26   11   25 1  
    27   12   26 1  
