#      Rotatable Fragment
#      Build by yxyuan
#
# Name:          frag5-522-124/41815
# Creation time: Sat Jun  5 12:52:51 2010


@<TRIPOS>MOLECULE
frag5-522-124/41815
   14    14     1     1     1
SMALL
USER_CHARGES


@<TRIPOS>ATOM
      1 C11        -0.5717   -1.2608   -0.1405 C.ar       1 <1>        0.000
      2 C12        -1.4082   -0.1440   -0.0261 C.ar       1 <1>        0.000
      3 C13        -0.8200    1.1167    0.1536 C.ar       1 <1>        0.000
      4 C14         0.5707    1.2535    0.2170 C.ar       1 <1>        0.000
      5 C15         1.4075    0.1355    0.1034 C.ar       1 <1>        0.000
      6 C16         0.8194   -1.1230   -0.0765 C.ar       1 <1>        0.000
      7 O2          2.7847    0.2758    0.1673 O.3        1 <1>        0.000
      8 O3         -2.7816   -0.2910   -0.0897 O.3        1 <1>        0.000
      9 H          -1.0091   -2.2492   -0.2811 H.spc      1 <1>        0.000
     10 H          -1.4533    1.9991    0.2448 H.spc      1 <1>        0.000
     11 H           1.0087    2.2419    0.3565 H.spc      1 <1>        0.000
     12 H           1.4528   -2.0054   -0.1677 H.spc      1 <1>        0.000
     13 H           3.1977   -0.5855    0.0720 H.spc      1 <1>        0.000
     14 H          -3.1990    0.5682    0.0057 H.spc      1 <1>        0.000
@<TRIPOS>BOND
     1    1    2 ar 
     2    1    6 ar 
     3    2    3 ar 
     4    2    8 1  
     5    3    4 ar 
     6    4    5 ar 
     7    5    6 ar 
     8    5    7 1  
     9    1    9 1  
    10    3   10 1  
    11    4   11 1  
    12    6   12 1  
    13    7   13 1  
    14    8   14 1  
# Name:          frag5-522-124/41815 -- energy: -0.153957
# Creation time: Sat Jun  5 12:52:51 2010


@<TRIPOS>MOLECULE
frag5-522-124/41815 -- energy: -0.153957
   14    14     1     1     1
SMALL
USER_CHARGES


@<TRIPOS>ATOM
      1 C11        -0.5717   -1.2608   -0.1405 C.ar       1 <1>        0.000
      2 C12        -1.4082   -0.1440   -0.0261 C.ar       1 <1>        0.000
      3 C13        -0.8200    1.1167    0.1536 C.ar       1 <1>        0.000
      4 C14         0.5707    1.2535    0.2170 C.ar       1 <1>        0.000
      5 C15         1.4075    0.1355    0.1034 C.ar       1 <1>        0.000
      6 C16         0.8194   -1.1230   -0.0765 C.ar       1 <1>        0.000
      7 O2          2.7847    0.2758    0.1673 O.3        1 <1>        0.000
      8 O3         -2.7816   -0.2910   -0.0897 O.3        1 <1>        0.000
      9 H          -1.0091   -2.2492   -0.2811 H.spc      1 <1>        0.000
     10 H          -1.4533    1.9991    0.2448 H.spc      1 <1>        0.000
     11 H           1.0087    2.2419    0.3565 H.spc      1 <1>        0.000
     12 H           1.4528   -2.0054   -0.1677 H.spc      1 <1>        0.000
     13 H           3.1977   -0.5855    0.0720 H.spc      1 <1>        0.000
     14 H          -3.1990    0.5682    0.0057 H.spc      1 <1>        0.000
@<TRIPOS>BOND
     1    1    2 ar 
     2    1    6 ar 
     3    2    3 ar 
     4    2    8 1  
     5    3    4 ar 
     6    4    5 ar 
     7    5    6 ar 
     8    5    7 1  
     9    1    9 1  
    10    3   10 1  
    11    4   11 1  
    12    6   12 1  
    13    7   13 1  
    14    8   14 1  
