#      Rotatable Fragment
#      Build by yxyuan
#
# Name:          frag2-068-2/92655
# Creation time: Sat Jun  5 12:51:58 2010


@<TRIPOS>MOLECULE
frag2-068-2/92655
   15    16     1     1     1
SMALL
USER_CHARGES


@<TRIPOS>ATOM
      1 C1         -2.5019    0.2163   -0.0522 C.ar       1 <1>        0.000
      2 N2         -2.2832   -1.0413    0.4023 N.ar       1 <1>        0.000
      3 C2         -1.0322   -1.5185    0.5603 C.ar       1 <1>        0.000
      4 C3          0.0749   -0.7289    0.2629 C.ar       1 <1>        0.000
      5 N3          1.3366   -1.1847    0.4178 N.ar       1 <1>        0.000
      6 C4          2.3961   -0.4040    0.1247 C.ar       1 <1>        0.000
      7 C5          2.1952    0.8816   -0.3419 C.ar       1 <1>        0.000
      8 N4          0.9432    1.3489   -0.5045 N.ar       1 <1>        0.000
      9 C6         -0.1290    0.5766   -0.2105 C.ar       1 <1>        0.000
     10 C7         -1.4364    1.0348   -0.3621 C.ar       1 <1>        0.000
     11 H          -3.5218    0.5815   -0.1730 H.spc      1 <1>        0.000
     12 H          -0.8859   -2.5351    0.9254 H.spc      1 <1>        0.000
     13 H           3.4087   -0.7857    0.2554 H.spc      1 <1>        0.000
     14 H           3.0494    1.5162   -0.5779 H.spc      1 <1>        0.000
     15 H          -1.6176    2.0456   -0.7276 H.spc      1 <1>        0.000
@<TRIPOS>BOND
     1    9   10 ar 
     2    8    9 ar 
     3    1    2 ar 
     4    1   10 ar 
     5    2    3 ar 
     6    3    4 ar 
     7    4    5 ar 
     8    4    9 ar 
     9    5    6 ar 
    10    6    7 ar 
    11    7    8 ar 
    12    1   11 1  
    13    3   12 1  
    14    6   13 1  
    15    7   14 1  
    16   10   15 1  
# Name:          frag2-068-2/92655 -- energy: 0.337267
# Creation time: Sat Jun  5 12:51:58 2010


@<TRIPOS>MOLECULE
frag2-068-2/92655 -- energy: 0.337267
   15    16     1     1     1
SMALL
USER_CHARGES


@<TRIPOS>ATOM
      1 C1         -2.5019    0.2163   -0.0522 C.ar       1 <1>        0.000
      2 N2         -2.2832   -1.0413    0.4023 N.ar       1 <1>        0.000
      3 C2         -1.0322   -1.5185    0.5603 C.ar       1 <1>        0.000
      4 C3          0.0749   -0.7289    0.2629 C.ar       1 <1>        0.000
      5 N3          1.3366   -1.1847    0.4178 N.ar       1 <1>        0.000
      6 C4          2.3961   -0.4040    0.1247 C.ar       1 <1>        0.000
      7 C5          2.1952    0.8816   -0.3419 C.ar       1 <1>        0.000
      8 N4          0.9432    1.3489   -0.5045 N.ar       1 <1>        0.000
      9 C6         -0.1290    0.5766   -0.2105 C.ar       1 <1>        0.000
     10 C7         -1.4364    1.0348   -0.3621 C.ar       1 <1>        0.000
     11 H          -3.5218    0.5815   -0.1730 H.spc      1 <1>        0.000
     12 H          -0.8859   -2.5351    0.9254 H.spc      1 <1>        0.000
     13 H           3.4087   -0.7857    0.2554 H.spc      1 <1>        0.000
     14 H           3.0494    1.5162   -0.5779 H.spc      1 <1>        0.000
     15 H          -1.6176    2.0456   -0.7276 H.spc      1 <1>        0.000
@<TRIPOS>BOND
     1    9   10 ar 
     2    8    9 ar 
     3    1    2 ar 
     4    1   10 ar 
     5    2    3 ar 
     6    3    4 ar 
     7    4    5 ar 
     8    4    9 ar 
     9    5    6 ar 
    10    6    7 ar 
    11    7    8 ar 
    12    1   11 1  
    13    3   12 1  
    14    6   13 1  
    15    7   14 1  
    16   10   15 1  
