#      Rotatable Fragment
#      Build by yxyuan
#
# Name:          frag5-600-35/41815
# Creation time: Sat Jun  5 12:52:57 2010


@<TRIPOS>MOLECULE
frag5-600-35/41815
   26    28     1     1     1
SMALL
USER_CHARGES


@<TRIPOS>ATOM
      1 C17         1.7337    2.0183    1.2023 C.3        1 <1>        0.000
      2 O2          1.8501    2.6384   -0.0751 O.3        1 <1>        0.000
      3 C18         2.8449    1.9602   -0.8155 C.3        1 <1>        0.000
      4 N4          3.7529    1.5721    0.2428 N.am       1 <1>        0.000
      5 C19         5.1627    1.3020    0.0565 C.3        1 <1>        0.000
      6 C20         5.5068    1.2711   -1.4105 C.2        1 <1>        0.000
      7 N5          4.7574    1.9859   -2.2701 N.am       1 <1>        0.000
      8 C21         3.6459    2.8068   -1.8049 C.3        1 <1>        0.000
      9 C22         2.9391    3.1663   -3.1109 C.3        1 <1>        0.000
     10 C23         3.4344    2.0997   -4.1070 C.3        1 <1>        0.000
     11 C24         4.8864    1.8801   -3.7073 C.3        1 <1>        0.000
     12 O3          6.4612    0.5968   -1.7829 O.2        1 <1>        0.000
     13 C32         3.1563    1.5945    1.4516 C.2        1 <1>        0.000
     14 O4          3.6549    1.3331    2.5321 O.2        1 <1>        0.000
     15 H           1.3289    2.6736    1.9735 H.spc      1 <1>        0.000
     16 H           1.0192    1.1955    1.2278 H.spc      1 <1>        0.000
     17 H           2.3912    1.1840   -1.4318 H.spc      1 <1>        0.000
     18 H           5.7404    2.0907    0.5385 H.spc      1 <1>        0.000
     19 H           5.3978    0.3323    0.4952 H.spc      1 <1>        0.000
     20 H           3.8784    3.7210   -1.2587 H.spc      1 <1>        0.000
     21 H           1.8540    3.1642   -3.0082 H.spc      1 <1>        0.000
     22 H           3.1697    4.1792   -3.4408 H.spc      1 <1>        0.000
     23 H           2.8470    1.1827   -4.0608 H.spc      1 <1>        0.000
     24 H           3.3322    2.4196   -5.1440 H.spc      1 <1>        0.000
     25 H           5.5921    2.5808   -4.1535 H.spc      1 <1>        0.000
     26 H           5.3178    0.9424   -4.0575 H.spc      1 <1>        0.000
@<TRIPOS>BOND
     1    6    7 am 
     2    3    8 1  
     3    5    6 1  
     4   10   11 1  
     5    2    3 1  
     6    3    4 1  
     7    6   12 2  
     8    7    8 1  
     9    7   11 1  
    10    9   10 1  
    11    4   13 am 
    12    1   13 1  
    13    8    9 1  
    14   13   14 2  
    15    1    2 1  
    16    4    5 1  
    17    1   15 1  
    18    1   16 1  
    19    3   17 1  
    20    5   18 1  
    21    5   19 1  
    22    8   20 1  
    23    9   21 1  
    24    9   22 1  
    25   10   23 1  
    26   10   24 1  
    27   11   25 1  
    28   11   26 1  
# Name:          frag5-600-35/41815 -- energy: -3.694591
# Creation time: Sat Jun  5 12:52:57 2010


@<TRIPOS>MOLECULE
frag5-600-35/41815 -- energy: -3.694591
   26    28     1     1     1
SMALL
USER_CHARGES


@<TRIPOS>ATOM
      1 C17         1.7337    2.0183    1.2023 C.3        1 <1>        0.000
      2 O2          1.8501    2.6384   -0.0751 O.3        1 <1>        0.000
      3 C18         2.8449    1.9602   -0.8155 C.3        1 <1>        0.000
      4 N4          3.7529    1.5721    0.2428 N.am       1 <1>        0.000
      5 C19         5.1627    1.3020    0.0565 C.3        1 <1>        0.000
      6 C20         5.5068    1.2711   -1.4105 C.2        1 <1>        0.000
      7 N5          4.7574    1.9859   -2.2701 N.am       1 <1>        0.000
      8 C21         3.6459    2.8068   -1.8049 C.3        1 <1>        0.000
      9 C22         2.9391    3.1663   -3.1109 C.3        1 <1>        0.000
     10 C23         3.4344    2.0997   -4.1070 C.3        1 <1>        0.000
     11 C24         4.8864    1.8801   -3.7073 C.3        1 <1>        0.000
     12 O3          6.4612    0.5968   -1.7829 O.2        1 <1>        0.000
     13 C32         3.1563    1.5945    1.4516 C.2        1 <1>        0.000
     14 O4          3.6549    1.3331    2.5321 O.2        1 <1>        0.000
     15 H           1.3289    2.6736    1.9735 H.spc      1 <1>        0.000
     16 H           1.0192    1.1955    1.2278 H.spc      1 <1>        0.000
     17 H           2.3912    1.1840   -1.4318 H.spc      1 <1>        0.000
     18 H           5.7404    2.0907    0.5385 H.spc      1 <1>        0.000
     19 H           5.3978    0.3323    0.4952 H.spc      1 <1>        0.000
     20 H           3.8784    3.7210   -1.2587 H.spc      1 <1>        0.000
     21 H           1.8540    3.1642   -3.0082 H.spc      1 <1>        0.000
     22 H           3.1697    4.1792   -3.4408 H.spc      1 <1>        0.000
     23 H           2.8470    1.1827   -4.0608 H.spc      1 <1>        0.000
     24 H           3.3322    2.4196   -5.1440 H.spc      1 <1>        0.000
     25 H           5.5921    2.5808   -4.1535 H.spc      1 <1>        0.000
     26 H           5.3178    0.9424   -4.0575 H.spc      1 <1>        0.000
@<TRIPOS>BOND
     1    6    7 am 
     2    3    8 1  
     3    5    6 1  
     4   10   11 1  
     5    2    3 1  
     6    3    4 1  
     7    6   12 2  
     8    7    8 1  
     9    7   11 1  
    10    9   10 1  
    11    4   13 am 
    12    1   13 1  
    13    8    9 1  
    14   13   14 2  
    15    1    2 1  
    16    4    5 1  
    17    1   15 1  
    18    1   16 1  
    19    3   17 1  
    20    5   18 1  
    21    5   19 1  
    22    8   20 1  
    23    9   21 1  
    24    9   22 1  
    25   10   23 1  
    26   10   24 1  
    27   11   25 1  
    28   11   26 1  
