#      Rotatable Fragment
#      Build by yxyuan
#
# Name:          frag5-616-93/138278
# Creation time: Sat Jun  5 12:53:47 2010


@<TRIPOS>MOLECULE
frag5-616-93/138278
   40    40     1     1     1
SMALL
USER_CHARGES


@<TRIPOS>ATOM
      1 C1          3.8720   -0.5918    0.3870 C.3        1 <1>        0.000
      2 C2          3.2930    0.7117   -0.2137 C.3        1 <1>        0.000
      3 C3          2.8471   -1.6690    0.7843 C.3        1 <1>        0.000
      4 C4          2.0295    1.4762    0.2560 C.3        1 <1>        0.000
      5 C7          1.9688   -2.1712   -0.3844 C.3        1 <1>        0.000
      6 O7         -1.6004   -2.9073   -1.1125 O.3        1 <1>        0.000
      7 C9          1.7666    2.7475   -0.5773 C.3        1 <1>        0.000
      8 C12         0.6446   -2.7826    0.0775 C.3        1 <1>        0.000
      9 C13         0.4678    3.4327   -0.2269 C.2        1 <1>        0.000
     10 C17        -0.2637   -3.0807   -1.1026 C.2        1 <1>        0.000
     11 C18        -0.8655    2.8681   -0.5043 C.2        1 <1>        0.000
     12 O6          0.5091    4.5204    0.3424 O.2        1 <1>        0.000
     13 O8          0.2555   -3.5477   -2.1182 O.2        1 <1>        0.000
     14 C22        -1.1605    1.9214   -1.4054 C.2        1 <1>        0.000
     15 C27        -2.2031   -2.1458   -0.0679 C.3        1 <1>        0.000
     16 C28        -2.5063    1.3737   -1.5769 C.2        1 <1>        0.000
     17 C31        -1.8071   -0.6971   -0.3998 C.3        1 <1>        0.000
     18 C33        -2.8263    0.1508   -1.1205 C.2        1 <1>        0.000
     19 H           4.3829   -0.3035    1.3057 H.spc      1 <1>        0.000
     20 H           4.4947   -1.0352   -0.3900 H.spc      1 <1>        0.000
     21 H           2.9870    0.3761   -1.2046 H.spc      1 <1>        0.000
     22 H           4.0799    1.4276    0.0237 H.spc      1 <1>        0.000
     23 H           3.4093   -2.5261    1.1550 H.spc      1 <1>        0.000
     24 H           2.1784   -1.2207    1.5191 H.spc      1 <1>        0.000
     25 H           1.1719    0.8136    0.1393 H.spc      1 <1>        0.000
     26 H           2.1841    1.7783    1.2918 H.spc      1 <1>        0.000
     27 H           1.7348   -1.3132   -1.0146 H.spc      1 <1>        0.000
     28 H           2.5269   -2.9478   -0.9074 H.spc      1 <1>        0.000
     29 H           1.7100    2.4495   -1.6242 H.spc      1 <1>        0.000
     30 H           2.5752    3.4491   -0.3722 H.spc      1 <1>        0.000
     31 H           0.1422   -2.0705    0.7322 H.spc      1 <1>        0.000
     32 H           0.8555   -3.7163    0.5989 H.spc      1 <1>        0.000
     33 H          -1.6955    3.2606    0.0832 H.spc      1 <1>        0.000
     34 H          -0.3603    1.5414   -2.0405 H.spc      1 <1>        0.000
     35 H          -3.2836   -2.2823   -0.0233 H.spc      1 <1>        0.000
     36 H          -1.8638   -2.4540    0.9210 H.spc      1 <1>        0.000
     37 H          -3.2646    1.9694   -2.0850 H.spc      1 <1>        0.000
     38 H          -1.6428   -0.2086    0.5606 H.spc      1 <1>        0.000
     39 H          -0.9545   -0.7714   -1.0749 H.spc      1 <1>        0.000
     40 H          -3.8349   -0.2335   -1.2729 H.spc      1 <1>        0.000
@<TRIPOS>BOND
     1    1    2 1  
     2    5    8 1  
     3    4    7 1  
     4    7    9 1  
     5    3    5 1  
     6    1    3 1  
     7    2    4 1  
     8   17   18 1  
     9   16   18 2  
    10   15   17 1  
    11    6   15 1  
    12   14   16 1  
    13   11   14 2  
    14   10    6 1  
    15    9   12 2  
    16    9   11 1  
    17   10   13 2  
    18    8   10 1  
    19    1   19 1  
    20    1   20 1  
    21    2   21 1  
    22    2   22 1  
    23    3   23 1  
    24    3   24 1  
    25    4   25 1  
    26    4   26 1  
    27    5   27 1  
    28    5   28 1  
    29    7   29 1  
    30    7   30 1  
    31    8   31 1  
    32    8   32 1  
    33   11   33 1  
    34   14   34 1  
    35   15   35 1  
    36   15   36 1  
    37   16   37 1  
    38   17   38 1  
    39   17   39 1  
    40   18   40 1  
# Name:          frag5-616-93/138278
# Creation time: Sat Jun  5 12:53:47 2010


@<TRIPOS>MOLECULE
frag5-616-93/138278
   40    40     1     1     1
SMALL
USER_CHARGES


@<TRIPOS>ATOM
      1 C1          3.7235   -0.5093    0.2660 C.3        1 <1>        0.000
      2 C2          3.3583    0.8295   -0.3352 C.3        1 <1>        0.000
      3 C3          2.6945   -1.5723    0.6223 C.3        1 <1>        0.000
      4 C4          2.0649    1.4844    0.0442 C.3        1 <1>        0.000
      5 C7          2.1918   -2.5133   -0.4543 C.3        1 <1>        0.000
      6 O7         -1.0478   -2.5257    0.1922 O.3        1 <1>        0.000
      7 C9          1.6404    2.7963   -0.5616 C.3        1 <1>        0.000
      8 C12         1.1460   -3.5510   -0.1273 C.3        1 <1>        0.000
      9 C13         0.3715    3.4005    0.0210 C.2        1 <1>        0.000
     10 C17        -0.2229   -3.2162   -0.6172 C.2        1 <1>        0.000
     11 C18        -0.9551    2.8185   -0.2550 C.2        1 <1>        0.000
     12 O6          0.4265    4.3505    0.8003 O.2        1 <1>        0.000
     13 O8         -0.5165   -3.5430   -1.7703 O.2        1 <1>        0.000
     14 C22        -1.3123    2.2190   -1.3911 C.2        1 <1>        0.000
     15 C27        -2.1361   -1.8966   -0.4447 C.3        1 <1>        0.000
     16 C28        -2.5297    1.5799   -1.7779 C.2        1 <1>        0.000
     17 C31        -1.7435   -0.7939   -1.4038 C.3        1 <1>        0.000
     18 C33        -2.7325    0.2518   -1.7706 C.2        1 <1>        0.000
     19 H           4.1429   -0.2380    1.2348 H.spc      1 <1>        0.000
     20 H           4.3044   -0.9841   -0.5247 H.spc      1 <1>        0.000
     21 H           3.2657    0.6355   -1.4038 H.spc      1 <1>        0.000
     22 H           4.1284    1.5121    0.0241 H.spc      1 <1>        0.000
     23 H           3.2002   -2.2178    1.3404 H.spc      1 <1>        0.000
     24 H           1.8132   -1.0115    0.9337 H.spc      1 <1>        0.000
     25 H           1.3063    0.7812   -0.2995 H.spc      1 <1>        0.000
     26 H           2.1900    1.7145    1.1023 H.spc      1 <1>        0.000
     27 H           1.7078   -1.8603   -1.1805 H.spc      1 <1>        0.000
     28 H           3.0697   -3.0935   -0.7385 H.spc      1 <1>        0.000
     29 H           1.4391    2.6031   -1.6153 H.spc      1 <1>        0.000
     30 H           2.4436    3.5061   -0.3638 H.spc      1 <1>        0.000
     31 H           1.0905   -3.6201    0.9591 H.spc      1 <1>        0.000
     32 H           1.4462   -4.4760   -0.6196 H.spc      1 <1>        0.000
     33 H          -1.7045    2.8837    0.5338 H.spc      1 <1>        0.000
     34 H          -0.5395    2.2161   -2.1598 H.spc      1 <1>        0.000
     35 H          -2.6518   -2.6600   -1.0273 H.spc      1 <1>        0.000
     36 H          -2.7450   -1.4409    0.3361 H.spc      1 <1>        0.000
     37 H          -3.3536    2.2155   -2.1024 H.spc      1 <1>        0.000
     38 H          -0.9499   -0.2523   -0.8890 H.spc      1 <1>        0.000
     39 H          -1.5285   -1.3086   -2.3403 H.spc      1 <1>        0.000
     40 H          -3.7239   -0.0935   -2.0638 H.spc      1 <1>        0.000
@<TRIPOS>BOND
     1    1    2 1  
     2    5    8 1  
     3    4    7 1  
     4    7    9 1  
     5    3    5 1  
     6    1    3 1  
     7    2    4 1  
     8   17   18 1  
     9   16   18 2  
    10   15   17 1  
    11    6   15 1  
    12   14   16 1  
    13   11   14 2  
    14   10    6 1  
    15    9   12 2  
    16    9   11 1  
    17   10   13 2  
    18    8   10 1  
    19    1   19 1  
    20    1   20 1  
    21    2   21 1  
    22    2   22 1  
    23    3   23 1  
    24    3   24 1  
    25    4   25 1  
    26    4   26 1  
    27    5   27 1  
    28    5   28 1  
    29    7   29 1  
    30    7   30 1  
    31    8   31 1  
    32    8   32 1  
    33   11   33 1  
    34   14   34 1  
    35   15   35 1  
    36   15   36 1  
    37   16   37 1  
    38   17   38 1  
    39   17   39 1  
    40   18   40 1  
# Name:          frag5-616-93/138278
# Creation time: Sat Jun  5 12:53:47 2010


@<TRIPOS>MOLECULE
frag5-616-93/138278
   40    40     1     1     1
SMALL
USER_CHARGES


@<TRIPOS>ATOM
      1 C1          2.7730   -0.7574   -0.8574 C.3        1 <1>        0.000
      2 C2          2.9131    0.7436   -0.6634 C.3        1 <1>        0.000
      3 C3          2.5088   -1.6022    0.3666 C.3        1 <1>        0.000
      4 C4          1.9610    1.5418    0.2017 C.3        1 <1>        0.000
      5 C7          2.3775   -3.0895    0.1302 C.3        1 <1>        0.000
      6 O7         -1.2742   -2.9665    0.0040 O.3        1 <1>        0.000
      7 C9          1.7978    3.0134   -0.0842 C.3        1 <1>        0.000
      8 C12         1.0244   -3.7424    0.1983 C.3        1 <1>        0.000
      9 C13         0.4043    3.6068    0.0759 C.2        1 <1>        0.000
     10 C17        -0.0539   -3.0389   -0.5677 C.2        1 <1>        0.000
     11 C18        -0.8105    3.0074   -0.5457 C.2        1 <1>        0.000
     12 O6          0.2479    4.6305    0.7525 O.2        1 <1>        0.000
     13 O8          0.2108   -2.5348   -1.6630 O.2        1 <1>        0.000
     14 C22        -0.8644    2.0289   -1.4592 C.2        1 <1>        0.000
     15 C27        -2.2174   -2.1567   -0.6616 C.3        1 <1>        0.000
     16 C28        -1.9842    1.3683   -2.0551 C.2        1 <1>        0.000
     17 C31        -2.0782   -0.6482   -0.4960 C.3        1 <1>        0.000
     18 C33        -2.5148    0.2051   -1.6389 C.2        1 <1>        0.000
     19 H           3.7365   -1.0930   -1.2409 H.spc      1 <1>        0.000
     20 H           1.8997   -0.8886   -1.4963 H.spc      1 <1>        0.000
     21 H           2.7440    1.1448   -1.6627 H.spc      1 <1>        0.000
     22 H           3.8682    0.8441   -0.1479 H.spc      1 <1>        0.000
     23 H           3.3710   -1.4713    1.0205 H.spc      1 <1>        0.000
     24 H           1.5506   -1.2703    0.7664 H.spc      1 <1>        0.000
     25 H           0.9782    1.1048    0.0247 H.spc      1 <1>        0.000
     26 H           2.3762    1.4898    1.2082 H.spc      1 <1>        0.000
     27 H           2.6982   -3.2317   -0.9018 H.spc      1 <1>        0.000
     28 H           2.9428   -3.5465    0.9424 H.spc      1 <1>        0.000
     29 H           2.0525    3.1392   -1.1365 H.spc      1 <1>        0.000
     30 H           2.4224    3.5267    0.6469 H.spc      1 <1>        0.000
     31 H           0.7231   -3.7361    1.2458 H.spc      1 <1>        0.000
     32 H           1.1296   -4.7337   -0.2425 H.spc      1 <1>        0.000
     33 H          -1.7679    3.4129   -0.2185 H.spc      1 <1>        0.000
     34 H           0.1074    1.6776   -1.8062 H.spc      1 <1>        0.000
     35 H          -2.0782   -2.3523   -1.7248 H.spc      1 <1>        0.000
     36 H          -3.1852   -2.4141   -0.2313 H.spc      1 <1>        0.000
     37 H          -2.4458    1.8476   -2.9184 H.spc      1 <1>        0.000
     38 H          -2.7266   -0.3806    0.3383 H.spc      1 <1>        0.000
     39 H          -1.0112   -0.4604   -0.3767 H.spc      1 <1>        0.000
     40 H          -3.3703   -0.1597   -2.2073 H.spc      1 <1>        0.000
@<TRIPOS>BOND
     1    1    2 1  
     2    5    8 1  
     3    4    7 1  
     4    7    9 1  
     5    3    5 1  
     6    1    3 1  
     7    2    4 1  
     8   17   18 1  
     9   16   18 2  
    10   15   17 1  
    11    6   15 1  
    12   14   16 1  
    13   11   14 2  
    14   10    6 1  
    15    9   12 2  
    16    9   11 1  
    17   10   13 2  
    18    8   10 1  
    19    1   19 1  
    20    1   20 1  
    21    2   21 1  
    22    2   22 1  
    23    3   23 1  
    24    3   24 1  
    25    4   25 1  
    26    4   26 1  
    27    5   27 1  
    28    5   28 1  
    29    7   29 1  
    30    7   30 1  
    31    8   31 1  
    32    8   32 1  
    33   11   33 1  
    34   14   34 1  
    35   15   35 1  
    36   15   36 1  
    37   16   37 1  
    38   17   38 1  
    39   17   39 1  
    40   18   40 1  
# Name:          frag5-616-93/138278
# Creation time: Sat Jun  5 12:53:47 2010


@<TRIPOS>MOLECULE
frag5-616-93/138278
   40    40     1     1     1
SMALL
USER_CHARGES


@<TRIPOS>ATOM
      1 C1          3.0651   -0.2737    1.0800 C.3        1 <1>        0.000
      2 C2          3.2002    0.6710   -0.1059 C.3        1 <1>        0.000
      3 C3          2.0236   -1.3795    0.9760 C.3        1 <1>        0.000
      4 C4          1.8927    1.2237   -0.5969 C.3        1 <1>        0.000
      5 C7          2.2787   -2.4787   -0.0293 C.3        1 <1>        0.000
      6 O7         -1.1862   -3.1494   -0.5842 O.3        1 <1>        0.000
      7 C9          1.7589    2.6041   -1.1500 C.3        1 <1>        0.000
      8 C12         1.2136   -3.4934   -0.3658 C.3        1 <1>        0.000
      9 C13         0.6933    3.4128   -0.4329 C.2        1 <1>        0.000
     10 C17         0.0226   -3.0472   -1.1623 C.2        1 <1>        0.000
     11 C18        -0.7063    2.9232   -0.3171 C.2        1 <1>        0.000
     12 O6          0.9849    4.4723    0.1251 O.2        1 <1>        0.000
     13 O8          0.1869   -2.5672   -2.2834 O.2        1 <1>        0.000
     14 C22        -1.3086    2.0431   -1.1260 C.2        1 <1>        0.000
     15 C27        -2.1645   -2.2076   -0.9554 C.3        1 <1>        0.000
     16 C28        -2.6212    1.4817   -1.0591 C.2        1 <1>        0.000
     17 C31        -1.9868   -0.8535   -0.2836 C.3        1 <1>        0.000
     18 C33        -2.9261    0.2275   -0.6921 C.2        1 <1>        0.000
     19 H           2.7527    0.3482    1.9189 H.spc      1 <1>        0.000
     20 H           4.0264   -0.7805    1.1648 H.spc      1 <1>        0.000
     21 H           3.6392    0.1016   -0.9252 H.spc      1 <1>        0.000
     22 H           3.8068    1.5158    0.2205 H.spc      1 <1>        0.000
     23 H           2.0127   -1.8674    1.9506 H.spc      1 <1>        0.000
     24 H           1.1050   -0.8904    0.6520 H.spc      1 <1>        0.000
     25 H           1.6555    0.5875   -1.4496 H.spc      1 <1>        0.000
     26 H           1.2787    1.2533    0.3032 H.spc      1 <1>        0.000
     27 H           2.4388   -1.9455   -0.9664 H.spc      1 <1>        0.000
     28 H           3.0719   -3.0718    0.4258 H.spc      1 <1>        0.000
     29 H           1.4717    2.5215   -2.1982 H.spc      1 <1>        0.000
     30 H           2.7137    3.1137   -1.0205 H.spc      1 <1>        0.000
     31 H           0.8098   -3.8109    0.5955 H.spc      1 <1>        0.000
     32 H           1.7132   -4.2329   -0.9917 H.spc      1 <1>        0.000
     33 H          -1.2995    3.3198    0.5069 H.spc      1 <1>        0.000
     34 H          -0.7041    1.7015   -1.9662 H.spc      1 <1>        0.000
     35 H          -2.0806   -2.0538   -2.0312 H.spc      1 <1>        0.000
     36 H          -3.1331   -2.6019   -0.6481 H.spc      1 <1>        0.000
     37 H          -3.4518    2.1328   -1.3315 H.spc      1 <1>        0.000
     38 H          -2.1666   -1.0205    0.7784 H.spc      1 <1>        0.000
     39 H          -0.9922   -0.5079   -0.5655 H.spc      1 <1>        0.000
     40 H          -3.9852   -0.0302   -0.6931 H.spc      1 <1>        0.000
@<TRIPOS>BOND
     1    1    2 1  
     2    5    8 1  
     3    4    7 1  
     4    7    9 1  
     5    3    5 1  
     6    1    3 1  
     7    2    4 1  
     8   17   18 1  
     9   16   18 2  
    10   15   17 1  
    11    6   15 1  
    12   14   16 1  
    13   11   14 2  
    14   10    6 1  
    15    9   12 2  
    16    9   11 1  
    17   10   13 2  
    18    8   10 1  
    19    1   19 1  
    20    1   20 1  
    21    2   21 1  
    22    2   22 1  
    23    3   23 1  
    24    3   24 1  
    25    4   25 1  
    26    4   26 1  
    27    5   27 1  
    28    5   28 1  
    29    7   29 1  
    30    7   30 1  
    31    8   31 1  
    32    8   32 1  
    33   11   33 1  
    34   14   34 1  
    35   15   35 1  
    36   15   36 1  
    37   16   37 1  
    38   17   38 1  
    39   17   39 1  
    40   18   40 1  
# Name:          frag5-616-93/138278
# Creation time: Sat Jun  5 12:53:47 2010


@<TRIPOS>MOLECULE
frag5-616-93/138278
   40    40     1     1     1
SMALL
USER_CHARGES


@<TRIPOS>ATOM
      1 C1          3.7584   -0.4584   -0.1388 C.3        1 <1>        0.000
      2 C2          3.2265    0.7997   -0.8017 C.3        1 <1>        0.000
      3 C3          2.9373   -1.7247   -0.2504 C.3        1 <1>        0.000
      4 C4          1.9766    1.4145   -0.2190 C.3        1 <1>        0.000
      5 C7          1.7673   -2.0359    0.6655 C.3        1 <1>        0.000
      6 O7         -0.3084   -2.6157   -1.5305 O.3        1 <1>        0.000
      7 C9          1.6302    2.8392   -0.5565 C.3        1 <1>        0.000
      8 C12         1.0524   -3.3635    0.3983 C.3        1 <1>        0.000
      9 C13         0.4096    3.3416    0.1746 C.2        1 <1>        0.000
     10 C17        -0.2589   -3.2529   -0.3433 C.2        1 <1>        0.000
     11 C18        -0.9403    2.7998   -0.0908 C.2        1 <1>        0.000
     12 O6          0.5346    4.1693    1.0770 O.2        1 <1>        0.000
     13 O8         -1.2682   -3.7488    0.1662 O.2        1 <1>        0.000
     14 C22        -1.3444    2.2492   -1.2417 C.2        1 <1>        0.000
     15 C27        -1.5704   -2.0497   -1.8573 C.3        1 <1>        0.000
     16 C28        -2.5775    1.6403   -1.6418 C.2        1 <1>        0.000
     17 C31        -1.7979   -0.7076   -1.1645 C.3        1 <1>        0.000
     18 C33        -2.8058    0.3128   -1.6084 C.2        1 <1>        0.000
     19 H           3.7931   -0.2303    0.9265 H.spc      1 <1>        0.000
     20 H           4.6970   -0.6777   -0.6478 H.spc      1 <1>        0.000
     21 H           2.9654    0.5090   -1.8193 H.spc      1 <1>        0.000
     22 H           4.0081    1.5498   -0.6807 H.spc      1 <1>        0.000
     23 H           2.4674   -1.6299   -1.2293 H.spc      1 <1>        0.000
     24 H           3.6559   -2.5081   -0.0095 H.spc      1 <1>        0.000
     25 H           1.1581    0.8241   -0.6309 H.spc      1 <1>        0.000
     26 H           2.1437    1.4165    0.8581 H.spc      1 <1>        0.000
     27 H           2.1733   -2.1008    1.6750 H.spc      1 <1>        0.000
     28 H           1.0301   -1.2495    0.5038 H.spc      1 <1>        0.000
     29 H           1.4179    2.8840   -1.6247 H.spc      1 <1>        0.000
     30 H           2.4733    3.4636   -0.2610 H.spc      1 <1>        0.000
     31 H           0.8245   -3.7967    1.3722 H.spc      1 <1>        0.000
     32 H           1.7177   -3.9551   -0.2307 H.spc      1 <1>        0.000
     33 H          -1.6677    2.8534    0.7193 H.spc      1 <1>        0.000
     34 H          -0.5885    2.2677   -2.0268 H.spc      1 <1>        0.000
     35 H          -1.5992   -1.8845   -2.9343 H.spc      1 <1>        0.000
     36 H          -2.3471   -2.7386   -1.5253 H.spc      1 <1>        0.000
     37 H          -3.3790    2.2895   -1.9943 H.spc      1 <1>        0.000
     38 H          -2.1756   -1.0055   -0.1864 H.spc      1 <1>        0.000
     39 H          -0.8508   -0.1927   -1.3259 H.spc      1 <1>        0.000
     40 H          -3.7863   -0.0436   -1.9243 H.spc      1 <1>        0.000
@<TRIPOS>BOND
     1    1    2 1  
     2    5    8 1  
     3    4    7 1  
     4    7    9 1  
     5    3    5 1  
     6    1    3 1  
     7    2    4 1  
     8   17   18 1  
     9   16   18 2  
    10   15   17 1  
    11    6   15 1  
    12   14   16 1  
    13   11   14 2  
    14   10    6 1  
    15    9   12 2  
    16    9   11 1  
    17   10   13 2  
    18    8   10 1  
    19    1   19 1  
    20    1   20 1  
    21    2   21 1  
    22    2   22 1  
    23    3   23 1  
    24    3   24 1  
    25    4   25 1  
    26    4   26 1  
    27    5   27 1  
    28    5   28 1  
    29    7   29 1  
    30    7   30 1  
    31    8   31 1  
    32    8   32 1  
    33   11   33 1  
    34   14   34 1  
    35   15   35 1  
    36   15   36 1  
    37   16   37 1  
    38   17   38 1  
    39   17   39 1  
    40   18   40 1  
# Name:          frag5-616-93/138278
# Creation time: Sat Jun  5 12:53:47 2010


@<TRIPOS>MOLECULE
frag5-616-93/138278
   40    40     1     1     1
SMALL
USER_CHARGES


@<TRIPOS>ATOM
      1 C1          3.0957   -0.6497    0.9163 C.3        1 <1>        0.000
      2 C2          3.0660    0.6403    0.1204 C.3        1 <1>        0.000
      3 C3          2.1034   -1.7568    0.6246 C.3        1 <1>        0.000
      4 C4          1.9256    1.6058    0.3385 C.3        1 <1>        0.000
      5 C7          2.3558   -2.6087   -0.5986 C.3        1 <1>        0.000
      6 O7         -0.7025   -2.9171    0.0843 O.3        1 <1>        0.000
      7 C9          1.7361    2.7887   -0.5833 C.3        1 <1>        0.000
      8 C12         1.2820   -3.4178   -1.2767 C.3        1 <1>        0.000
      9 C13         0.4547    3.5675   -0.3529 C.2        1 <1>        0.000
     10 C17        -0.1655   -2.9848   -1.1566 C.2        1 <1>        0.000
     11 C18        -0.8626    2.9242   -0.5368 C.2        1 <1>        0.000
     12 O6          0.4906    4.7309    0.0502 O.2        1 <1>        0.000
     13 O8         -0.8277   -2.6890   -2.1550 O.2        1 <1>        0.000
     14 C22        -1.0855    1.9796   -1.4615 C.2        1 <1>        0.000
     15 C27        -1.9052   -2.1678    0.1161 C.3        1 <1>        0.000
     16 C28        -2.2285    1.1905   -1.7954 C.2        1 <1>        0.000
     17 C31        -1.7657   -0.6545   -0.1033 C.3        1 <1>        0.000
     18 C33        -2.5457    0.0280   -1.1932 C.2        1 <1>        0.000
     19 H           2.8619   -0.3416    1.9354 H.spc      1 <1>        0.000
     20 H           4.0648   -1.0888    0.6793 H.spc      1 <1>        0.000
     21 H           2.9754    0.3276   -0.9198 H.spc      1 <1>        0.000
     22 H           3.9585    1.1836    0.4310 H.spc      1 <1>        0.000
     23 H           2.1609   -2.4365    1.4748 H.spc      1 <1>        0.000
     24 H           1.1500   -1.2594    0.4464 H.spc      1 <1>        0.000
     25 H           1.0303    1.0024    0.1888 H.spc      1 <1>        0.000
     26 H           2.1344    2.0532    1.3103 H.spc      1 <1>        0.000
     27 H           2.6279   -1.8753   -1.3577 H.spc      1 <1>        0.000
     28 H           3.0429   -3.3706   -0.2306 H.spc      1 <1>        0.000
     29 H           1.6929    2.3972   -1.5996 H.spc      1 <1>        0.000
     30 H           2.5633    3.4737   -0.3972 H.spc      1 <1>        0.000
     31 H           1.3208   -4.3924   -0.7902 H.spc      1 <1>        0.000
     32 H           1.5069   -3.3402   -2.3404 H.spc      1 <1>        0.000
     33 H          -1.6877    3.2305    0.1063 H.spc      1 <1>        0.000
     34 H          -0.2171    1.7710   -2.0863 H.spc      1 <1>        0.000
     35 H          -2.5178   -2.5397   -0.7052 H.spc      1 <1>        0.000
     36 H          -2.3165   -2.2940    1.1176 H.spc      1 <1>        0.000
     37 H          -2.8851    1.5516   -2.5870 H.spc      1 <1>        0.000
     38 H          -2.1439   -0.2116    0.8180 H.spc      1 <1>        0.000
     39 H          -0.7231   -0.5178   -0.3905 H.spc      1 <1>        0.000
     40 H          -3.4572   -0.4666   -1.5288 H.spc      1 <1>        0.000
@<TRIPOS>BOND
     1    1    2 1  
     2    5    8 1  
     3    4    7 1  
     4    7    9 1  
     5    3    5 1  
     6    1    3 1  
     7    2    4 1  
     8   17   18 1  
     9   16   18 2  
    10   15   17 1  
    11    6   15 1  
    12   14   16 1  
    13   11   14 2  
    14   10    6 1  
    15    9   12 2  
    16    9   11 1  
    17   10   13 2  
    18    8   10 1  
    19    1   19 1  
    20    1   20 1  
    21    2   21 1  
    22    2   22 1  
    23    3   23 1  
    24    3   24 1  
    25    4   25 1  
    26    4   26 1  
    27    5   27 1  
    28    5   28 1  
    29    7   29 1  
    30    7   30 1  
    31    8   31 1  
    32    8   32 1  
    33   11   33 1  
    34   14   34 1  
    35   15   35 1  
    36   15   36 1  
    37   16   37 1  
    38   17   38 1  
    39   17   39 1  
    40   18   40 1  
# Name:          frag5-616-93/138278
# Creation time: Sat Jun  5 12:53:47 2010


@<TRIPOS>MOLECULE
frag5-616-93/138278
   40    40     1     1     1
SMALL
USER_CHARGES


@<TRIPOS>ATOM
      1 C1          3.1780   -0.8622    0.4531 C.3        1 <1>        0.000
      2 C2          3.1298    0.6036    0.0661 C.3        1 <1>        0.000
      3 C3          3.2826   -1.8364   -0.7055 C.3        1 <1>        0.000
      4 C4          1.8930    1.3950    0.4365 C.3        1 <1>        0.000
      5 C7          1.9819   -2.2060   -1.4001 C.3        1 <1>        0.000
      6 O7         -1.2433   -3.1240   -0.9468 O.3        1 <1>        0.000
      7 C9          1.7312    2.6970   -0.3182 C.3        1 <1>        0.000
      8 C12         1.1896   -3.3387   -0.7820 C.3        1 <1>        0.000
      9 C13         0.4389    3.4474   -0.0468 C.2        1 <1>        0.000
     10 C17        -0.1298   -2.9292   -0.2071 C.2        1 <1>        0.000
     11 C18        -0.8825    2.9092   -0.4796 C.2        1 <1>        0.000
     12 O6          0.4379    4.5133    0.5762 O.2        1 <1>        0.000
     13 O8         -0.1345   -2.3797    0.8773 O.2        1 <1>        0.000
     14 C22        -1.1140    2.0435   -1.4736 C.2        1 <1>        0.000
     15 C27        -2.2961   -2.2265   -0.6837 C.3        1 <1>        0.000
     16 C28        -2.3434    1.4471   -1.9195 C.2        1 <1>        0.000
     17 C31        -1.9468   -0.7471   -0.7929 C.3        1 <1>        0.000
     18 C33        -2.7514    0.2029   -1.6165 C.2        1 <1>        0.000
     19 H           2.2390   -1.0816    0.9612 H.spc      1 <1>        0.000
     20 H           4.0765   -0.9963    1.0554 H.spc      1 <1>        0.000
     21 H           3.1667    0.6169   -1.0232 H.spc      1 <1>        0.000
     22 H           3.9485    1.0740    0.6107 H.spc      1 <1>        0.000
     23 H           3.8980   -1.3446   -1.4588 H.spc      1 <1>        0.000
     24 H           3.6749   -2.7630   -0.2864 H.spc      1 <1>        0.000
     25 H           1.0316    0.7743    0.1899 H.spc      1 <1>        0.000
     26 H           1.9807    1.6477    1.4932 H.spc      1 <1>        0.000
     27 H           1.3452   -1.3232   -1.3419 H.spc      1 <1>        0.000
     28 H           2.2563   -2.5385   -2.4012 H.spc      1 <1>        0.000
     29 H           1.7294    2.4452   -1.3787 H.spc      1 <1>        0.000
     30 H           2.5440    3.3479    0.0040 H.spc      1 <1>        0.000
     31 H           1.7867   -3.7356    0.0390 H.spc      1 <1>        0.000
     32 H           0.9833   -4.0555   -1.5769 H.spc      1 <1>        0.000
     33 H          -1.7543    3.2587    0.0734 H.spc      1 <1>        0.000
     34 H          -0.2291    1.7427   -2.0345 H.spc      1 <1>        0.000
     35 H          -3.0610   -2.4192   -1.4359 H.spc      1 <1>        0.000
     36 H          -2.5959   -2.3972    0.3503 H.spc      1 <1>        0.000
     37 H          -2.9948    2.0502   -2.5520 H.spc      1 <1>        0.000
     38 H          -2.0812   -0.3786    0.2241 H.spc      1 <1>        0.000
     39 H          -0.9750   -0.7512   -1.2866 H.spc      1 <1>        0.000
     40 H          -3.7194   -0.1295   -1.9914 H.spc      1 <1>        0.000
@<TRIPOS>BOND
     1    1    2 1  
     2    5    8 1  
     3    4    7 1  
     4    7    9 1  
     5    3    5 1  
     6    1    3 1  
     7    2    4 1  
     8   17   18 1  
     9   16   18 2  
    10   15   17 1  
    11    6   15 1  
    12   14   16 1  
    13   11   14 2  
    14   10    6 1  
    15    9   12 2  
    16    9   11 1  
    17   10   13 2  
    18    8   10 1  
    19    1   19 1  
    20    1   20 1  
    21    2   21 1  
    22    2   22 1  
    23    3   23 1  
    24    3   24 1  
    25    4   25 1  
    26    4   26 1  
    27    5   27 1  
    28    5   28 1  
    29    7   29 1  
    30    7   30 1  
    31    8   31 1  
    32    8   32 1  
    33   11   33 1  
    34   14   34 1  
    35   15   35 1  
    36   15   36 1  
    37   16   37 1  
    38   17   38 1  
    39   17   39 1  
    40   18   40 1  
# Name:          frag5-616-93/138278
# Creation time: Sat Jun  5 12:53:47 2010


@<TRIPOS>MOLECULE
frag5-616-93/138278
   40    40     1     1     1
SMALL
USER_CHARGES


@<TRIPOS>ATOM
      1 C1          3.5657   -0.6462    0.9112 C.3        1 <1>        0.000
      2 C2          3.2649    0.7081    0.2854 C.3        1 <1>        0.000
      3 C3          2.6492   -1.8279    0.6715 C.3        1 <1>        0.000
      4 C4          1.8493    1.1039   -0.1071 C.3        1 <1>        0.000
      5 C7          2.5837   -2.5634   -0.6657 C.3        1 <1>        0.000
      6 O7         -1.0631   -2.3212   -1.6989 O.3        1 <1>        0.000
      7 C9          1.6397    2.3544   -0.9313 C.3        1 <1>        0.000
      8 C12         1.3823   -2.4116   -1.5891 C.3        1 <1>        0.000
      9 C13         0.5548    3.2797   -0.4155 C.2        1 <1>        0.000
     10 C17         0.0269   -2.6567   -0.9721 C.2        1 <1>        0.000
     11 C18        -0.8525    2.8269   -0.3241 C.2        1 <1>        0.000
     12 O6          0.8299    4.4147   -0.0219 O.2        1 <1>        0.000
     13 O8         -0.0599   -3.1339    0.1599 O.2        1 <1>        0.000
     14 C22        -1.4413    1.9654   -1.1717 C.2        1 <1>        0.000
     15 C27        -2.2536   -2.1824   -0.9517 C.3        1 <1>        0.000
     16 C28        -2.7495    1.4023   -1.2218 C.2        1 <1>        0.000
     17 C31        -2.3566   -0.8956   -0.1363 C.3        1 <1>        0.000
     18 C33        -3.1487    0.1929   -0.7838 C.2        1 <1>        0.000
     19 H           3.4951   -0.4665    1.9840 H.spc      1 <1>        0.000
     20 H           4.5113   -0.9454    0.4591 H.spc      1 <1>        0.000
     21 H           3.8009    0.6818   -0.6634 H.spc      1 <1>        0.000
     22 H           3.5277    1.4208    1.0672 H.spc      1 <1>        0.000
     23 H           3.0325   -2.5851    1.3555 H.spc      1 <1>        0.000
     24 H           1.6531   -1.3963    0.7692 H.spc      1 <1>        0.000
     25 H           1.4945    0.2889   -0.7381 H.spc      1 <1>        0.000
     26 H           1.3409    1.3011    0.8367 H.spc      1 <1>        0.000
     27 H           3.4107   -2.1433   -1.2382 H.spc      1 <1>        0.000
     28 H           2.5699   -3.6169   -0.3865 H.spc      1 <1>        0.000
     29 H           1.3337    2.0308   -1.9262 H.spc      1 <1>        0.000
     30 H           2.5745    2.9142   -0.9013 H.spc      1 <1>        0.000
     31 H           1.5015   -3.1653   -2.3674 H.spc      1 <1>        0.000
     32 H           1.3821   -1.3722   -1.9173 H.spc      1 <1>        0.000
     33 H          -1.4567    3.2222    0.4925 H.spc      1 <1>        0.000
     34 H          -0.7900    1.6320   -1.9796 H.spc      1 <1>        0.000
     35 H          -3.0751   -2.1679   -1.6680 H.spc      1 <1>        0.000
     36 H          -2.2774   -3.0084   -0.2409 H.spc      1 <1>        0.000
     37 H          -3.5220    2.0273   -1.6697 H.spc      1 <1>        0.000
     38 H          -2.8668   -1.1491    0.7929 H.spc      1 <1>        0.000
     39 H          -1.3419   -0.5177   -0.0110 H.spc      1 <1>        0.000
     40 H          -4.2079   -0.0240   -0.9225 H.spc      1 <1>        0.000
@<TRIPOS>BOND
     1    1    2 1  
     2    5    8 1  
     3    4    7 1  
     4    7    9 1  
     5    3    5 1  
     6    1    3 1  
     7    2    4 1  
     8   17   18 1  
     9   16   18 2  
    10   15   17 1  
    11    6   15 1  
    12   14   16 1  
    13   11   14 2  
    14   10    6 1  
    15    9   12 2  
    16    9   11 1  
    17   10   13 2  
    18    8   10 1  
    19    1   19 1  
    20    1   20 1  
    21    2   21 1  
    22    2   22 1  
    23    3   23 1  
    24    3   24 1  
    25    4   25 1  
    26    4   26 1  
    27    5   27 1  
    28    5   28 1  
    29    7   29 1  
    30    7   30 1  
    31    8   31 1  
    32    8   32 1  
    33   11   33 1  
    34   14   34 1  
    35   15   35 1  
    36   15   36 1  
    37   16   37 1  
    38   17   38 1  
    39   17   39 1  
    40   18   40 1  
# Name:          frag5-616-93/138278
# Creation time: Sat Jun  5 12:53:47 2010


@<TRIPOS>MOLECULE
frag5-616-93/138278
   40    40     1     1     1
SMALL
USER_CHARGES


@<TRIPOS>ATOM
      1 C1          3.4604   -0.8352   -0.3750 C.3        1 <1>        0.000
      2 C2          3.1608    0.6569   -0.3457 C.3        1 <1>        0.000
      3 C3          2.5714   -1.7951   -1.1473 C.3        1 <1>        0.000
      4 C4          1.8362    1.2242    0.1570 C.3        1 <1>        0.000
      5 C7          2.3913   -3.1876   -0.5713 C.3        1 <1>        0.000
      6 O7         -1.2659   -2.8067   -0.3870 O.3        1 <1>        0.000
      7 C9          1.5721    2.6813   -0.1646 C.3        1 <1>        0.000
      8 C12         1.0093   -3.6778   -0.2101 C.3        1 <1>        0.000
      9 C13         0.2410    3.2818    0.2297 C.2        1 <1>        0.000
     10 C17        -0.0484   -2.6718    0.1696 C.2        1 <1>        0.000
     11 C18        -1.0353    2.7800   -0.3007 C.2        1 <1>        0.000
     12 O6          0.1847    4.2232    1.0240 O.2        1 <1>        0.000
     13 O8          0.2270   -1.7623    0.9489 O.2        1 <1>        0.000
     14 C22        -1.1895    2.1515   -1.4679 C.2        1 <1>        0.000
     15 C27        -2.0668   -1.6476   -0.5060 C.3        1 <1>        0.000
     16 C28        -2.3447    1.5778   -2.0825 C.2        1 <1>        0.000
     17 C31        -1.7011   -0.8484   -1.7449 C.3        1 <1>        0.000
     18 C33        -2.5814    0.2648   -2.1892 C.2        1 <1>        0.000
     19 H           3.3491   -1.1482    0.6632 H.spc      1 <1>        0.000
     20 H           4.4240   -0.9020   -0.8801 H.spc      1 <1>        0.000
     21 H           3.1672    0.9338   -1.3999 H.spc      1 <1>        0.000
     22 H           3.8860    1.0433    0.3705 H.spc      1 <1>        0.000
     23 H           1.5790   -1.3442   -1.1484 H.spc      1 <1>        0.000
     24 H           3.0553   -1.9346   -2.1140 H.spc      1 <1>        0.000
     25 H           1.0511    0.6542   -0.3398 H.spc      1 <1>        0.000
     26 H           1.8652    1.1513    1.2442 H.spc      1 <1>        0.000
     27 H           2.7207   -3.8574   -1.3656 H.spc      1 <1>        0.000
     28 H           2.9300   -3.1641    0.3760 H.spc      1 <1>        0.000
     29 H           1.5988    2.7409   -1.2526 H.spc      1 <1>        0.000
     30 H           2.3146    3.2371    0.4080 H.spc      1 <1>        0.000
     31 H           1.1520   -4.2855    0.6834 H.spc      1 <1>        0.000
     32 H           0.6335   -4.1509   -1.1173 H.spc      1 <1>        0.000
     33 H          -1.9265    2.9336    0.3079 H.spc      1 <1>        0.000
     34 H          -0.2752    2.0599   -2.0542 H.spc      1 <1>        0.000
     35 H          -3.1099   -1.9535   -0.5860 H.spc      1 <1>        0.000
     36 H          -1.9035   -1.0216    0.3713 H.spc      1 <1>        0.000
     37 H          -3.0882    2.2598   -2.4950 H.spc      1 <1>        0.000
     38 H          -0.7556   -0.3680   -1.4933 H.spc      1 <1>        0.000
     39 H          -1.7390   -1.5713   -2.5598 H.spc      1 <1>        0.000
     40 H          -3.5252   -0.0206   -2.6538 H.spc      1 <1>        0.000
@<TRIPOS>BOND
     1    1    2 1  
     2    5    8 1  
     3    4    7 1  
     4    7    9 1  
     5    3    5 1  
     6    1    3 1  
     7    2    4 1  
     8   17   18 1  
     9   16   18 2  
    10   15   17 1  
    11    6   15 1  
    12   14   16 1  
    13   11   14 2  
    14   10    6 1  
    15    9   12 2  
    16    9   11 1  
    17   10   13 2  
    18    8   10 1  
    19    1   19 1  
    20    1   20 1  
    21    2   21 1  
    22    2   22 1  
    23    3   23 1  
    24    3   24 1  
    25    4   25 1  
    26    4   26 1  
    27    5   27 1  
    28    5   28 1  
    29    7   29 1  
    30    7   30 1  
    31    8   31 1  
    32    8   32 1  
    33   11   33 1  
    34   14   34 1  
    35   15   35 1  
    36   15   36 1  
    37   16   37 1  
    38   17   38 1  
    39   17   39 1  
    40   18   40 1  
# Name:          frag5-616-93/138278
# Creation time: Sat Jun  5 12:53:47 2010


@<TRIPOS>MOLECULE
frag5-616-93/138278
   40    40     1     1     1
SMALL
USER_CHARGES


@<TRIPOS>ATOM
      1 C1          3.1483   -0.6037   -1.1544 C.3        1 <1>        0.000
      2 C2          2.9746    0.8723   -0.8573 C.3        1 <1>        0.000
      3 C3          3.1690   -1.6140   -0.0306 C.3        1 <1>        0.000
      4 C4          1.9537    1.3923    0.1303 C.3        1 <1>        0.000
      5 C7          1.8799   -2.2024    0.4920 C.3        1 <1>        0.000
      6 O7         -0.7111   -2.5798   -1.3734 O.3        1 <1>        0.000
      7 C9          1.7350    2.8900    0.1288 C.3        1 <1>        0.000
      8 C12         1.2959   -3.3847   -0.2433 C.3        1 <1>        0.000
      9 C13         0.3444    3.4459    0.3380 C.2        1 <1>        0.000
     10 C17        -0.1925   -3.3003   -0.3616 C.2        1 <1>        0.000
     11 C18        -0.8533    2.9399   -0.3619 C.2        1 <1>        0.000
     12 O6          0.1703    4.3696    1.1412 O.2        1 <1>        0.000
     13 O8         -0.8822   -3.8535    0.4955 O.2        1 <1>        0.000
     14 C22        -0.8969    2.1035   -1.4091 C.2        1 <1>        0.000
     15 C27        -2.0265   -2.0995   -1.1959 C.3        1 <1>        0.000
     16 C28        -2.0037    1.5312   -2.1064 C.2        1 <1>        0.000
     17 C31        -2.1331   -0.6372   -0.7692 C.3        1 <1>        0.000
     18 C33        -2.5507    0.3396   -1.8258 C.2        1 <1>        0.000
     19 H           4.1419   -0.6737   -1.5970 H.spc      1 <1>        0.000
     20 H           2.2647   -0.8666   -1.7359 H.spc      1 <1>        0.000
     21 H           2.6339    1.2810   -1.8086 H.spc      1 <1>        0.000
     22 H           3.9261    1.1504   -0.4040 H.spc      1 <1>        0.000
     23 H           3.7057   -2.4672   -0.4455 H.spc      1 <1>        0.000
     24 H           3.5776   -1.0648    0.8176 H.spc      1 <1>        0.000
     25 H           1.0006    0.9428   -0.1483 H.spc      1 <1>        0.000
     26 H           2.3286    1.1380    1.1217 H.spc      1 <1>        0.000
     27 H           2.1118   -2.5679    1.4924 H.spc      1 <1>        0.000
     28 H           1.1393   -1.4080    0.3996 H.spc      1 <1>        0.000
     29 H           2.0084    3.2062   -0.8779 H.spc      1 <1>        0.000
     30 H           2.3065    3.2516    0.9836 H.spc      1 <1>        0.000
     31 H           1.5400   -4.2865    0.3182 H.spc      1 <1>        0.000
     32 H           1.7150   -3.3980   -1.2494 H.spc      1 <1>        0.000
     33 H          -1.8146    3.2869    0.0171 H.spc      1 <1>        0.000
     34 H           0.0798    1.8103   -1.7939 H.spc      1 <1>        0.000
     35 H          -2.5221   -2.1800   -2.1634 H.spc      1 <1>        0.000
     36 H          -2.4706   -2.6919   -0.3959 H.spc      1 <1>        0.000
     37 H          -2.4354    2.1048   -2.9266 H.spc      1 <1>        0.000
     38 H          -2.9078   -0.6023   -0.0032 H.spc      1 <1>        0.000
     39 H          -1.1307   -0.3389   -0.4620 H.spc      1 <1>        0.000
     40 H          -3.4017    0.0462   -2.4404 H.spc      1 <1>        0.000
@<TRIPOS>BOND
     1    1    2 1  
     2    5    8 1  
     3    4    7 1  
     4    7    9 1  
     5    3    5 1  
     6    1    3 1  
     7    2    4 1  
     8   17   18 1  
     9   16   18 2  
    10   15   17 1  
    11    6   15 1  
    12   14   16 1  
    13   11   14 2  
    14   10    6 1  
    15    9   12 2  
    16    9   11 1  
    17   10   13 2  
    18    8   10 1  
    19    1   19 1  
    20    1   20 1  
    21    2   21 1  
    22    2   22 1  
    23    3   23 1  
    24    3   24 1  
    25    4   25 1  
    26    4   26 1  
    27    5   27 1  
    28    5   28 1  
    29    7   29 1  
    30    7   30 1  
    31    8   31 1  
    32    8   32 1  
    33   11   33 1  
    34   14   34 1  
    35   15   35 1  
    36   15   36 1  
    37   16   37 1  
    38   17   38 1  
    39   17   39 1  
    40   18   40 1  
# Name:          frag5-616-93/138278
# Creation time: Sat Jun  5 12:53:47 2010


@<TRIPOS>MOLECULE
frag5-616-93/138278
   40    40     1     1     1
SMALL
USER_CHARGES


@<TRIPOS>ATOM
      1 C1          3.3664   -0.6534    0.7864 C.3        1 <1>        0.000
      2 C2          3.1845    0.6875    0.1201 C.3        1 <1>        0.000
      3 C3          3.3155   -1.8458   -0.1369 C.3        1 <1>        0.000
      4 C4          1.9543    1.4956    0.4339 C.3        1 <1>        0.000
      5 C7          1.9758   -2.0553   -0.7866 C.3        1 <1>        0.000
      6 O7         -1.3209   -3.1284    0.1045 O.3        1 <1>        0.000
      7 C9          1.7561    2.7421   -0.3777 C.3        1 <1>        0.000
      8 C12         1.1077   -3.1079   -0.1784 C.3        1 <1>        0.000
      9 C13         0.4486    3.4655   -0.1840 C.2        1 <1>        0.000
     10 C17        -0.2729   -3.0922   -0.7291 C.2        1 <1>        0.000
     11 C18        -0.8389    2.8870   -0.6050 C.2        1 <1>        0.000
     12 O6          0.4208    4.5519    0.3889 O.2        1 <1>        0.000
     13 O8         -0.4187   -2.9460   -1.9376 O.2        1 <1>        0.000
     14 C22        -1.0798    1.9632   -1.5377 C.2        1 <1>        0.000
     15 C27        -2.2584   -2.1792   -0.3372 C.3        1 <1>        0.000
     16 C28        -2.3438    1.3809   -1.8854 C.2        1 <1>        0.000
     17 C31        -1.8544   -0.7238   -0.6312 C.3        1 <1>        0.000
     18 C33        -2.7208    0.1673   -1.4703 C.2        1 <1>        0.000
     19 H           2.5403   -0.7673    1.4883 H.spc      1 <1>        0.000
     20 H           4.3607   -0.6472    1.2329 H.spc      1 <1>        0.000
     21 H           3.1110    0.4650   -0.9444 H.spc      1 <1>        0.000
     22 H           4.0176    1.2937    0.4758 H.spc      1 <1>        0.000
     23 H           4.0386   -1.6705   -0.9335 H.spc      1 <1>        0.000
     24 H           3.5268   -2.7305    0.4637 H.spc      1 <1>        0.000
     25 H           1.1027    0.8513    0.2153 H.spc      1 <1>        0.000
     26 H           2.0588    1.8198    1.4693 H.spc      1 <1>        0.000
     27 H           1.4349   -1.1149   -0.6807 H.spc      1 <1>        0.000
     28 H           2.1790   -2.3795   -1.8073 H.spc      1 <1>        0.000
     29 H           1.7783    2.4305   -1.4220 H.spc      1 <1>        0.000
     30 H           2.5358    3.4358   -0.0631 H.spc      1 <1>        0.000
     31 H           1.0456   -2.9161    0.8928 H.spc      1 <1>        0.000
     32 H           1.5488   -4.0793   -0.4020 H.spc      1 <1>        0.000
     33 H          -1.7170    3.2660   -0.0822 H.spc      1 <1>        0.000
     34 H          -0.2157    1.6102   -2.1006 H.spc      1 <1>        0.000
     35 H          -2.5772   -2.5611   -1.3071 H.spc      1 <1>        0.000
     36 H          -2.9529   -2.0921    0.4983 H.spc      1 <1>        0.000
     37 H          -3.0260    1.9523   -2.5149 H.spc      1 <1>        0.000
     38 H          -1.8576   -0.2468    0.3489 H.spc      1 <1>        0.000
     39 H          -0.9353   -0.8176   -1.2096 H.spc      1 <1>        0.000
     40 H          -3.7089   -0.1931   -1.7565 H.spc      1 <1>        0.000
@<TRIPOS>BOND
     1    1    2 1  
     2    5    8 1  
     3    4    7 1  
     4    7    9 1  
     5    3    5 1  
     6    1    3 1  
     7    2    4 1  
     8   17   18 1  
     9   16   18 2  
    10   15   17 1  
    11    6   15 1  
    12   14   16 1  
    13   11   14 2  
    14   10    6 1  
    15    9   12 2  
    16    9   11 1  
    17   10   13 2  
    18    8   10 1  
    19    1   19 1  
    20    1   20 1  
    21    2   21 1  
    22    2   22 1  
    23    3   23 1  
    24    3   24 1  
    25    4   25 1  
    26    4   26 1  
    27    5   27 1  
    28    5   28 1  
    29    7   29 1  
    30    7   30 1  
    31    8   31 1  
    32    8   32 1  
    33   11   33 1  
    34   14   34 1  
    35   15   35 1  
    36   15   36 1  
    37   16   37 1  
    38   17   38 1  
    39   17   39 1  
    40   18   40 1  
# Name:          frag5-616-93/138278
# Creation time: Sat Jun  5 12:53:47 2010


@<TRIPOS>MOLECULE
frag5-616-93/138278
   40    40     1     1     1
SMALL
USER_CHARGES


@<TRIPOS>ATOM
      1 C1          3.0562   -0.8377   -1.4222 C.3        1 <1>        0.000
      2 C2          3.0574    0.6460   -1.0473 C.3        1 <1>        0.000
      3 C3          3.1243   -1.9071   -0.3504 C.3        1 <1>        0.000
      4 C4          2.0533    1.1678   -0.0305 C.3        1 <1>        0.000
      5 C7          2.1212   -3.0121   -0.1247 C.3        1 <1>        0.000
      6 O7         -0.7684   -2.5207   -0.6296 O.3        1 <1>        0.000
      7 C9          1.5035    2.5699   -0.2081 C.3        1 <1>        0.000
      8 C12         1.0482   -2.8906    0.9314 C.3        1 <1>        0.000
      9 C13         0.1656    2.7994    0.4634 C.2        1 <1>        0.000
     10 C17        -0.1846   -2.1336    0.5162 C.2        1 <1>        0.000
     11 C18        -1.0747    2.2363   -0.1190 C.2        1 <1>        0.000
     12 O6          0.0968    3.3903    1.5424 O.2        1 <1>        0.000
     13 O8         -0.5444   -1.1839    1.2080 O.2        1 <1>        0.000
     14 C22        -1.2600    2.0671   -1.4378 C.2        1 <1>        0.000
     15 C27        -1.8031   -1.6926   -1.1223 C.3        1 <1>        0.000
     16 C28        -2.3238    1.5212   -2.2213 C.2        1 <1>        0.000
     17 C31        -1.4342   -0.8495   -2.3149 C.3        1 <1>        0.000
     18 C33        -2.4123    0.2390   -2.5962 C.2        1 <1>        0.000
     19 H           3.9773   -0.9700   -1.9897 H.spc      1 <1>        0.000
     20 H           2.0852   -0.9931   -1.8925 H.spc      1 <1>        0.000
     21 H           2.8054    1.1635   -1.9729 H.spc      1 <1>        0.000
     22 H           4.0297    0.8114   -0.5832 H.spc      1 <1>        0.000
     23 H           4.0087   -2.4682   -0.6523 H.spc      1 <1>        0.000
     24 H           3.0133   -1.3171    0.5594 H.spc      1 <1>        0.000
     25 H           1.1890    0.5098   -0.1208 H.spc      1 <1>        0.000
     26 H           2.5934    1.1918    0.9160 H.spc      1 <1>        0.000
     27 H           1.5647   -3.0571   -1.0608 H.spc      1 <1>        0.000
     28 H           2.7277   -3.8528    0.2123 H.spc      1 <1>        0.000
     29 H           1.3588    2.7264   -1.2770 H.spc      1 <1>        0.000
     30 H           2.2160    3.2560    0.2499 H.spc      1 <1>        0.000
     31 H           1.4889   -2.3365    1.7602 H.spc      1 <1>        0.000
     32 H           0.7260   -3.9052    1.1655 H.spc      1 <1>        0.000
     33 H          -1.8778    1.9445    0.5578 H.spc      1 <1>        0.000
     34 H          -0.4219    2.4208   -2.0383 H.spc      1 <1>        0.000
     35 H          -2.6083   -2.3537   -1.4426 H.spc      1 <1>        0.000
     36 H          -2.0625   -1.0031   -0.3189 H.spc      1 <1>        0.000
     37 H          -3.1193    2.1968   -2.5358 H.spc      1 <1>        0.000
     38 H          -0.4737   -0.3807   -2.1011 H.spc      1 <1>        0.000
     39 H          -1.4123   -1.5045   -3.1859 H.spc      1 <1>        0.000
     40 H          -3.2964   -0.0391   -3.1699 H.spc      1 <1>        0.000
@<TRIPOS>BOND
     1    1    2 1  
     2    5    8 1  
     3    4    7 1  
     4    7    9 1  
     5    3    5 1  
     6    1    3 1  
     7    2    4 1  
     8   17   18 1  
     9   16   18 2  
    10   15   17 1  
    11    6   15 1  
    12   14   16 1  
    13   11   14 2  
    14   10    6 1  
    15    9   12 2  
    16    9   11 1  
    17   10   13 2  
    18    8   10 1  
    19    1   19 1  
    20    1   20 1  
    21    2   21 1  
    22    2   22 1  
    23    3   23 1  
    24    3   24 1  
    25    4   25 1  
    26    4   26 1  
    27    5   27 1  
    28    5   28 1  
    29    7   29 1  
    30    7   30 1  
    31    8   31 1  
    32    8   32 1  
    33   11   33 1  
    34   14   34 1  
    35   15   35 1  
    36   15   36 1  
    37   16   37 1  
    38   17   38 1  
    39   17   39 1  
    40   18   40 1  
# Name:          frag5-616-93/138278
# Creation time: Sat Jun  5 12:53:47 2010


@<TRIPOS>MOLECULE
frag5-616-93/138278
   40    40     1     1     1
SMALL
USER_CHARGES


@<TRIPOS>ATOM
      1 C1          3.7202   -0.5025    0.2895 C.3        1 <1>        0.000
      2 C2          3.3605    0.7104   -0.5552 C.3        1 <1>        0.000
      3 C3          2.5672   -1.2946    0.8610 C.3        1 <1>        0.000
      4 C4          2.2667    1.5990    0.0140 C.3        1 <1>        0.000
      5 C7          1.5687   -1.7678   -0.2037 C.3        1 <1>        0.000
      6 O7         -1.2167   -2.9611   -1.6062 O.3        1 <1>        0.000
      7 C9          1.7556    2.7684   -0.7974 C.3        1 <1>        0.000
      8 C12         0.5435   -2.8229    0.1832 C.3        1 <1>        0.000
      9 C13         0.5666    3.4334   -0.1369 C.2        1 <1>        0.000
     10 C17        -0.2021   -3.4958   -0.9329 C.2        1 <1>        0.000
     11 C18        -0.8003    2.8823   -0.2248 C.2        1 <1>        0.000
     12 O6          0.7231    4.4485    0.5462 O.2        1 <1>        0.000
     13 O8          0.1404   -4.6444   -1.2377 O.2        1 <1>        0.000
     14 C22        -1.3405    2.0277   -1.1010 C.2        1 <1>        0.000
     15 C27        -1.5665   -1.6035   -1.6889 C.3        1 <1>        0.000
     16 C28        -2.6711    1.4882   -1.1159 C.2        1 <1>        0.000
     17 C31        -2.0163   -0.8716   -0.4388 C.3        1 <1>        0.000
     18 C33        -2.9781    0.2156   -0.8173 C.2        1 <1>        0.000
     19 H           4.2758   -0.1193    1.1454 H.spc      1 <1>        0.000
     20 H           4.2540   -1.1835   -0.3734 H.spc      1 <1>        0.000
     21 H           2.9885    0.3286   -1.5060 H.spc      1 <1>        0.000
     22 H           4.2592    1.3240   -0.6179 H.spc      1 <1>        0.000
     23 H           2.9823   -2.1812    1.3404 H.spc      1 <1>        0.000
     24 H           2.0297   -0.6432    1.5502 H.spc      1 <1>        0.000
     25 H           1.4048    0.9405    0.1215 H.spc      1 <1>        0.000
     26 H           2.7126    2.0519    0.8995 H.spc      1 <1>        0.000
     27 H           0.9854   -0.8837   -0.4612 H.spc      1 <1>        0.000
     28 H           2.1773   -2.2320   -0.9797 H.spc      1 <1>        0.000
     29 H           1.4426    2.3977   -1.7735 H.spc      1 <1>        0.000
     30 H           2.5563    3.5032   -0.8817 H.spc      1 <1>        0.000
     31 H          -0.2113   -2.3009    0.7713 H.spc      1 <1>        0.000
     32 H           1.1050   -3.6124    0.6826 H.spc      1 <1>        0.000
     33 H          -1.4816    3.2288    0.5523 H.spc      1 <1>        0.000
     34 H          -0.6859    1.6984   -1.9079 H.spc      1 <1>        0.000
     35 H          -0.6486   -1.0988   -1.9902 H.spc      1 <1>        0.000
     36 H          -2.4327   -1.5804   -2.3501 H.spc      1 <1>        0.000
     37 H          -3.4875    2.1572   -1.3881 H.spc      1 <1>        0.000
     38 H          -2.5065   -1.5724    0.2369 H.spc      1 <1>        0.000
     39 H          -1.1505   -0.4348    0.0588 H.spc      1 <1>        0.000
     40 H          -4.0334   -0.0550   -0.8536 H.spc      1 <1>        0.000
@<TRIPOS>BOND
     1    1    2 1  
     2    5    8 1  
     3    4    7 1  
     4    7    9 1  
     5    3    5 1  
     6    1    3 1  
     7    2    4 1  
     8   17   18 1  
     9   16   18 2  
    10   15   17 1  
    11    6   15 1  
    12   14   16 1  
    13   11   14 2  
    14   10    6 1  
    15    9   12 2  
    16    9   11 1  
    17   10   13 2  
    18    8   10 1  
    19    1   19 1  
    20    1   20 1  
    21    2   21 1  
    22    2   22 1  
    23    3   23 1  
    24    3   24 1  
    25    4   25 1  
    26    4   26 1  
    27    5   27 1  
    28    5   28 1  
    29    7   29 1  
    30    7   30 1  
    31    8   31 1  
    32    8   32 1  
    33   11   33 1  
    34   14   34 1  
    35   15   35 1  
    36   15   36 1  
    37   16   37 1  
    38   17   38 1  
    39   17   39 1  
    40   18   40 1  
# Name:          frag5-616-93/138278
# Creation time: Sat Jun  5 12:53:47 2010


@<TRIPOS>MOLECULE
frag5-616-93/138278
   40    40     1     1     1
SMALL
USER_CHARGES


@<TRIPOS>ATOM
      1 C1          4.0498   -0.5132   -0.3181 C.3        1 <1>        0.000
      2 C2          3.3205    0.7923   -0.5477 C.3        1 <1>        0.000
      3 C3          3.2997   -1.7642    0.0215 C.3        1 <1>        0.000
      4 C4          1.9602    1.1044    0.0540 C.3        1 <1>        0.000
      5 C7          2.1422   -2.2857   -0.7942 C.3        1 <1>        0.000
      6 O7         -0.6448   -1.4585    0.0755 O.3        1 <1>        0.000
      7 C9          1.4894    2.5328   -0.1109 C.3        1 <1>        0.000
      8 C12         1.1739   -3.0840    0.0692 C.3        1 <1>        0.000
      9 C13         0.1068    2.8906    0.3905 C.2        1 <1>        0.000
     10 C17        -0.2765   -2.7406    0.0098 C.2        1 <1>        0.000
     11 C18        -1.1299    2.4169   -0.2668 C.2        1 <1>        0.000
     12 O6         -0.0184    3.5863    1.4014 O.2        1 <1>        0.000
     13 O8         -1.1038   -3.6395   -0.1351 O.2        1 <1>        0.000
     14 C22        -1.2738    2.0417   -1.5441 C.2        1 <1>        0.000
     15 C27        -1.8809   -1.1675   -0.5291 C.3        1 <1>        0.000
     16 C28        -2.4055    1.5324   -2.2625 C.2        1 <1>        0.000
     17 C31        -1.7477   -0.8632   -2.0085 C.3        1 <1>        0.000
     18 C33        -2.6401    0.2283   -2.4681 C.2        1 <1>        0.000
     19 H           4.6616   -0.3234    0.5638 H.spc      1 <1>        0.000
     20 H           4.5093   -0.7331   -1.2817 H.spc      1 <1>        0.000
     21 H           3.1179    0.7759   -1.6186 H.spc      1 <1>        0.000
     22 H           3.9732    1.5254   -0.0738 H.spc      1 <1>        0.000
     23 H           4.0538   -2.5422   -0.0978 H.spc      1 <1>        0.000
     24 H           2.8358   -1.5200    0.9771 H.spc      1 <1>        0.000
     25 H           1.2378    0.4766   -0.4677 H.spc      1 <1>        0.000
     26 H           2.0461    0.9270    1.1260 H.spc      1 <1>        0.000
     27 H           1.6081   -1.4371   -1.2217 H.spc      1 <1>        0.000
     28 H           2.5331   -2.9397   -1.5737 H.spc      1 <1>        0.000
     29 H           1.4588    2.7037   -1.1870 H.spc      1 <1>        0.000
     30 H           2.1765    3.1333    0.4853 H.spc      1 <1>        0.000
     31 H           1.4740   -2.8820    1.0974 H.spc      1 <1>        0.000
     32 H           1.2408   -4.1082   -0.2978 H.spc      1 <1>        0.000
     33 H          -2.0225    2.3677    0.3568 H.spc      1 <1>        0.000
     34 H          -0.3697    2.1411   -2.1447 H.spc      1 <1>        0.000
     35 H          -2.5213   -2.0431   -0.4226 H.spc      1 <1>        0.000
     36 H          -2.2943   -0.2851   -0.0406 H.spc      1 <1>        0.000
     37 H          -3.1195    2.2500   -2.6666 H.spc      1 <1>        0.000
     38 H          -0.7206   -0.5450   -2.1872 H.spc      1 <1>        0.000
     39 H          -2.0231   -1.7649   -2.5554 H.spc      1 <1>        0.000
     40 H          -3.5458   -0.0475   -3.0083 H.spc      1 <1>        0.000
@<TRIPOS>BOND
     1    1    2 1  
     2    5    8 1  
     3    4    7 1  
     4    7    9 1  
     5    3    5 1  
     6    1    3 1  
     7    2    4 1  
     8   17   18 1  
     9   16   18 2  
    10   15   17 1  
    11    6   15 1  
    12   14   16 1  
    13   11   14 2  
    14   10    6 1  
    15    9   12 2  
    16    9   11 1  
    17   10   13 2  
    18    8   10 1  
    19    1   19 1  
    20    1   20 1  
    21    2   21 1  
    22    2   22 1  
    23    3   23 1  
    24    3   24 1  
    25    4   25 1  
    26    4   26 1  
    27    5   27 1  
    28    5   28 1  
    29    7   29 1  
    30    7   30 1  
    31    8   31 1  
    32    8   32 1  
    33   11   33 1  
    34   14   34 1  
    35   15   35 1  
    36   15   36 1  
    37   16   37 1  
    38   17   38 1  
    39   17   39 1  
    40   18   40 1  
# Name:          frag5-616-93/138278
# Creation time: Sat Jun  5 12:53:47 2010


@<TRIPOS>MOLECULE
frag5-616-93/138278
   40    40     1     1     1
SMALL
USER_CHARGES


@<TRIPOS>ATOM
      1 C1          2.9808   -0.8176    0.9403 C.3        1 <1>        0.000
      2 C2          3.0677    0.6753    0.6849 C.3        1 <1>        0.000
      3 C3          3.2334   -1.7326   -0.2340 C.3        1 <1>        0.000
      4 C4          1.8328    1.5440    0.7590 C.3        1 <1>        0.000
      5 C7          2.2167   -1.8711   -1.3602 C.3        1 <1>        0.000
      6 O7         -0.8516   -2.0122   -1.1338 O.3        1 <1>        0.000
      7 C9          1.7303    2.6081   -0.3066 C.3        1 <1>        0.000
      8 C12         1.3573   -3.1210   -1.3816 C.3        1 <1>        0.000
      9 C13         0.4819    3.4554   -0.3678 C.2        1 <1>        0.000
     10 C17        -0.0966   -3.1023   -0.9883 C.2        1 <1>        0.000
     11 C18        -0.8371    2.8968   -0.6971 C.2        1 <1>        0.000
     12 O6          0.5429    4.6621   -0.1395 O.2        1 <1>        0.000
     13 O8         -0.5506   -4.1468   -0.5085 O.2        1 <1>        0.000
     14 C22        -1.0806    1.7702   -1.3824 C.2        1 <1>        0.000
     15 C27        -2.0048   -1.9830   -0.3249 C.3        1 <1>        0.000
     16 C28        -2.3519    1.1921   -1.6683 C.2        1 <1>        0.000
     17 C31        -2.3441   -0.5843    0.1481 C.3        1 <1>        0.000
     18 C33        -2.9055    0.1759   -1.0024 C.2        1 <1>        0.000
     19 H           1.9522   -1.0065    1.2476 H.spc      1 <1>        0.000
     20 H           3.7646   -1.0408    1.6642 H.spc      1 <1>        0.000
     21 H           3.3844    0.7500   -0.3554 H.spc      1 <1>        0.000
     22 H           3.7038    1.0468    1.4883 H.spc      1 <1>        0.000
     23 H           4.1072   -1.2996   -0.7210 H.spc      1 <1>        0.000
     24 H           3.2693   -2.7270    0.2110 H.spc      1 <1>        0.000
     25 H           0.9767    0.8829    0.6243 H.spc      1 <1>        0.000
     26 H           1.8725    2.0631    1.7166 H.spc      1 <1>        0.000
     27 H           1.5223   -1.0409   -1.2311 H.spc      1 <1>        0.000
     28 H           2.8012   -1.9023   -2.2797 H.spc      1 <1>        0.000
     29 H           1.7509    2.0654   -1.2517 H.spc      1 <1>        0.000
     30 H           2.5369    3.3076   -0.0869 H.spc      1 <1>        0.000
     31 H           1.8170   -3.7590   -0.6268 H.spc      1 <1>        0.000
     32 H           1.3322   -3.3946   -2.4364 H.spc      1 <1>        0.000
     33 H          -1.7059    3.4552   -0.3487 H.spc      1 <1>        0.000
     34 H          -0.2095    1.2371   -1.7632 H.spc      1 <1>        0.000
     35 H          -2.8420   -2.3504   -0.9183 H.spc      1 <1>        0.000
     36 H          -1.8156   -2.5993    0.5540 H.spc      1 <1>        0.000
     37 H          -2.9183    1.6142   -2.4984 H.spc      1 <1>        0.000
     38 H          -3.0732   -0.6301    0.9570 H.spc      1 <1>        0.000
     39 H          -1.4481   -0.0887    0.5218 H.spc      1 <1>        0.000
     40 H          -3.8924   -0.1364   -1.3439 H.spc      1 <1>        0.000
@<TRIPOS>BOND
     1    1    2 1  
     2    5    8 1  
     3    4    7 1  
     4    7    9 1  
     5    3    5 1  
     6    1    3 1  
     7    2    4 1  
     8   17   18 1  
     9   16   18 2  
    10   15   17 1  
    11    6   15 1  
    12   14   16 1  
    13   11   14 2  
    14   10    6 1  
    15    9   12 2  
    16    9   11 1  
    17   10   13 2  
    18    8   10 1  
    19    1   19 1  
    20    1   20 1  
    21    2   21 1  
    22    2   22 1  
    23    3   23 1  
    24    3   24 1  
    25    4   25 1  
    26    4   26 1  
    27    5   27 1  
    28    5   28 1  
    29    7   29 1  
    30    7   30 1  
    31    8   31 1  
    32    8   32 1  
    33   11   33 1  
    34   14   34 1  
    35   15   35 1  
    36   15   36 1  
    37   16   37 1  
    38   17   38 1  
    39   17   39 1  
    40   18   40 1  
# Name:          frag5-616-93/138278
# Creation time: Sat Jun  5 12:53:47 2010


@<TRIPOS>MOLECULE
frag5-616-93/138278
   40    40     1     1     1
SMALL
USER_CHARGES


@<TRIPOS>ATOM
      1 C1          3.8011   -0.6556   -0.6850 C.3        1 <1>        0.000
      2 C2          3.1990    0.6886   -1.1163 C.3        1 <1>        0.000
      3 C3          2.9920   -1.9041   -0.2745 C.3        1 <1>        0.000
      4 C4          2.3460    1.4004   -0.0874 C.3        1 <1>        0.000
      5 C7          1.9568   -1.8132    0.8372 C.3        1 <1>        0.000
      6 O7         -1.2619   -2.8720   -0.9735 O.3        1 <1>        0.000
      7 C9          1.5937    2.6285   -0.5121 C.3        1 <1>        0.000
      8 C12         0.5064   -1.7078    0.4014 C.3        1 <1>        0.000
      9 C13         0.4036    2.9410    0.3715 C.2        1 <1>        0.000
     10 C17        -0.1238   -2.9285   -0.2514 C.2        1 <1>        0.000
     11 C18        -0.9096    2.3329    0.0606 C.2        1 <1>        0.000
     12 O6          0.5152    3.6369    1.3828 O.2        1 <1>        0.000
     13 O8          0.4632   -4.0055   -0.0844 O.2        1 <1>        0.000
     14 C22        -1.4241    2.2460   -1.1648 C.2        1 <1>        0.000
     15 C27        -2.1021   -1.7261   -0.9670 C.3        1 <1>        0.000
     16 C28        -2.6452    1.6828   -1.6621 C.2        1 <1>        0.000
     17 C31        -1.9971   -0.7607   -2.1684 C.3        1 <1>        0.000
     18 C33        -2.8923    0.4255   -2.0697 C.2        1 <1>        0.000
     19 H           4.3073   -0.3936    0.2441 H.spc      1 <1>        0.000
     20 H           4.2940   -0.9905   -1.5977 H.spc      1 <1>        0.000
     21 H           2.5420    0.4715   -1.9585 H.spc      1 <1>        0.000
     22 H           4.0424    1.3480   -1.3211 H.spc      1 <1>        0.000
     23 H           2.4138   -2.1567   -1.1633 H.spc      1 <1>        0.000
     24 H           3.7402   -2.5983    0.1079 H.spc      1 <1>        0.000
     25 H           1.5798    0.6794    0.1976 H.spc      1 <1>        0.000
     26 H           3.0443    1.7422    0.6765 H.spc      1 <1>        0.000
     27 H           2.0366   -2.7421    1.4020 H.spc      1 <1>        0.000
     28 H           2.1769   -0.8949    1.3816 H.spc      1 <1>        0.000
     29 H           1.2172    2.4510   -1.5195 H.spc      1 <1>        0.000
     30 H           2.2804    3.4726   -0.4488 H.spc      1 <1>        0.000
     31 H           0.4853   -0.9263   -0.3581 H.spc      1 <1>        0.000
     32 H          -0.0622   -1.5388    1.3159 H.spc      1 <1>        0.000
     33 H          -1.4934    1.9301    0.8882 H.spc      1 <1>        0.000
     34 H          -0.7961    2.6880   -1.9383 H.spc      1 <1>        0.000
     35 H          -3.1224   -2.1093   -0.9858 H.spc      1 <1>        0.000
     36 H          -1.8005   -1.1451   -0.0955 H.spc      1 <1>        0.000
     37 H          -3.4904    2.3689   -1.7174 H.spc      1 <1>        0.000
     38 H          -0.9720   -0.3915   -2.1988 H.spc      1 <1>        0.000
     39 H          -2.2930   -1.3169   -3.0579 H.spc      1 <1>        0.000
     40 H          -3.9212    0.2438   -2.3802 H.spc      1 <1>        0.000
@<TRIPOS>BOND
     1    1    2 1  
     2    5    8 1  
     3    4    7 1  
     4    7    9 1  
     5    3    5 1  
     6    1    3 1  
     7    2    4 1  
     8   17   18 1  
     9   16   18 2  
    10   15   17 1  
    11    6   15 1  
    12   14   16 1  
    13   11   14 2  
    14   10    6 1  
    15    9   12 2  
    16    9   11 1  
    17   10   13 2  
    18    8   10 1  
    19    1   19 1  
    20    1   20 1  
    21    2   21 1  
    22    2   22 1  
    23    3   23 1  
    24    3   24 1  
    25    4   25 1  
    26    4   26 1  
    27    5   27 1  
    28    5   28 1  
    29    7   29 1  
    30    7   30 1  
    31    8   31 1  
    32    8   32 1  
    33   11   33 1  
    34   14   34 1  
    35   15   35 1  
    36   15   36 1  
    37   16   37 1  
    38   17   38 1  
    39   17   39 1  
    40   18   40 1  
# Name:          frag5-616-93/138278
# Creation time: Sat Jun  5 12:53:47 2010


@<TRIPOS>MOLECULE
frag5-616-93/138278
   40    40     1     1     1
SMALL
USER_CHARGES


@<TRIPOS>ATOM
      1 C1          2.0581   -0.5976    0.0118 C.3        1 <1>        0.000
      2 C2          2.7982    0.6822    0.3274 C.3        1 <1>        0.000
      3 C3          2.5230   -1.5100   -1.1020 C.3        1 <1>        0.000
      4 C4          1.9056    1.7413    0.9652 C.3        1 <1>        0.000
      5 C7          2.3764   -2.9971   -0.9006 C.3        1 <1>        0.000
      6 O7         -1.1095   -2.8888    0.3357 O.3        1 <1>        0.000
      7 C9          1.8145    3.0547    0.2038 C.3        1 <1>        0.000
      8 C12         1.1498   -3.6211   -0.2777 C.3        1 <1>        0.000
      9 C13         0.4626    3.6490   -0.1423 C.2        1 <1>        0.000
     10 C17        -0.1561   -2.9682   -0.6120 C.2        1 <1>        0.000
     11 C18        -0.6301    2.8737   -0.7910 C.2        1 <1>        0.000
     12 O6          0.2301    4.8415    0.0952 O.2        1 <1>        0.000
     13 O8         -0.3243   -2.5187   -1.7410 O.2        1 <1>        0.000
     14 C22        -0.5481    1.7347   -1.4947 C.2        1 <1>        0.000
     15 C27        -2.2431   -2.1325   -0.0283 C.3        1 <1>        0.000
     16 C28        -1.5759    0.9508   -2.1057 C.2        1 <1>        0.000
     17 C31        -2.0619   -0.6281   -0.1655 C.3        1 <1>        0.000
     18 C33        -2.2484   -0.0565   -1.5416 C.2        1 <1>        0.000
     19 H           1.0741   -0.2611   -0.3147 H.spc      1 <1>        0.000
     20 H           2.1735   -1.1996    0.9131 H.spc      1 <1>        0.000
     21 H           3.1779    1.0874   -0.6105 H.spc      1 <1>        0.000
     22 H           3.5902    0.4427    1.0370 H.spc      1 <1>        0.000
     23 H           1.8923   -1.2689   -1.9577 H.spc      1 <1>        0.000
     24 H           3.5946   -1.3334   -1.1943 H.spc      1 <1>        0.000
     25 H           0.8984    1.3257    0.9943 H.spc      1 <1>        0.000
     26 H           2.3401    1.9726    1.9377 H.spc      1 <1>        0.000
     27 H           2.3659   -3.3873   -1.9183 H.spc      1 <1>        0.000
     28 H           3.1660   -3.2317   -0.1868 H.spc      1 <1>        0.000
     29 H           2.2686    2.8375   -0.7630 H.spc      1 <1>        0.000
     30 H           2.2666    3.7861    0.8736 H.spc      1 <1>        0.000
     31 H           1.2723   -3.5289    0.8015 H.spc      1 <1>        0.000
     32 H           1.0926   -4.6387   -0.6641 H.spc      1 <1>        0.000
     33 H          -1.6323    3.2875   -0.6790 H.spc      1 <1>        0.000
     34 H           0.4621    1.3451   -1.6207 H.spc      1 <1>        0.000
     35 H          -2.5295   -2.4872   -1.0184 H.spc      1 <1>        0.000
     36 H          -2.9625   -2.2711    0.7788 H.spc      1 <1>        0.000
     37 H          -1.8369    1.1998   -3.1343 H.spc      1 <1>        0.000
     38 H          -2.8306   -0.1723    0.4586 H.spc      1 <1>        0.000
     39 H          -1.0281   -0.4211    0.1109 H.spc      1 <1>        0.000
     40 H          -3.0242   -0.5180   -2.1525 H.spc      1 <1>        0.000
@<TRIPOS>BOND
     1    1    2 1  
     2    5    8 1  
     3    4    7 1  
     4    7    9 1  
     5    3    5 1  
     6    1    3 1  
     7    2    4 1  
     8   17   18 1  
     9   16   18 2  
    10   15   17 1  
    11    6   15 1  
    12   14   16 1  
    13   11   14 2  
    14   10    6 1  
    15    9   12 2  
    16    9   11 1  
    17   10   13 2  
    18    8   10 1  
    19    1   19 1  
    20    1   20 1  
    21    2   21 1  
    22    2   22 1  
    23    3   23 1  
    24    3   24 1  
    25    4   25 1  
    26    4   26 1  
    27    5   27 1  
    28    5   28 1  
    29    7   29 1  
    30    7   30 1  
    31    8   31 1  
    32    8   32 1  
    33   11   33 1  
    34   14   34 1  
    35   15   35 1  
    36   15   36 1  
    37   16   37 1  
    38   17   38 1  
    39   17   39 1  
    40   18   40 1  
# Name:          frag5-616-93/138278
# Creation time: Sat Jun  5 12:53:47 2010


@<TRIPOS>MOLECULE
frag5-616-93/138278
   40    40     1     1     1
SMALL
USER_CHARGES


@<TRIPOS>ATOM
      1 C1          3.1368   -0.6853    0.4849 C.3        1 <1>        0.000
      2 C2          3.1817    0.8020    0.0941 C.3        1 <1>        0.000
      3 C3          3.2414   -1.7541   -0.5887 C.3        1 <1>        0.000
      4 C4          1.9059    1.4299   -0.4467 C.3        1 <1>        0.000
      5 C7          2.0027   -2.4630   -1.1057 C.3        1 <1>        0.000
      6 O7         -0.5713   -1.8720    0.2912 O.3        1 <1>        0.000
      7 C9          1.6360    2.9033   -0.1508 C.3        1 <1>        0.000
      8 C12         1.2388   -3.4463   -0.2299 C.3        1 <1>        0.000
      9 C13         0.2156    3.3074    0.3049 C.2        1 <1>        0.000
     10 C17        -0.2266   -3.0905   -0.1598 C.2        1 <1>        0.000
     11 C18        -1.0073    2.6617   -0.2863 C.2        1 <1>        0.000
     12 O6          0.0441    4.1671    1.1766 O.2        1 <1>        0.000
     13 O8         -1.0572   -3.8866   -0.5976 O.2        1 <1>        0.000
     14 C22        -1.1270    2.1367   -1.5188 C.2        1 <1>        0.000
     15 C27        -1.7832   -1.2960   -0.2210 C.3        1 <1>        0.000
     16 C28        -2.2436    1.4831   -2.1123 C.2        1 <1>        0.000
     17 C31        -1.6742   -0.9626   -1.7024 C.3        1 <1>        0.000
     18 C33        -2.4914    0.1744   -2.1946 C.2        1 <1>        0.000
     19 H           2.1445   -0.8252    0.9138 H.spc      1 <1>        0.000
     20 H           4.0222   -0.8320    1.1035 H.spc      1 <1>        0.000
     21 H           3.9063    0.8686   -0.7175 H.spc      1 <1>        0.000
     22 H           3.4030    1.3393    1.0163 H.spc      1 <1>        0.000
     23 H           3.6237   -1.2199   -1.4585 H.spc      1 <1>        0.000
     24 H           3.8236   -2.5465   -0.1183 H.spc      1 <1>        0.000
     25 H           1.9963    1.3692   -1.5312 H.spc      1 <1>        0.000
     26 H           1.0941    0.8886    0.0391 H.spc      1 <1>        0.000
     27 H           1.2905   -1.6566   -1.2808 H.spc      1 <1>        0.000
     28 H           2.3724   -3.0744   -1.9289 H.spc      1 <1>        0.000
     29 H           1.7925    3.4203   -1.0975 H.spc      1 <1>        0.000
     30 H           2.2886    3.1531    0.6858 H.spc      1 <1>        0.000
     31 H           1.6541   -3.4106    0.7773 H.spc      1 <1>        0.000
     32 H           1.3346   -4.4430   -0.6606 H.spc      1 <1>        0.000
     33 H          -1.8899    2.6142    0.3515 H.spc      1 <1>        0.000
     34 H          -0.2445    2.2240   -2.1526 H.spc      1 <1>        0.000
     35 H          -2.5863   -2.0218   -0.0931 H.spc      1 <1>        0.000
     36 H          -1.9779   -0.3718    0.3230 H.spc      1 <1>        0.000
     37 H          -2.9939    2.1366   -2.5575 H.spc      1 <1>        0.000
     38 H          -0.6352   -0.6787   -1.8695 H.spc      1 <1>        0.000
     39 H          -2.0350   -1.8428   -2.2345 H.spc      1 <1>        0.000
     40 H          -3.4226   -0.0970   -2.6920 H.spc      1 <1>        0.000
@<TRIPOS>BOND
     1    1    2 1  
     2    5    8 1  
     3    4    7 1  
     4    7    9 1  
     5    3    5 1  
     6    1    3 1  
     7    2    4 1  
     8   17   18 1  
     9   16   18 2  
    10   15   17 1  
    11    6   15 1  
    12   14   16 1  
    13   11   14 2  
    14   10    6 1  
    15    9   12 2  
    16    9   11 1  
    17   10   13 2  
    18    8   10 1  
    19    1   19 1  
    20    1   20 1  
    21    2   21 1  
    22    2   22 1  
    23    3   23 1  
    24    3   24 1  
    25    4   25 1  
    26    4   26 1  
    27    5   27 1  
    28    5   28 1  
    29    7   29 1  
    30    7   30 1  
    31    8   31 1  
    32    8   32 1  
    33   11   33 1  
    34   14   34 1  
    35   15   35 1  
    36   15   36 1  
    37   16   37 1  
    38   17   38 1  
    39   17   39 1  
    40   18   40 1  
# Name:          frag5-616-93/138278
# Creation time: Sat Jun  5 12:53:47 2010


@<TRIPOS>MOLECULE
frag5-616-93/138278
   40    40     1     1     1
SMALL
USER_CHARGES


@<TRIPOS>ATOM
      1 C1          3.4881   -0.0092   -0.3465 C.3        1 <1>        0.000
      2 C2          3.8798    1.4397   -0.1084 C.3        1 <1>        0.000
      3 C3          2.3841   -0.5969    0.5104 C.3        1 <1>        0.000
      4 C4          3.1337    2.5578   -0.7916 C.3        1 <1>        0.000
      5 C7          1.7740   -1.9343    0.1496 C.3        1 <1>        0.000
      6 O7         -1.8508   -2.7563   -0.3395 O.3        1 <1>        0.000
      7 C9          1.6438    2.5670   -1.0002 C.3        1 <1>        0.000
      8 C12         0.3027   -2.0897    0.4847 C.3        1 <1>        0.000
      9 C13         0.7748    2.5236    0.2641 C.2        1 <1>        0.000
     10 C17        -0.5169   -2.9880   -0.4000 C.2        1 <1>        0.000
     11 C18        -0.5760    1.9077    0.1794 C.2        1 <1>        0.000
     12 O6          1.1242    2.9708    1.3636 O.2        1 <1>        0.000
     13 O8          0.0053   -3.7959   -1.1582 O.2        1 <1>        0.000
     14 C22        -1.2913    1.8666   -0.9619 C.2        1 <1>        0.000
     15 C27        -2.4134   -2.4081   -1.5881 C.3        1 <1>        0.000
     16 C28        -2.5725    1.3085   -1.2784 C.2        1 <1>        0.000
     17 C31        -1.9964   -1.0507   -2.1686 C.3        1 <1>        0.000
     18 C33        -2.8723    0.0966   -1.7736 C.2        1 <1>        0.000
     19 H           4.3785   -0.5922   -0.1114 H.spc      1 <1>        0.000
     20 H           3.1104   -0.0429   -1.3684 H.spc      1 <1>        0.000
     21 H           4.8926    1.5120   -0.5048 H.spc      1 <1>        0.000
     22 H           3.6873    1.5983    0.9527 H.spc      1 <1>        0.000
     23 H           2.8528   -0.7647    1.4801 H.spc      1 <1>        0.000
     24 H           1.5610    0.1115    0.4166 H.spc      1 <1>        0.000
     25 H           3.2878    3.3990   -0.1157 H.spc      1 <1>        0.000
     26 H           3.5197    2.5182   -1.8102 H.spc      1 <1>        0.000
     27 H           1.8590   -2.0334   -0.9326 H.spc      1 <1>        0.000
     28 H           2.3069   -2.6866    0.7311 H.spc      1 <1>        0.000
     29 H           1.4115    1.6594   -1.5573 H.spc      1 <1>        0.000
     30 H           1.4138    3.5121   -1.4921 H.spc      1 <1>        0.000
     31 H          -0.1304   -1.0953    0.3767 H.spc      1 <1>        0.000
     32 H           0.2727   -2.5446    1.4748 H.spc      1 <1>        0.000
     33 H          -1.0065    1.4702    1.0801 H.spc      1 <1>        0.000
     34 H          -0.8011    2.3509   -1.8065 H.spc      1 <1>        0.000
     35 H          -2.0667   -3.1601   -2.2969 H.spc      1 <1>        0.000
     36 H          -3.4904   -2.3520   -1.4300 H.spc      1 <1>        0.000
     37 H          -3.4255    1.9605   -1.0905 H.spc      1 <1>        0.000
     38 H          -0.9996   -0.8348   -1.7840 H.spc      1 <1>        0.000
     39 H          -2.0589   -1.1377   -3.2533 H.spc      1 <1>        0.000
     40 H          -3.9386   -0.0824   -1.9118 H.spc      1 <1>        0.000
@<TRIPOS>BOND
     1    1    2 1  
     2    5    8 1  
     3    4    7 1  
     4    7    9 1  
     5    3    5 1  
     6    1    3 1  
     7    2    4 1  
     8   17   18 1  
     9   16   18 2  
    10   15   17 1  
    11    6   15 1  
    12   14   16 1  
    13   11   14 2  
    14   10    6 1  
    15    9   12 2  
    16    9   11 1  
    17   10   13 2  
    18    8   10 1  
    19    1   19 1  
    20    1   20 1  
    21    2   21 1  
    22    2   22 1  
    23    3   23 1  
    24    3   24 1  
    25    4   25 1  
    26    4   26 1  
    27    5   27 1  
    28    5   28 1  
    29    7   29 1  
    30    7   30 1  
    31    8   31 1  
    32    8   32 1  
    33   11   33 1  
    34   14   34 1  
    35   15   35 1  
    36   15   36 1  
    37   16   37 1  
    38   17   38 1  
    39   17   39 1  
    40   18   40 1  
# Name:          frag5-616-93/138278
# Creation time: Sat Jun  5 12:53:47 2010


@<TRIPOS>MOLECULE
frag5-616-93/138278
   40    40     1     1     1
SMALL
USER_CHARGES


@<TRIPOS>ATOM
      1 C1          3.6203    0.0090    0.6532 C.3        1 <1>        0.000
      2 C2          3.4435    1.0667   -0.3930 C.3        1 <1>        0.000
      3 C3          2.5489   -0.9959    0.9900 C.3        1 <1>        0.000
      4 C4          2.1826    1.1161   -1.2080 C.3        1 <1>        0.000
      5 C7          2.3686   -2.1746    0.0432 C.3        1 <1>        0.000
      6 O7         -0.5943   -1.7058   -0.8295 O.3        1 <1>        0.000
      7 C9          1.4371    2.4234   -1.2283 C.3        1 <1>        0.000
      8 C12         1.1866   -3.0797    0.2596 C.3        1 <1>        0.000
      9 C13         0.6335    2.6743    0.0320 C.2        1 <1>        0.000
     10 C17        -0.0684   -2.9270   -0.5726 C.2        1 <1>        0.000
     11 C18        -0.6962    2.0397    0.1602 C.2        1 <1>        0.000
     12 O6          1.0874    3.3301    0.9647 O.2        1 <1>        0.000
     13 O8         -0.6040   -3.9694   -0.9770 O.2        1 <1>        0.000
     14 C22        -1.6356    2.1118   -0.7932 C.2        1 <1>        0.000
     15 C27        -1.8791   -1.7352   -1.4427 C.3        1 <1>        0.000
     16 C28        -2.9504    1.5546   -0.8833 C.2        1 <1>        0.000
     17 C31        -2.3833   -0.5316   -2.2433 C.3        1 <1>        0.000
     18 C33        -3.2762    0.4027   -1.4950 C.2        1 <1>        0.000
     19 H           3.7211    0.5837    1.5739 H.spc      1 <1>        0.000
     20 H           4.4230   -0.6084    0.2501 H.spc      1 <1>        0.000
     21 H           4.2296    0.8638   -1.1203 H.spc      1 <1>        0.000
     22 H           3.4437    2.0033    0.1645 H.spc      1 <1>        0.000
     23 H           2.8432   -1.4295    1.9458 H.spc      1 <1>        0.000
     24 H           1.6088   -0.4453    0.9556 H.spc      1 <1>        0.000
     25 H           2.4851    0.9286   -2.2382 H.spc      1 <1>        0.000
     26 H           1.5051    0.3927   -0.7544 H.spc      1 <1>        0.000
     27 H           2.2186   -1.7336   -0.9423 H.spc      1 <1>        0.000
     28 H           3.2459   -2.8036    0.1941 H.spc      1 <1>        0.000
     29 H           0.7381    2.3913   -2.0640 H.spc      1 <1>        0.000
     30 H           2.1742    3.2219   -1.3137 H.spc      1 <1>        0.000
     31 H           0.8614   -2.8545    1.2753 H.spc      1 <1>        0.000
     32 H           1.5591   -4.0706   -0.0000 H.spc      1 <1>        0.000
     33 H          -0.9228    1.4877    1.0724 H.spc      1 <1>        0.000
     34 H          -1.3440    2.7045   -1.6602 H.spc      1 <1>        0.000
     35 H          -1.8082   -2.5369   -2.1778 H.spc      1 <1>        0.000
     36 H          -2.5745   -1.8130   -0.6070 H.spc      1 <1>        0.000
     37 H          -3.7599    2.1139   -0.4142 H.spc      1 <1>        0.000
     38 H          -1.5029    0.0422   -2.5326 H.spc      1 <1>        0.000
     39 H          -2.9710   -0.9304   -3.0702 H.spc      1 <1>        0.000
     40 H          -4.3257    0.1139   -1.4375 H.spc      1 <1>        0.000
@<TRIPOS>BOND
     1    1    2 1  
     2    5    8 1  
     3    4    7 1  
     4    7    9 1  
     5    3    5 1  
     6    1    3 1  
     7    2    4 1  
     8   17   18 1  
     9   16   18 2  
    10   15   17 1  
    11    6   15 1  
    12   14   16 1  
    13   11   14 2  
    14   10    6 1  
    15    9   12 2  
    16    9   11 1  
    17   10   13 2  
    18    8   10 1  
    19    1   19 1  
    20    1   20 1  
    21    2   21 1  
    22    2   22 1  
    23    3   23 1  
    24    3   24 1  
    25    4   25 1  
    26    4   26 1  
    27    5   27 1  
    28    5   28 1  
    29    7   29 1  
    30    7   30 1  
    31    8   31 1  
    32    8   32 1  
    33   11   33 1  
    34   14   34 1  
    35   15   35 1  
    36   15   36 1  
    37   16   37 1  
    38   17   38 1  
    39   17   39 1  
    40   18   40 1  
# Name:          frag5-616-93/138278
# Creation time: Sat Jun  5 12:53:47 2010


@<TRIPOS>MOLECULE
frag5-616-93/138278
   40    40     1     1     1
SMALL
USER_CHARGES


@<TRIPOS>ATOM
      1 C1          3.4480   -0.3644    0.2735 C.3        1 <1>        0.000
      2 C2          3.2312    0.7594   -0.7315 C.3        1 <1>        0.000
      3 C3          2.3441   -1.3670    0.5660 C.3        1 <1>        0.000
      4 C4          1.8494    1.4007   -0.7697 C.3        1 <1>        0.000
      5 C7          2.1504   -2.5772   -0.3216 C.3        1 <1>        0.000
      6 O7         -0.6733   -3.0756   -1.5531 O.3        1 <1>        0.000
      7 C9          1.6453    2.9073   -0.8827 C.3        1 <1>        0.000
      8 C12         1.0529   -3.5436    0.0780 C.3        1 <1>        0.000
      9 C13         0.5754    3.4194    0.0769 C.2        1 <1>        0.000
     10 C17        -0.3153   -3.0578   -0.2599 C.2        1 <1>        0.000
     11 C18        -0.7183    2.6947    0.2053 C.2        1 <1>        0.000
     12 O6          0.7867    4.4055    0.7871 O.2        1 <1>        0.000
     13 O8         -1.0308   -2.6145    0.6387 O.2        1 <1>        0.000
     14 C22        -1.3569    2.1603   -0.8438 C.2        1 <1>        0.000
     15 C27        -1.7955   -2.2896   -1.8627 C.3        1 <1>        0.000
     16 C28        -2.5644    1.4017   -1.0273 C.2        1 <1>        0.000
     17 C31        -1.5466   -0.7802   -1.8699 C.3        1 <1>        0.000
     18 C33        -2.6616    0.1301   -1.4665 C.2        1 <1>        0.000
     19 H           3.5984    0.1512    1.2220 H.spc      1 <1>        0.000
     20 H           4.2445   -0.9651   -0.1656 H.spc      1 <1>        0.000
     21 H           3.3769    0.3106   -1.7141 H.spc      1 <1>        0.000
     22 H           3.9187    1.5537   -0.4408 H.spc      1 <1>        0.000
     23 H           2.6122   -1.7858    1.5360 H.spc      1 <1>        0.000
     24 H           1.4238   -0.7956    0.4452 H.spc      1 <1>        0.000
     25 H           1.4209    1.0190   -1.6964 H.spc      1 <1>        0.000
     26 H           1.4355    1.1640    0.2105 H.spc      1 <1>        0.000
     27 H           1.8687   -2.1902   -1.3008 H.spc      1 <1>        0.000
     28 H           3.0817   -3.1411   -0.2690 H.spc      1 <1>        0.000
     29 H           1.3223    3.1298   -1.8997 H.spc      1 <1>        0.000
     30 H           2.5867    3.3961   -0.6321 H.spc      1 <1>        0.000
     31 H           1.1004   -3.6656    1.1601 H.spc      1 <1>        0.000
     32 H           1.2167   -4.4716   -0.4697 H.spc      1 <1>        0.000
     33 H          -1.1648    2.5947    1.1946 H.spc      1 <1>        0.000
     34 H          -0.8365    2.3447   -1.7836 H.spc      1 <1>        0.000
     35 H          -2.1016   -2.5626   -2.8726 H.spc      1 <1>        0.000
     36 H          -2.5376   -2.4822   -1.0879 H.spc      1 <1>        0.000
     37 H          -3.4995    1.9073   -0.7862 H.spc      1 <1>        0.000
     38 H          -0.7643   -0.6174   -1.1286 H.spc      1 <1>        0.000
     39 H          -1.3386   -0.5312   -2.9105 H.spc      1 <1>        0.000
     40 H          -3.6688   -0.2809   -1.5352 H.spc      1 <1>        0.000
@<TRIPOS>BOND
     1    1    2 1  
     2    5    8 1  
     3    4    7 1  
     4    7    9 1  
     5    3    5 1  
     6    1    3 1  
     7    2    4 1  
     8   17   18 1  
     9   16   18 2  
    10   15   17 1  
    11    6   15 1  
    12   14   16 1  
    13   11   14 2  
    14   10    6 1  
    15    9   12 2  
    16    9   11 1  
    17   10   13 2  
    18    8   10 1  
    19    1   19 1  
    20    1   20 1  
    21    2   21 1  
    22    2   22 1  
    23    3   23 1  
    24    3   24 1  
    25    4   25 1  
    26    4   26 1  
    27    5   27 1  
    28    5   28 1  
    29    7   29 1  
    30    7   30 1  
    31    8   31 1  
    32    8   32 1  
    33   11   33 1  
    34   14   34 1  
    35   15   35 1  
    36   15   36 1  
    37   16   37 1  
    38   17   38 1  
    39   17   39 1  
    40   18   40 1  
# Name:          frag5-616-93/138278
# Creation time: Sat Jun  5 12:53:47 2010


@<TRIPOS>MOLECULE
frag5-616-93/138278
   40    40     1     1     1
SMALL
USER_CHARGES


@<TRIPOS>ATOM
      1 C1          3.3647   -0.5859    0.5106 C.3        1 <1>        0.000
      2 C2          3.4150    0.8691    0.0773 C.3        1 <1>        0.000
      3 C3          2.0661   -1.3155    0.2538 C.3        1 <1>        0.000
      4 C4          2.2161    1.7517    0.3392 C.3        1 <1>        0.000
      5 C7          2.0018   -2.8096    0.1194 C.3        1 <1>        0.000
      6 O7         -1.4928   -2.7819   -1.2843 O.3        1 <1>        0.000
      7 C9          1.8434    2.7454   -0.7261 C.3        1 <1>        0.000
      8 C12         0.6447   -3.4221   -0.1126 C.3        1 <1>        0.000
      9 C13         0.5682    3.5180   -0.4583 C.2        1 <1>        0.000
     10 C17        -0.1607   -2.9605   -1.3006 C.2        1 <1>        0.000
     11 C18        -0.7689    2.8985   -0.5768 C.2        1 <1>        0.000
     12 O6          0.6230    4.6952   -0.0969 O.2        1 <1>        0.000
     13 O8          0.4540   -2.7723   -2.3558 O.2        1 <1>        0.000
     14 C22        -1.0935    1.8049   -1.2723 C.2        1 <1>        0.000
     15 C27        -2.1462   -2.3269   -0.1197 C.3        1 <1>        0.000
     16 C28        -2.3484    1.1353   -1.3912 C.2        1 <1>        0.000
     17 C31        -2.0205   -0.8496    0.2022 C.3        1 <1>        0.000
     18 C33        -2.7450    0.0154   -0.7707 C.2        1 <1>        0.000
     19 H           3.5048   -0.5861    1.5916 H.spc      1 <1>        0.000
     20 H           4.1250   -1.1036   -0.0742 H.spc      1 <1>        0.000
     21 H           3.5087    0.8364   -1.0082 H.spc      1 <1>        0.000
     22 H           4.2220    1.3094    0.6630 H.spc      1 <1>        0.000
     23 H           1.4794   -1.1147    1.1502 H.spc      1 <1>        0.000
     24 H           1.7630   -0.9578   -0.7302 H.spc      1 <1>        0.000
     25 H           1.3651    1.0756    0.4219 H.spc      1 <1>        0.000
     26 H           2.4727    2.3440    1.2175 H.spc      1 <1>        0.000
     27 H           2.5915   -3.0530   -0.7644 H.spc      1 <1>        0.000
     28 H           2.3471   -3.2078    1.0735 H.spc      1 <1>        0.000
     29 H           1.6830    2.1795   -1.6438 H.spc      1 <1>        0.000
     30 H           2.6512    3.4757   -0.7733 H.spc      1 <1>        0.000
     31 H           0.0531   -3.1412    0.7587 H.spc      1 <1>        0.000
     32 H           0.8370   -4.4798   -0.2928 H.spc      1 <1>        0.000
     33 H          -1.5795    3.3881   -0.0371 H.spc      1 <1>        0.000
     34 H          -0.2751    1.3555   -1.8347 H.spc      1 <1>        0.000
     35 H          -3.2086   -2.5085   -0.2823 H.spc      1 <1>        0.000
     36 H          -1.6789   -2.8551    0.7114 H.spc      1 <1>        0.000
     37 H          -3.0716    1.5896   -2.0685 H.spc      1 <1>        0.000
     38 H          -2.4572   -0.6836    1.1870 H.spc      1 <1>        0.000
     39 H          -0.9634   -0.5871    0.1605 H.spc      1 <1>        0.000
     40 H          -3.7547   -0.3137   -1.0161 H.spc      1 <1>        0.000
@<TRIPOS>BOND
     1    1    2 1  
     2    5    8 1  
     3    4    7 1  
     4    7    9 1  
     5    3    5 1  
     6    1    3 1  
     7    2    4 1  
     8   17   18 1  
     9   16   18 2  
    10   15   17 1  
    11    6   15 1  
    12   14   16 1  
    13   11   14 2  
    14   10    6 1  
    15    9   12 2  
    16    9   11 1  
    17   10   13 2  
    18    8   10 1  
    19    1   19 1  
    20    1   20 1  
    21    2   21 1  
    22    2   22 1  
    23    3   23 1  
    24    3   24 1  
    25    4   25 1  
    26    4   26 1  
    27    5   27 1  
    28    5   28 1  
    29    7   29 1  
    30    7   30 1  
    31    8   31 1  
    32    8   32 1  
    33   11   33 1  
    34   14   34 1  
    35   15   35 1  
    36   15   36 1  
    37   16   37 1  
    38   17   38 1  
    39   17   39 1  
    40   18   40 1  
# Name:          frag5-616-93/138278
# Creation time: Sat Jun  5 12:53:47 2010


@<TRIPOS>MOLECULE
frag5-616-93/138278
   40    40     1     1     1
SMALL
USER_CHARGES


@<TRIPOS>ATOM
      1 C1          2.2578   -0.4490    0.3506 C.3        1 <1>        0.000
      2 C2          2.9803    0.7866   -0.1317 C.3        1 <1>        0.000
      3 C3          2.6913   -1.7827   -0.2213 C.3        1 <1>        0.000
      4 C4          2.7607    2.1373    0.5153 C.3        1 <1>        0.000
      5 C7          2.1782   -2.2429   -1.5684 C.3        1 <1>        0.000
      6 O7         -1.5357   -2.9521   -1.0489 O.3        1 <1>        0.000
      7 C9          1.4071    2.6411    0.9455 C.3        1 <1>        0.000
      8 C12         0.7092   -2.4577   -1.8488 C.3        1 <1>        0.000
      9 C13         0.5397    3.3810   -0.0588 C.2        1 <1>        0.000
     10 C17        -0.2287   -2.8529   -0.7444 C.2        1 <1>        0.000
     11 C18        -0.6765    2.7438   -0.6090 C.2        1 <1>        0.000
     12 O6          0.7779    4.5498   -0.3729 O.2        1 <1>        0.000
     13 O8          0.1759   -3.0134    0.4051 O.2        1 <1>        0.000
     14 C22        -0.6878    1.5895   -1.2898 C.2        1 <1>        0.000
     15 C27        -2.3872   -2.3492   -0.1028 C.3        1 <1>        0.000
     16 C28        -1.7735    0.8632   -1.8597 C.2        1 <1>        0.000
     17 C31        -2.3045   -0.8341   -0.0033 C.3        1 <1>        0.000
     18 C33        -2.4631   -0.1491   -1.3199 C.2        1 <1>        0.000
     19 H           1.2205   -0.3211    0.0412 H.spc      1 <1>        0.000
     20 H           2.4617   -0.5088    1.4197 H.spc      1 <1>        0.000
     21 H           2.6111    0.9228   -1.1482 H.spc      1 <1>        0.000
     22 H           4.0291    0.5694    0.0708 H.spc      1 <1>        0.000
     23 H           3.7665   -1.6766   -0.3652 H.spc      1 <1>        0.000
     24 H           2.2977   -2.5171    0.4814 H.spc      1 <1>        0.000
     25 H           3.2997    2.0476    1.4584 H.spc      1 <1>        0.000
     26 H           3.0426    2.8352   -0.2731 H.spc      1 <1>        0.000
     27 H           2.4438   -1.4209   -2.2331 H.spc      1 <1>        0.000
     28 H           2.6028   -3.2415   -1.6718 H.spc      1 <1>        0.000
     29 H           1.6161    3.3721    1.7266 H.spc      1 <1>        0.000
     30 H           0.8414    1.7437    1.1960 H.spc      1 <1>        0.000
     31 H           0.6882   -3.3049   -2.5343 H.spc      1 <1>        0.000
     32 H           0.3511   -1.4787   -2.1671 H.spc      1 <1>        0.000
     33 H          -1.6296    3.2480   -0.4497 H.spc      1 <1>        0.000
     34 H           0.2916    1.1323   -1.4304 H.spc      1 <1>        0.000
     35 H          -3.4054   -2.5807   -0.4154 H.spc      1 <1>        0.000
     36 H          -2.0872   -2.7371    0.8707 H.spc      1 <1>        0.000
     37 H          -2.0805    1.1702   -2.8595 H.spc      1 <1>        0.000
     38 H          -3.1167   -0.5006    0.6426 H.spc      1 <1>        0.000
     39 H          -1.3172   -0.5818    0.3836 H.spc      1 <1>        0.000
     40 H          -3.2705   -0.5354   -1.9420 H.spc      1 <1>        0.000
@<TRIPOS>BOND
     1    1    2 1  
     2    5    8 1  
     3    4    7 1  
     4    7    9 1  
     5    3    5 1  
     6    1    3 1  
     7    2    4 1  
     8   17   18 1  
     9   16   18 2  
    10   15   17 1  
    11    6   15 1  
    12   14   16 1  
    13   11   14 2  
    14   10    6 1  
    15    9   12 2  
    16    9   11 1  
    17   10   13 2  
    18    8   10 1  
    19    1   19 1  
    20    1   20 1  
    21    2   21 1  
    22    2   22 1  
    23    3   23 1  
    24    3   24 1  
    25    4   25 1  
    26    4   26 1  
    27    5   27 1  
    28    5   28 1  
    29    7   29 1  
    30    7   30 1  
    31    8   31 1  
    32    8   32 1  
    33   11   33 1  
    34   14   34 1  
    35   15   35 1  
    36   15   36 1  
    37   16   37 1  
    38   17   38 1  
    39   17   39 1  
    40   18   40 1  
# Name:          frag5-616-93/138278
# Creation time: Sat Jun  5 12:53:47 2010


@<TRIPOS>MOLECULE
frag5-616-93/138278
   40    40     1     1     1
SMALL
USER_CHARGES


@<TRIPOS>ATOM
      1 C1          3.3171   -0.0158    0.9132 C.3        1 <1>        0.000
      2 C2          3.3306    0.6588   -0.4408 C.3        1 <1>        0.000
      3 C3          2.4222   -1.2217    1.1338 C.3        1 <1>        0.000
      4 C4          2.0072    1.0019   -1.0891 C.3        1 <1>        0.000
      5 C7          2.4444   -2.3570    0.1252 C.3        1 <1>        0.000
      6 O7         -1.0555   -2.4874   -0.0520 O.3        1 <1>        0.000
      7 C9          1.5895    2.4468   -1.1994 C.3        1 <1>        0.000
      8 C12         1.2607   -3.2637   -0.1299 C.3        1 <1>        0.000
      9 C13         0.6636    2.9329   -0.1094 C.2        1 <1>        0.000
     10 C17         0.0200   -2.7484   -0.8206 C.2        1 <1>        0.000
     11 C18        -0.7440    2.4824   -0.0262 C.2        1 <1>        0.000
     12 O6          1.0775    3.7054    0.7623 O.2        1 <1>        0.000
     13 O8          0.0178   -2.6123   -2.0381 O.2        1 <1>        0.000
     14 C22        -1.4666    2.0682   -1.0708 C.2        1 <1>        0.000
     15 C27        -2.2705   -1.9728   -0.5958 C.3        1 <1>        0.000
     16 C28        -2.7969    1.5681   -1.2085 C.2        1 <1>        0.000
     17 C31        -2.2485   -0.8753   -1.6599 C.3        1 <1>        0.000
     18 C33        -3.1476    0.2990   -1.4568 C.2        1 <1>        0.000
     19 H           2.9363    0.7421    1.5978 H.spc      1 <1>        0.000
     20 H           4.3308   -0.3938    1.0458 H.spc      1 <1>        0.000
     21 H           3.7995   -0.0600   -1.1128 H.spc      1 <1>        0.000
     22 H           3.8248    1.6165   -0.2773 H.spc      1 <1>        0.000
     23 H           2.7788   -1.6671    2.0626 H.spc      1 <1>        0.000
     24 H           1.4070   -0.8275    1.0873 H.spc      1 <1>        0.000
     25 H           2.1070    0.6624   -2.1201 H.spc      1 <1>        0.000
     26 H           1.2560    0.5442   -0.4454 H.spc      1 <1>        0.000
     27 H           2.5668   -1.8388   -0.8259 H.spc      1 <1>        0.000
     28 H           3.1908   -3.0367    0.5362 H.spc      1 <1>        0.000
     29 H           1.0458    2.5448   -2.1390 H.spc      1 <1>        0.000
     30 H           2.4995    3.0424   -1.1261 H.spc      1 <1>        0.000
     31 H           0.9148   -3.5335    0.8679 H.spc      1 <1>        0.000
     32 H           1.6490   -4.0190   -0.8131 H.spc      1 <1>        0.000
     33 H          -1.2230    2.4891    0.9529 H.spc      1 <1>        0.000
     34 H          -0.9274    2.1237   -2.0165 H.spc      1 <1>        0.000
     35 H          -2.7174   -2.8272   -1.1040 H.spc      1 <1>        0.000
     36 H          -2.7672   -1.5078    0.2558 H.spc      1 <1>        0.000
     37 H          -3.6067    2.2897   -1.1011 H.spc      1 <1>        0.000
     38 H          -1.2349   -0.4746   -1.6475 H.spc      1 <1>        0.000
     39 H          -2.5899   -1.3509   -2.5793 H.spc      1 <1>        0.000
     40 H          -4.2176    0.1002   -1.5178 H.spc      1 <1>        0.000
@<TRIPOS>BOND
     1    1    2 1  
     2    5    8 1  
     3    4    7 1  
     4    7    9 1  
     5    3    5 1  
     6    1    3 1  
     7    2    4 1  
     8   17   18 1  
     9   16   18 2  
    10   15   17 1  
    11    6   15 1  
    12   14   16 1  
    13   11   14 2  
    14   10    6 1  
    15    9   12 2  
    16    9   11 1  
    17   10   13 2  
    18    8   10 1  
    19    1   19 1  
    20    1   20 1  
    21    2   21 1  
    22    2   22 1  
    23    3   23 1  
    24    3   24 1  
    25    4   25 1  
    26    4   26 1  
    27    5   27 1  
    28    5   28 1  
    29    7   29 1  
    30    7   30 1  
    31    8   31 1  
    32    8   32 1  
    33   11   33 1  
    34   14   34 1  
    35   15   35 1  
    36   15   36 1  
    37   16   37 1  
    38   17   38 1  
    39   17   39 1  
    40   18   40 1  
# Name:          frag5-616-93/138278
# Creation time: Sat Jun  5 12:53:47 2010


@<TRIPOS>MOLECULE
frag5-616-93/138278
   40    40     1     1     1
SMALL
USER_CHARGES


@<TRIPOS>ATOM
      1 C1          3.6319   -0.1711   -0.4319 C.3        1 <1>        0.000
      2 C2          2.9552    0.2496    0.8521 C.3        1 <1>        0.000
      3 C3          3.1837   -1.3813   -1.2192 C.3        1 <1>        0.000
      4 C4          1.6930    1.0898    0.8202 C.3        1 <1>        0.000
      5 C7          1.7453   -1.8169   -1.1840 C.3        1 <1>        0.000
      6 O7         -0.8826   -1.8840    0.4142 O.3        1 <1>        0.000
      7 C9          1.6456    2.3626    0.0030 C.3        1 <1>        0.000
      8 C12         1.2900   -2.8273   -0.1571 C.3        1 <1>        0.000
      9 C13         0.3721    3.1783    0.1447 C.2        1 <1>        0.000
     10 C17        -0.2017   -2.9296   -0.0912 C.2        1 <1>        0.000
     11 C18        -0.9083    2.7318   -0.4446 C.2        1 <1>        0.000
     12 O6          0.3676    4.2184    0.7985 O.2        1 <1>        0.000
     13 O8         -0.7558   -3.9192   -0.5714 O.2        1 <1>        0.000
     14 C22        -1.0437    1.9092   -1.4891 C.2        1 <1>        0.000
     15 C27        -2.0586   -1.5517   -0.2899 C.3        1 <1>        0.000
     16 C28        -2.1974    1.3748   -2.1357 C.2        1 <1>        0.000
     17 C31        -1.8532   -1.1164   -1.7414 C.3        1 <1>        0.000
     18 C33        -2.5622    0.0922   -2.2402 C.2        1 <1>        0.000
     19 H           4.6409   -0.4335   -0.1139 H.spc      1 <1>        0.000
     20 H           3.4341    0.6604   -1.1084 H.spc      1 <1>        0.000
     21 H           3.6890    0.8876    1.3447 H.spc      1 <1>        0.000
     22 H           2.6405   -0.6888    1.3086 H.spc      1 <1>        0.000
     23 H           3.3580   -1.1070   -2.2596 H.spc      1 <1>        0.000
     24 H           3.7291   -2.2123   -0.7720 H.spc      1 <1>        0.000
     25 H           0.9486    0.4425    0.3564 H.spc      1 <1>        0.000
     26 H           1.5643    1.4242    1.8496 H.spc      1 <1>        0.000
     27 H           1.1909   -0.9106   -0.9406 H.spc      1 <1>        0.000
     28 H           1.5853   -2.3101   -2.1428 H.spc      1 <1>        0.000
     29 H           1.7101    2.0641   -1.0434 H.spc      1 <1>        0.000
     30 H           2.4608    2.9925    0.3591 H.spc      1 <1>        0.000
     31 H           1.6524   -2.5065    0.8196 H.spc      1 <1>        0.000
     32 H           1.6856   -3.8025   -0.4409 H.spc      1 <1>        0.000
     33 H          -1.8233    3.1070    0.0137 H.spc      1 <1>        0.000
     34 H          -0.0990    1.5875   -1.9274 H.spc      1 <1>        0.000
     35 H          -2.6694   -2.4540   -0.3190 H.spc      1 <1>        0.000
     36 H          -2.5031   -0.7028    0.2297 H.spc      1 <1>        0.000
     37 H          -2.8635    2.1008   -2.6019 H.spc      1 <1>        0.000
     38 H          -0.7939   -0.8695   -1.8128 H.spc      1 <1>        0.000
     39 H          -2.2465   -1.9388   -2.3390 H.spc      1 <1>        0.000
     40 H          -3.5029   -0.0915   -2.7592 H.spc      1 <1>        0.000
@<TRIPOS>BOND
     1    1    2 1  
     2    5    8 1  
     3    4    7 1  
     4    7    9 1  
     5    3    5 1  
     6    1    3 1  
     7    2    4 1  
     8   17   18 1  
     9   16   18 2  
    10   15   17 1  
    11    6   15 1  
    12   14   16 1  
    13   11   14 2  
    14   10    6 1  
    15    9   12 2  
    16    9   11 1  
    17   10   13 2  
    18    8   10 1  
    19    1   19 1  
    20    1   20 1  
    21    2   21 1  
    22    2   22 1  
    23    3   23 1  
    24    3   24 1  
    25    4   25 1  
    26    4   26 1  
    27    5   27 1  
    28    5   28 1  
    29    7   29 1  
    30    7   30 1  
    31    8   31 1  
    32    8   32 1  
    33   11   33 1  
    34   14   34 1  
    35   15   35 1  
    36   15   36 1  
    37   16   37 1  
    38   17   38 1  
    39   17   39 1  
    40   18   40 1  
# Name:          frag5-616-93/138278
# Creation time: Sat Jun  5 12:53:47 2010


@<TRIPOS>MOLECULE
frag5-616-93/138278
   40    40     1     1     1
SMALL
USER_CHARGES


@<TRIPOS>ATOM
      1 C1          3.4108   -0.5976    0.6139 C.3        1 <1>        0.000
      2 C2          3.1876    0.7304   -0.0764 C.3        1 <1>        0.000
      3 C3          2.4045   -1.7072    0.4228 C.3        1 <1>        0.000
      4 C4          1.8864    1.4608    0.1609 C.3        1 <1>        0.000
      5 C7          2.1566   -2.1575   -1.0070 C.3        1 <1>        0.000
      6 O7         -0.7877   -2.5297   -0.1775 O.3        1 <1>        0.000
      7 C9          1.6405    2.7805   -0.5251 C.3        1 <1>        0.000
      8 C12         1.3010   -3.3683   -1.3065 C.3        1 <1>        0.000
      9 C13         0.4062    3.5095   -0.0254 C.2        1 <1>        0.000
     10 C17        -0.0631   -3.5357   -0.6811 C.2        1 <1>        0.000
     11 C18        -0.9491    2.9699   -0.2757 C.2        1 <1>        0.000
     12 O6          0.5160    4.5294    0.6478 O.2        1 <1>        0.000
     13 O8         -0.5215   -4.6882   -0.6569 O.2        1 <1>        0.000
     14 C22        -1.2785    2.2518   -1.3639 C.2        1 <1>        0.000
     15 C27        -1.1357   -1.4265   -0.9990 C.3        1 <1>        0.000
     16 C28        -2.4787    1.6077   -1.7821 C.2        1 <1>        0.000
     17 C31        -2.3452   -0.6255   -0.5086 C.3        1 <1>        0.000
     18 C33        -2.9292    0.4053   -1.4234 C.2        1 <1>        0.000
     19 H           3.3733   -0.3678    1.6787 H.spc      1 <1>        0.000
     20 H           4.3354   -0.9830    0.1842 H.spc      1 <1>        0.000
     21 H           3.1937    0.5007   -1.1419 H.spc      1 <1>        0.000
     22 H           3.9594    1.3897    0.3207 H.spc      1 <1>        0.000
     23 H           2.8072   -2.5739    0.9470 H.spc      1 <1>        0.000
     24 H           1.4533   -1.3184    0.7864 H.spc      1 <1>        0.000
     25 H           1.1193    0.7956   -0.2356 H.spc      1 <1>        0.000
     26 H           1.8926    1.6987    1.2246 H.spc      1 <1>        0.000
     27 H           1.6065   -1.3289   -1.4530 H.spc      1 <1>        0.000
     28 H           3.1454   -2.4366   -1.3709 H.spc      1 <1>        0.000
     29 H           1.4892    2.5732   -1.5845 H.spc      1 <1>        0.000
     30 H           2.5002    3.4186   -0.3205 H.spc      1 <1>        0.000
     31 H           1.8774   -4.2027   -0.9071 H.spc      1 <1>        0.000
     32 H           1.0927   -3.2856   -2.3732 H.spc      1 <1>        0.000
     33 H          -1.7248    3.1658    0.4646 H.spc      1 <1>        0.000
     34 H          -0.4578    2.1392   -2.0724 H.spc      1 <1>        0.000
     35 H          -0.2828   -0.7478   -0.9995 H.spc      1 <1>        0.000
     36 H          -1.3950   -1.8278   -1.9787 H.spc      1 <1>        0.000
     37 H          -3.1039    2.1653   -2.4794 H.spc      1 <1>        0.000
     38 H          -3.1364   -1.3607   -0.3617 H.spc      1 <1>        0.000
     39 H          -1.9896   -0.0708    0.3597 H.spc      1 <1>        0.000
     40 H          -3.8828    0.1260   -1.8715 H.spc      1 <1>        0.000
@<TRIPOS>BOND
     1    1    2 1  
     2    5    8 1  
     3    4    7 1  
     4    7    9 1  
     5    3    5 1  
     6    1    3 1  
     7    2    4 1  
     8   17   18 1  
     9   16   18 2  
    10   15   17 1  
    11    6   15 1  
    12   14   16 1  
    13   11   14 2  
    14   10    6 1  
    15    9   12 2  
    16    9   11 1  
    17   10   13 2  
    18    8   10 1  
    19    1   19 1  
    20    1   20 1  
    21    2   21 1  
    22    2   22 1  
    23    3   23 1  
    24    3   24 1  
    25    4   25 1  
    26    4   26 1  
    27    5   27 1  
    28    5   28 1  
    29    7   29 1  
    30    7   30 1  
    31    8   31 1  
    32    8   32 1  
    33   11   33 1  
    34   14   34 1  
    35   15   35 1  
    36   15   36 1  
    37   16   37 1  
    38   17   38 1  
    39   17   39 1  
    40   18   40 1  
# Name:          frag5-616-93/138278 -- energy: -7.155325
# Creation time: Sat Jun  5 12:53:47 2010


@<TRIPOS>MOLECULE
frag5-616-93/138278 -- energy: -7.155325
   40    40     1     1     1
SMALL
USER_CHARGES


@<TRIPOS>ATOM
      1 C1          3.8720   -0.5918    0.3870 C.3        1 <1>        0.000
      2 C2          3.2930    0.7117   -0.2137 C.3        1 <1>        0.000
      3 C3          2.8471   -1.6690    0.7843 C.3        1 <1>        0.000
      4 C4          2.0295    1.4762    0.2560 C.3        1 <1>        0.000
      5 C7          1.9688   -2.1712   -0.3844 C.3        1 <1>        0.000
      6 O7         -1.6004   -2.9073   -1.1125 O.3        1 <1>        0.000
      7 C9          1.7666    2.7475   -0.5773 C.3        1 <1>        0.000
      8 C12         0.6446   -2.7826    0.0775 C.3        1 <1>        0.000
      9 C13         0.4678    3.4327   -0.2269 C.2        1 <1>        0.000
     10 C17        -0.2637   -3.0807   -1.1026 C.2        1 <1>        0.000
     11 C18        -0.8655    2.8681   -0.5043 C.2        1 <1>        0.000
     12 O6          0.5091    4.5204    0.3424 O.2        1 <1>        0.000
     13 O8          0.2555   -3.5477   -2.1182 O.2        1 <1>        0.000
     14 C22        -1.1605    1.9214   -1.4054 C.2        1 <1>        0.000
     15 C27        -2.2031   -2.1458   -0.0679 C.3        1 <1>        0.000
     16 C28        -2.5063    1.3737   -1.5769 C.2        1 <1>        0.000
     17 C31        -1.8071   -0.6971   -0.3998 C.3        1 <1>        0.000
     18 C33        -2.8263    0.1508   -1.1205 C.2        1 <1>        0.000
     19 H           4.3829   -0.3035    1.3057 H.spc      1 <1>        0.000
     20 H           4.4947   -1.0352   -0.3900 H.spc      1 <1>        0.000
     21 H           2.9870    0.3761   -1.2046 H.spc      1 <1>        0.000
     22 H           4.0799    1.4276    0.0237 H.spc      1 <1>        0.000
     23 H           3.4093   -2.5261    1.1550 H.spc      1 <1>        0.000
     24 H           2.1784   -1.2207    1.5191 H.spc      1 <1>        0.000
     25 H           1.1719    0.8136    0.1393 H.spc      1 <1>        0.000
     26 H           2.1841    1.7783    1.2918 H.spc      1 <1>        0.000
     27 H           1.7348   -1.3132   -1.0146 H.spc      1 <1>        0.000
     28 H           2.5269   -2.9478   -0.9074 H.spc      1 <1>        0.000
     29 H           1.7100    2.4495   -1.6242 H.spc      1 <1>        0.000
     30 H           2.5752    3.4491   -0.3722 H.spc      1 <1>        0.000
     31 H           0.1422   -2.0705    0.7322 H.spc      1 <1>        0.000
     32 H           0.8555   -3.7163    0.5989 H.spc      1 <1>        0.000
     33 H          -1.6955    3.2606    0.0832 H.spc      1 <1>        0.000
     34 H          -0.3603    1.5414   -2.0405 H.spc      1 <1>        0.000
     35 H          -3.2836   -2.2823   -0.0233 H.spc      1 <1>        0.000
     36 H          -1.8638   -2.4540    0.9210 H.spc      1 <1>        0.000
     37 H          -3.2646    1.9694   -2.0850 H.spc      1 <1>        0.000
     38 H          -1.6428   -0.2086    0.5606 H.spc      1 <1>        0.000
     39 H          -0.9545   -0.7714   -1.0749 H.spc      1 <1>        0.000
     40 H          -3.8349   -0.2335   -1.2729 H.spc      1 <1>        0.000
@<TRIPOS>BOND
     1    1    2 1  
     2    5    8 1  
     3    4    7 1  
     4    7    9 1  
     5    3    5 1  
     6    1    3 1  
     7    2    4 1  
     8   17   18 1  
     9   16   18 2  
    10   15   17 1  
    11    6   15 1  
    12   14   16 1  
    13   11   14 2  
    14   10    6 1  
    15    9   12 2  
    16    9   11 1  
    17   10   13 2  
    18    8   10 1  
    19    1   19 1  
    20    1   20 1  
    21    2   21 1  
    22    2   22 1  
    23    3   23 1  
    24    3   24 1  
    25    4   25 1  
    26    4   26 1  
    27    5   27 1  
    28    5   28 1  
    29    7   29 1  
    30    7   30 1  
    31    8   31 1  
    32    8   32 1  
    33   11   33 1  
    34   14   34 1  
    35   15   35 1  
    36   15   36 1  
    37   16   37 1  
    38   17   38 1  
    39   17   39 1  
    40   18   40 1  
# Name:          frag5-616-93/138278 -- energy: -6.786574
# Creation time: Sat Jun  5 12:53:47 2010


@<TRIPOS>MOLECULE
frag5-616-93/138278 -- energy: -6.786574
   40    40     1     1     1
SMALL
USER_CHARGES


@<TRIPOS>ATOM
      1 C1          3.7235   -0.5093    0.2660 C.3        1 <1>        0.000
      2 C2          3.3583    0.8295   -0.3352 C.3        1 <1>        0.000
      3 C3          2.6945   -1.5723    0.6223 C.3        1 <1>        0.000
      4 C4          2.0649    1.4844    0.0442 C.3        1 <1>        0.000
      5 C7          2.1918   -2.5133   -0.4543 C.3        1 <1>        0.000
      6 O7         -1.0478   -2.5257    0.1922 O.3        1 <1>        0.000
      7 C9          1.6404    2.7963   -0.5616 C.3        1 <1>        0.000
      8 C12         1.1460   -3.5510   -0.1273 C.3        1 <1>        0.000
      9 C13         0.3715    3.4005    0.0210 C.2        1 <1>        0.000
     10 C17        -0.2229   -3.2162   -0.6172 C.2        1 <1>        0.000
     11 C18        -0.9551    2.8185   -0.2550 C.2        1 <1>        0.000
     12 O6          0.4265    4.3505    0.8003 O.2        1 <1>        0.000
     13 O8         -0.5165   -3.5430   -1.7703 O.2        1 <1>        0.000
     14 C22        -1.3123    2.2190   -1.3911 C.2        1 <1>        0.000
     15 C27        -2.1361   -1.8966   -0.4447 C.3        1 <1>        0.000
     16 C28        -2.5297    1.5799   -1.7779 C.2        1 <1>        0.000
     17 C31        -1.7435   -0.7939   -1.4038 C.3        1 <1>        0.000
     18 C33        -2.7325    0.2518   -1.7706 C.2        1 <1>        0.000
     19 H           4.1429   -0.2380    1.2348 H.spc      1 <1>        0.000
     20 H           4.3044   -0.9841   -0.5247 H.spc      1 <1>        0.000
     21 H           3.2657    0.6355   -1.4038 H.spc      1 <1>        0.000
     22 H           4.1284    1.5121    0.0241 H.spc      1 <1>        0.000
     23 H           3.2002   -2.2178    1.3404 H.spc      1 <1>        0.000
     24 H           1.8132   -1.0115    0.9337 H.spc      1 <1>        0.000
     25 H           1.3063    0.7812   -0.2995 H.spc      1 <1>        0.000
     26 H           2.1900    1.7145    1.1023 H.spc      1 <1>        0.000
     27 H           1.7078   -1.8603   -1.1805 H.spc      1 <1>        0.000
     28 H           3.0697   -3.0935   -0.7385 H.spc      1 <1>        0.000
     29 H           1.4391    2.6031   -1.6153 H.spc      1 <1>        0.000
     30 H           2.4436    3.5061   -0.3638 H.spc      1 <1>        0.000
     31 H           1.0905   -3.6201    0.9591 H.spc      1 <1>        0.000
     32 H           1.4462   -4.4760   -0.6196 H.spc      1 <1>        0.000
     33 H          -1.7045    2.8837    0.5338 H.spc      1 <1>        0.000
     34 H          -0.5395    2.2161   -2.1598 H.spc      1 <1>        0.000
     35 H          -2.6518   -2.6600   -1.0273 H.spc      1 <1>        0.000
     36 H          -2.7450   -1.4409    0.3361 H.spc      1 <1>        0.000
     37 H          -3.3536    2.2155   -2.1024 H.spc      1 <1>        0.000
     38 H          -0.9499   -0.2523   -0.8890 H.spc      1 <1>        0.000
     39 H          -1.5285   -1.3086   -2.3403 H.spc      1 <1>        0.000
     40 H          -3.7239   -0.0935   -2.0638 H.spc      1 <1>        0.000
@<TRIPOS>BOND
     1    1    2 1  
     2    5    8 1  
     3    4    7 1  
     4    7    9 1  
     5    3    5 1  
     6    1    3 1  
     7    2    4 1  
     8   17   18 1  
     9   16   18 2  
    10   15   17 1  
    11    6   15 1  
    12   14   16 1  
    13   11   14 2  
    14   10    6 1  
    15    9   12 2  
    16    9   11 1  
    17   10   13 2  
    18    8   10 1  
    19    1   19 1  
    20    1   20 1  
    21    2   21 1  
    22    2   22 1  
    23    3   23 1  
    24    3   24 1  
    25    4   25 1  
    26    4   26 1  
    27    5   27 1  
    28    5   28 1  
    29    7   29 1  
    30    7   30 1  
    31    8   31 1  
    32    8   32 1  
    33   11   33 1  
    34   14   34 1  
    35   15   35 1  
    36   15   36 1  
    37   16   37 1  
    38   17   38 1  
    39   17   39 1  
    40   18   40 1  
# Name:          frag5-616-93/138278 -- energy: -7.071270
# Creation time: Sat Jun  5 12:53:47 2010


@<TRIPOS>MOLECULE
frag5-616-93/138278 -- energy: -7.071270
   40    40     1     1     1
SMALL
USER_CHARGES


@<TRIPOS>ATOM
      1 C1          2.7730   -0.7574   -0.8574 C.3        1 <1>        0.000
      2 C2          2.9131    0.7436   -0.6634 C.3        1 <1>        0.000
      3 C3          2.5088   -1.6022    0.3666 C.3        1 <1>        0.000
      4 C4          1.9610    1.5418    0.2017 C.3        1 <1>        0.000
      5 C7          2.3775   -3.0895    0.1302 C.3        1 <1>        0.000
      6 O7         -1.2742   -2.9665    0.0040 O.3        1 <1>        0.000
      7 C9          1.7978    3.0134   -0.0842 C.3        1 <1>        0.000
      8 C12         1.0244   -3.7424    0.1983 C.3        1 <1>        0.000
      9 C13         0.4043    3.6068    0.0759 C.2        1 <1>        0.000
     10 C17        -0.0539   -3.0389   -0.5677 C.2        1 <1>        0.000
     11 C18        -0.8105    3.0074   -0.5457 C.2        1 <1>        0.000
     12 O6          0.2479    4.6305    0.7525 O.2        1 <1>        0.000
     13 O8          0.2108   -2.5348   -1.6630 O.2        1 <1>        0.000
     14 C22        -0.8644    2.0289   -1.4592 C.2        1 <1>        0.000
     15 C27        -2.2174   -2.1567   -0.6616 C.3        1 <1>        0.000
     16 C28        -1.9842    1.3683   -2.0551 C.2        1 <1>        0.000
     17 C31        -2.0782   -0.6482   -0.4960 C.3        1 <1>        0.000
     18 C33        -2.5148    0.2051   -1.6389 C.2        1 <1>        0.000
     19 H           3.7365   -1.0930   -1.2409 H.spc      1 <1>        0.000
     20 H           1.8997   -0.8886   -1.4963 H.spc      1 <1>        0.000
     21 H           2.7440    1.1448   -1.6627 H.spc      1 <1>        0.000
     22 H           3.8682    0.8441   -0.1479 H.spc      1 <1>        0.000
     23 H           3.3710   -1.4713    1.0205 H.spc      1 <1>        0.000
     24 H           1.5506   -1.2703    0.7664 H.spc      1 <1>        0.000
     25 H           0.9782    1.1048    0.0247 H.spc      1 <1>        0.000
     26 H           2.3762    1.4898    1.2082 H.spc      1 <1>        0.000
     27 H           2.6982   -3.2317   -0.9018 H.spc      1 <1>        0.000
     28 H           2.9428   -3.5465    0.9424 H.spc      1 <1>        0.000
     29 H           2.0525    3.1392   -1.1365 H.spc      1 <1>        0.000
     30 H           2.4224    3.5267    0.6469 H.spc      1 <1>        0.000
     31 H           0.7231   -3.7361    1.2458 H.spc      1 <1>        0.000
     32 H           1.1296   -4.7337   -0.2425 H.spc      1 <1>        0.000
     33 H          -1.7679    3.4129   -0.2185 H.spc      1 <1>        0.000
     34 H           0.1074    1.6776   -1.8062 H.spc      1 <1>        0.000
     35 H          -2.0782   -2.3523   -1.7248 H.spc      1 <1>        0.000
     36 H          -3.1852   -2.4141   -0.2313 H.spc      1 <1>        0.000
     37 H          -2.4458    1.8476   -2.9184 H.spc      1 <1>        0.000
     38 H          -2.7266   -0.3806    0.3383 H.spc      1 <1>        0.000
     39 H          -1.0112   -0.4604   -0.3767 H.spc      1 <1>        0.000
     40 H          -3.3703   -0.1597   -2.2073 H.spc      1 <1>        0.000
@<TRIPOS>BOND
     1    1    2 1  
     2    5    8 1  
     3    4    7 1  
     4    7    9 1  
     5    3    5 1  
     6    1    3 1  
     7    2    4 1  
     8   17   18 1  
     9   16   18 2  
    10   15   17 1  
    11    6   15 1  
    12   14   16 1  
    13   11   14 2  
    14   10    6 1  
    15    9   12 2  
    16    9   11 1  
    17   10   13 2  
    18    8   10 1  
    19    1   19 1  
    20    1   20 1  
    21    2   21 1  
    22    2   22 1  
    23    3   23 1  
    24    3   24 1  
    25    4   25 1  
    26    4   26 1  
    27    5   27 1  
    28    5   28 1  
    29    7   29 1  
    30    7   30 1  
    31    8   31 1  
    32    8   32 1  
    33   11   33 1  
    34   14   34 1  
    35   15   35 1  
    36   15   36 1  
    37   16   37 1  
    38   17   38 1  
    39   17   39 1  
    40   18   40 1  
# Name:          frag5-616-93/138278 -- energy: -7.425751
# Creation time: Sat Jun  5 12:53:47 2010


@<TRIPOS>MOLECULE
frag5-616-93/138278 -- energy: -7.425751
   40    40     1     1     1
SMALL
USER_CHARGES


@<TRIPOS>ATOM
      1 C1          3.0651   -0.2737    1.0800 C.3        1 <1>        0.000
      2 C2          3.2002    0.6710   -0.1059 C.3        1 <1>        0.000
      3 C3          2.0236   -1.3795    0.9760 C.3        1 <1>        0.000
      4 C4          1.8927    1.2237   -0.5969 C.3        1 <1>        0.000
      5 C7          2.2787   -2.4787   -0.0293 C.3        1 <1>        0.000
      6 O7         -1.1862   -3.1494   -0.5842 O.3        1 <1>        0.000
      7 C9          1.7589    2.6041   -1.1500 C.3        1 <1>        0.000
      8 C12         1.2136   -3.4934   -0.3658 C.3        1 <1>        0.000
      9 C13         0.6933    3.4128   -0.4329 C.2        1 <1>        0.000
     10 C17         0.0226   -3.0472   -1.1623 C.2        1 <1>        0.000
     11 C18        -0.7063    2.9232   -0.3171 C.2        1 <1>        0.000
     12 O6          0.9849    4.4723    0.1251 O.2        1 <1>        0.000
     13 O8          0.1869   -2.5672   -2.2834 O.2        1 <1>        0.000
     14 C22        -1.3086    2.0431   -1.1260 C.2        1 <1>        0.000
     15 C27        -2.1645   -2.2076   -0.9554 C.3        1 <1>        0.000
     16 C28        -2.6212    1.4817   -1.0591 C.2        1 <1>        0.000
     17 C31        -1.9868   -0.8535   -0.2836 C.3        1 <1>        0.000
     18 C33        -2.9261    0.2275   -0.6921 C.2        1 <1>        0.000
     19 H           2.7527    0.3482    1.9189 H.spc      1 <1>        0.000
     20 H           4.0264   -0.7805    1.1648 H.spc      1 <1>        0.000
     21 H           3.6392    0.1016   -0.9252 H.spc      1 <1>        0.000
     22 H           3.8068    1.5158    0.2205 H.spc      1 <1>        0.000
     23 H           2.0127   -1.8674    1.9506 H.spc      1 <1>        0.000
     24 H           1.1050   -0.8904    0.6520 H.spc      1 <1>        0.000
     25 H           1.6555    0.5875   -1.4496 H.spc      1 <1>        0.000
     26 H           1.2787    1.2533    0.3032 H.spc      1 <1>        0.000
     27 H           2.4388   -1.9455   -0.9664 H.spc      1 <1>        0.000
     28 H           3.0719   -3.0718    0.4258 H.spc      1 <1>        0.000
     29 H           1.4717    2.5215   -2.1982 H.spc      1 <1>        0.000
     30 H           2.7137    3.1137   -1.0205 H.spc      1 <1>        0.000
     31 H           0.8098   -3.8109    0.5955 H.spc      1 <1>        0.000
     32 H           1.7132   -4.2329   -0.9917 H.spc      1 <1>        0.000
     33 H          -1.2995    3.3198    0.5069 H.spc      1 <1>        0.000
     34 H          -0.7041    1.7015   -1.9662 H.spc      1 <1>        0.000
     35 H          -2.0806   -2.0538   -2.0312 H.spc      1 <1>        0.000
     36 H          -3.1331   -2.6019   -0.6481 H.spc      1 <1>        0.000
     37 H          -3.4518    2.1328   -1.3315 H.spc      1 <1>        0.000
     38 H          -2.1666   -1.0205    0.7784 H.spc      1 <1>        0.000
     39 H          -0.9922   -0.5079   -0.5655 H.spc      1 <1>        0.000
     40 H          -3.9852   -0.0302   -0.6931 H.spc      1 <1>        0.000
@<TRIPOS>BOND
     1    1    2 1  
     2    5    8 1  
     3    4    7 1  
     4    7    9 1  
     5    3    5 1  
     6    1    3 1  
     7    2    4 1  
     8   17   18 1  
     9   16   18 2  
    10   15   17 1  
    11    6   15 1  
    12   14   16 1  
    13   11   14 2  
    14   10    6 1  
    15    9   12 2  
    16    9   11 1  
    17   10   13 2  
    18    8   10 1  
    19    1   19 1  
    20    1   20 1  
    21    2   21 1  
    22    2   22 1  
    23    3   23 1  
    24    3   24 1  
    25    4   25 1  
    26    4   26 1  
    27    5   27 1  
    28    5   28 1  
    29    7   29 1  
    30    7   30 1  
    31    8   31 1  
    32    8   32 1  
    33   11   33 1  
    34   14   34 1  
    35   15   35 1  
    36   15   36 1  
    37   16   37 1  
    38   17   38 1  
    39   17   39 1  
    40   18   40 1  
# Name:          frag5-616-93/138278 -- energy: -6.973700
# Creation time: Sat Jun  5 12:53:47 2010


@<TRIPOS>MOLECULE
frag5-616-93/138278 -- energy: -6.973700
   40    40     1     1     1
SMALL
USER_CHARGES


@<TRIPOS>ATOM
      1 C1          3.7584   -0.4584   -0.1388 C.3        1 <1>        0.000
      2 C2          3.2265    0.7997   -0.8017 C.3        1 <1>        0.000
      3 C3          2.9373   -1.7247   -0.2504 C.3        1 <1>        0.000
      4 C4          1.9766    1.4145   -0.2190 C.3        1 <1>        0.000
      5 C7          1.7673   -2.0359    0.6655 C.3        1 <1>        0.000
      6 O7         -0.3084   -2.6157   -1.5305 O.3        1 <1>        0.000
      7 C9          1.6302    2.8392   -0.5565 C.3        1 <1>        0.000
      8 C12         1.0524   -3.3635    0.3983 C.3        1 <1>        0.000
      9 C13         0.4096    3.3416    0.1746 C.2        1 <1>        0.000
     10 C17        -0.2589   -3.2529   -0.3433 C.2        1 <1>        0.000
     11 C18        -0.9403    2.7998   -0.0908 C.2        1 <1>        0.000
     12 O6          0.5346    4.1693    1.0770 O.2        1 <1>        0.000
     13 O8         -1.2682   -3.7488    0.1662 O.2        1 <1>        0.000
     14 C22        -1.3444    2.2492   -1.2417 C.2        1 <1>        0.000
     15 C27        -1.5704   -2.0497   -1.8573 C.3        1 <1>        0.000
     16 C28        -2.5775    1.6403   -1.6418 C.2        1 <1>        0.000
     17 C31        -1.7979   -0.7076   -1.1645 C.3        1 <1>        0.000
     18 C33        -2.8058    0.3128   -1.6084 C.2        1 <1>        0.000
     19 H           3.7931   -0.2303    0.9265 H.spc      1 <1>        0.000
     20 H           4.6970   -0.6777   -0.6478 H.spc      1 <1>        0.000
     21 H           2.9654    0.5090   -1.8193 H.spc      1 <1>        0.000
     22 H           4.0081    1.5498   -0.6807 H.spc      1 <1>        0.000
     23 H           2.4674   -1.6299   -1.2293 H.spc      1 <1>        0.000
     24 H           3.6559   -2.5081   -0.0095 H.spc      1 <1>        0.000
     25 H           1.1581    0.8241   -0.6309 H.spc      1 <1>        0.000
     26 H           2.1437    1.4165    0.8581 H.spc      1 <1>        0.000
     27 H           2.1733   -2.1008    1.6750 H.spc      1 <1>        0.000
     28 H           1.0301   -1.2495    0.5038 H.spc      1 <1>        0.000
     29 H           1.4179    2.8840   -1.6247 H.spc      1 <1>        0.000
     30 H           2.4733    3.4636   -0.2610 H.spc      1 <1>        0.000
     31 H           0.8245   -3.7967    1.3722 H.spc      1 <1>        0.000
     32 H           1.7177   -3.9551   -0.2307 H.spc      1 <1>        0.000
     33 H          -1.6677    2.8534    0.7193 H.spc      1 <1>        0.000
     34 H          -0.5885    2.2677   -2.0268 H.spc      1 <1>        0.000
     35 H          -1.5992   -1.8845   -2.9343 H.spc      1 <1>        0.000
     36 H          -2.3471   -2.7386   -1.5253 H.spc      1 <1>        0.000
     37 H          -3.3790    2.2895   -1.9943 H.spc      1 <1>        0.000
     38 H          -2.1756   -1.0055   -0.1864 H.spc      1 <1>        0.000
     39 H          -0.8508   -0.1927   -1.3259 H.spc      1 <1>        0.000
     40 H          -3.7863   -0.0436   -1.9243 H.spc      1 <1>        0.000
@<TRIPOS>BOND
     1    1    2 1  
     2    5    8 1  
     3    4    7 1  
     4    7    9 1  
     5    3    5 1  
     6    1    3 1  
     7    2    4 1  
     8   17   18 1  
     9   16   18 2  
    10   15   17 1  
    11    6   15 1  
    12   14   16 1  
    13   11   14 2  
    14   10    6 1  
    15    9   12 2  
    16    9   11 1  
    17   10   13 2  
    18    8   10 1  
    19    1   19 1  
    20    1   20 1  
    21    2   21 1  
    22    2   22 1  
    23    3   23 1  
    24    3   24 1  
    25    4   25 1  
    26    4   26 1  
    27    5   27 1  
    28    5   28 1  
    29    7   29 1  
    30    7   30 1  
    31    8   31 1  
    32    8   32 1  
    33   11   33 1  
    34   14   34 1  
    35   15   35 1  
    36   15   36 1  
    37   16   37 1  
    38   17   38 1  
    39   17   39 1  
    40   18   40 1  
# Name:          frag5-616-93/138278 -- energy: -7.060054
# Creation time: Sat Jun  5 12:53:47 2010


@<TRIPOS>MOLECULE
frag5-616-93/138278 -- energy: -7.060054
   40    40     1     1     1
SMALL
USER_CHARGES


@<TRIPOS>ATOM
      1 C1          3.0957   -0.6497    0.9163 C.3        1 <1>        0.000
      2 C2          3.0660    0.6403    0.1204 C.3        1 <1>        0.000
      3 C3          2.1034   -1.7568    0.6246 C.3        1 <1>        0.000
      4 C4          1.9256    1.6058    0.3385 C.3        1 <1>        0.000
      5 C7          2.3558   -2.6087   -0.5986 C.3        1 <1>        0.000
      6 O7         -0.7025   -2.9171    0.0843 O.3        1 <1>        0.000
      7 C9          1.7361    2.7887   -0.5833 C.3        1 <1>        0.000
      8 C12         1.2820   -3.4178   -1.2767 C.3        1 <1>        0.000
      9 C13         0.4547    3.5675   -0.3529 C.2        1 <1>        0.000
     10 C17        -0.1655   -2.9848   -1.1566 C.2        1 <1>        0.000
     11 C18        -0.8626    2.9242   -0.5368 C.2        1 <1>        0.000
     12 O6          0.4906    4.7309    0.0502 O.2        1 <1>        0.000
     13 O8         -0.8277   -2.6890   -2.1550 O.2        1 <1>        0.000
     14 C22        -1.0855    1.9796   -1.4615 C.2        1 <1>        0.000
     15 C27        -1.9052   -2.1678    0.1161 C.3        1 <1>        0.000
     16 C28        -2.2285    1.1905   -1.7954 C.2        1 <1>        0.000
     17 C31        -1.7657   -0.6545   -0.1033 C.3        1 <1>        0.000
     18 C33        -2.5457    0.0280   -1.1932 C.2        1 <1>        0.000
     19 H           2.8619   -0.3416    1.9354 H.spc      1 <1>        0.000
     20 H           4.0648   -1.0888    0.6793 H.spc      1 <1>        0.000
     21 H           2.9754    0.3276   -0.9198 H.spc      1 <1>        0.000
     22 H           3.9585    1.1836    0.4310 H.spc      1 <1>        0.000
     23 H           2.1609   -2.4365    1.4748 H.spc      1 <1>        0.000
     24 H           1.1500   -1.2594    0.4464 H.spc      1 <1>        0.000
     25 H           1.0303    1.0024    0.1888 H.spc      1 <1>        0.000
     26 H           2.1344    2.0532    1.3103 H.spc      1 <1>        0.000
     27 H           2.6279   -1.8753   -1.3577 H.spc      1 <1>        0.000
     28 H           3.0429   -3.3706   -0.2306 H.spc      1 <1>        0.000
     29 H           1.6929    2.3972   -1.5996 H.spc      1 <1>        0.000
     30 H           2.5633    3.4737   -0.3972 H.spc      1 <1>        0.000
     31 H           1.3208   -4.3924   -0.7902 H.spc      1 <1>        0.000
     32 H           1.5069   -3.3402   -2.3404 H.spc      1 <1>        0.000
     33 H          -1.6877    3.2305    0.1063 H.spc      1 <1>        0.000
     34 H          -0.2171    1.7710   -2.0863 H.spc      1 <1>        0.000
     35 H          -2.5178   -2.5397   -0.7052 H.spc      1 <1>        0.000
     36 H          -2.3165   -2.2940    1.1176 H.spc      1 <1>        0.000
     37 H          -2.8851    1.5516   -2.5870 H.spc      1 <1>        0.000
     38 H          -2.1439   -0.2116    0.8180 H.spc      1 <1>        0.000
     39 H          -0.7231   -0.5178   -0.3905 H.spc      1 <1>        0.000
     40 H          -3.4572   -0.4666   -1.5288 H.spc      1 <1>        0.000
@<TRIPOS>BOND
     1    1    2 1  
     2    5    8 1  
     3    4    7 1  
     4    7    9 1  
     5    3    5 1  
     6    1    3 1  
     7    2    4 1  
     8   17   18 1  
     9   16   18 2  
    10   15   17 1  
    11    6   15 1  
    12   14   16 1  
    13   11   14 2  
    14   10    6 1  
    15    9   12 2  
    16    9   11 1  
    17   10   13 2  
    18    8   10 1  
    19    1   19 1  
    20    1   20 1  
    21    2   21 1  
    22    2   22 1  
    23    3   23 1  
    24    3   24 1  
    25    4   25 1  
    26    4   26 1  
    27    5   27 1  
    28    5   28 1  
    29    7   29 1  
    30    7   30 1  
    31    8   31 1  
    32    8   32 1  
    33   11   33 1  
    34   14   34 1  
    35   15   35 1  
    36   15   36 1  
    37   16   37 1  
    38   17   38 1  
    39   17   39 1  
    40   18   40 1  
# Name:          frag5-616-93/138278 -- energy: -7.208805
# Creation time: Sat Jun  5 12:53:47 2010


@<TRIPOS>MOLECULE
frag5-616-93/138278 -- energy: -7.208805
   40    40     1     1     1
SMALL
USER_CHARGES


@<TRIPOS>ATOM
      1 C1          3.1780   -0.8622    0.4531 C.3        1 <1>        0.000
      2 C2          3.1298    0.6036    0.0661 C.3        1 <1>        0.000
      3 C3          3.2826   -1.8364   -0.7055 C.3        1 <1>        0.000
      4 C4          1.8930    1.3950    0.4365 C.3        1 <1>        0.000
      5 C7          1.9819   -2.2060   -1.4001 C.3        1 <1>        0.000
      6 O7         -1.2433   -3.1240   -0.9468 O.3        1 <1>        0.000
      7 C9          1.7312    2.6970   -0.3182 C.3        1 <1>        0.000
      8 C12         1.1896   -3.3387   -0.7820 C.3        1 <1>        0.000
      9 C13         0.4389    3.4474   -0.0468 C.2        1 <1>        0.000
     10 C17        -0.1298   -2.9292   -0.2071 C.2        1 <1>        0.000
     11 C18        -0.8825    2.9092   -0.4796 C.2        1 <1>        0.000
     12 O6          0.4379    4.5133    0.5762 O.2        1 <1>        0.000
     13 O8         -0.1345   -2.3797    0.8773 O.2        1 <1>        0.000
     14 C22        -1.1140    2.0435   -1.4736 C.2        1 <1>        0.000
     15 C27        -2.2961   -2.2265   -0.6837 C.3        1 <1>        0.000
     16 C28        -2.3434    1.4471   -1.9195 C.2        1 <1>        0.000
     17 C31        -1.9468   -0.7471   -0.7929 C.3        1 <1>        0.000
     18 C33        -2.7514    0.2029   -1.6165 C.2        1 <1>        0.000
     19 H           2.2390   -1.0816    0.9612 H.spc      1 <1>        0.000
     20 H           4.0765   -0.9963    1.0554 H.spc      1 <1>        0.000
     21 H           3.1667    0.6169   -1.0232 H.spc      1 <1>        0.000
     22 H           3.9485    1.0740    0.6107 H.spc      1 <1>        0.000
     23 H           3.8980   -1.3446   -1.4588 H.spc      1 <1>        0.000
     24 H           3.6749   -2.7630   -0.2864 H.spc      1 <1>        0.000
     25 H           1.0316    0.7743    0.1899 H.spc      1 <1>        0.000
     26 H           1.9807    1.6477    1.4932 H.spc      1 <1>        0.000
     27 H           1.3452   -1.3232   -1.3419 H.spc      1 <1>        0.000
     28 H           2.2563   -2.5385   -2.4012 H.spc      1 <1>        0.000
     29 H           1.7294    2.4452   -1.3787 H.spc      1 <1>        0.000
     30 H           2.5440    3.3479    0.0040 H.spc      1 <1>        0.000
     31 H           1.7867   -3.7356    0.0390 H.spc      1 <1>        0.000
     32 H           0.9833   -4.0555   -1.5769 H.spc      1 <1>        0.000
     33 H          -1.7543    3.2587    0.0734 H.spc      1 <1>        0.000
     34 H          -0.2291    1.7427   -2.0345 H.spc      1 <1>        0.000
     35 H          -3.0610   -2.4192   -1.4359 H.spc      1 <1>        0.000
     36 H          -2.5959   -2.3972    0.3503 H.spc      1 <1>        0.000
     37 H          -2.9948    2.0502   -2.5520 H.spc      1 <1>        0.000
     38 H          -2.0812   -0.3786    0.2241 H.spc      1 <1>        0.000
     39 H          -0.9750   -0.7512   -1.2866 H.spc      1 <1>        0.000
     40 H          -3.7194   -0.1295   -1.9914 H.spc      1 <1>        0.000
@<TRIPOS>BOND
     1    1    2 1  
     2    5    8 1  
     3    4    7 1  
     4    7    9 1  
     5    3    5 1  
     6    1    3 1  
     7    2    4 1  
     8   17   18 1  
     9   16   18 2  
    10   15   17 1  
    11    6   15 1  
    12   14   16 1  
    13   11   14 2  
    14   10    6 1  
    15    9   12 2  
    16    9   11 1  
    17   10   13 2  
    18    8   10 1  
    19    1   19 1  
    20    1   20 1  
    21    2   21 1  
    22    2   22 1  
    23    3   23 1  
    24    3   24 1  
    25    4   25 1  
    26    4   26 1  
    27    5   27 1  
    28    5   28 1  
    29    7   29 1  
    30    7   30 1  
    31    8   31 1  
    32    8   32 1  
    33   11   33 1  
    34   14   34 1  
    35   15   35 1  
    36   15   36 1  
    37   16   37 1  
    38   17   38 1  
    39   17   39 1  
    40   18   40 1  
# Name:          frag5-616-93/138278 -- energy: -6.944382
# Creation time: Sat Jun  5 12:53:47 2010


@<TRIPOS>MOLECULE
frag5-616-93/138278 -- energy: -6.944382
   40    40     1     1     1
SMALL
USER_CHARGES


@<TRIPOS>ATOM
      1 C1          3.5657   -0.6462    0.9112 C.3        1 <1>        0.000
      2 C2          3.2649    0.7081    0.2854 C.3        1 <1>        0.000
      3 C3          2.6492   -1.8279    0.6715 C.3        1 <1>        0.000
      4 C4          1.8493    1.1039   -0.1071 C.3        1 <1>        0.000
      5 C7          2.5837   -2.5634   -0.6657 C.3        1 <1>        0.000
      6 O7         -1.0631   -2.3212   -1.6989 O.3        1 <1>        0.000
      7 C9          1.6397    2.3544   -0.9313 C.3        1 <1>        0.000
      8 C12         1.3823   -2.4116   -1.5891 C.3        1 <1>        0.000
      9 C13         0.5548    3.2797   -0.4155 C.2        1 <1>        0.000
     10 C17         0.0269   -2.6567   -0.9721 C.2        1 <1>        0.000
     11 C18        -0.8525    2.8269   -0.3241 C.2        1 <1>        0.000
     12 O6          0.8299    4.4147   -0.0219 O.2        1 <1>        0.000
     13 O8         -0.0599   -3.1339    0.1599 O.2        1 <1>        0.000
     14 C22        -1.4413    1.9654   -1.1717 C.2        1 <1>        0.000
     15 C27        -2.2536   -2.1824   -0.9517 C.3        1 <1>        0.000
     16 C28        -2.7495    1.4023   -1.2218 C.2        1 <1>        0.000
     17 C31        -2.3566   -0.8956   -0.1363 C.3        1 <1>        0.000
     18 C33        -3.1487    0.1929   -0.7838 C.2        1 <1>        0.000
     19 H           3.4951   -0.4665    1.9840 H.spc      1 <1>        0.000
     20 H           4.5113   -0.9454    0.4591 H.spc      1 <1>        0.000
     21 H           3.8009    0.6818   -0.6634 H.spc      1 <1>        0.000
     22 H           3.5277    1.4208    1.0672 H.spc      1 <1>        0.000
     23 H           3.0325   -2.5851    1.3555 H.spc      1 <1>        0.000
     24 H           1.6531   -1.3963    0.7692 H.spc      1 <1>        0.000
     25 H           1.4945    0.2889   -0.7381 H.spc      1 <1>        0.000
     26 H           1.3409    1.3011    0.8367 H.spc      1 <1>        0.000
     27 H           3.4107   -2.1433   -1.2382 H.spc      1 <1>        0.000
     28 H           2.5699   -3.6169   -0.3865 H.spc      1 <1>        0.000
     29 H           1.3337    2.0308   -1.9262 H.spc      1 <1>        0.000
     30 H           2.5745    2.9142   -0.9013 H.spc      1 <1>        0.000
     31 H           1.5015   -3.1653   -2.3674 H.spc      1 <1>        0.000
     32 H           1.3821   -1.3722   -1.9173 H.spc      1 <1>        0.000
     33 H          -1.4567    3.2222    0.4925 H.spc      1 <1>        0.000
     34 H          -0.7900    1.6320   -1.9796 H.spc      1 <1>        0.000
     35 H          -3.0751   -2.1679   -1.6680 H.spc      1 <1>        0.000
     36 H          -2.2774   -3.0084   -0.2409 H.spc      1 <1>        0.000
     37 H          -3.5220    2.0273   -1.6697 H.spc      1 <1>        0.000
     38 H          -2.8668   -1.1491    0.7929 H.spc      1 <1>        0.000
     39 H          -1.3419   -0.5177   -0.0110 H.spc      1 <1>        0.000
     40 H          -4.2079   -0.0240   -0.9225 H.spc      1 <1>        0.000
@<TRIPOS>BOND
     1    1    2 1  
     2    5    8 1  
     3    4    7 1  
     4    7    9 1  
     5    3    5 1  
     6    1    3 1  
     7    2    4 1  
     8   17   18 1  
     9   16   18 2  
    10   15   17 1  
    11    6   15 1  
    12   14   16 1  
    13   11   14 2  
    14   10    6 1  
    15    9   12 2  
    16    9   11 1  
    17   10   13 2  
    18    8   10 1  
    19    1   19 1  
    20    1   20 1  
    21    2   21 1  
    22    2   22 1  
    23    3   23 1  
    24    3   24 1  
    25    4   25 1  
    26    4   26 1  
    27    5   27 1  
    28    5   28 1  
    29    7   29 1  
    30    7   30 1  
    31    8   31 1  
    32    8   32 1  
    33   11   33 1  
    34   14   34 1  
    35   15   35 1  
    36   15   36 1  
    37   16   37 1  
    38   17   38 1  
    39   17   39 1  
    40   18   40 1  
# Name:          frag5-616-93/138278 -- energy: -7.275947
# Creation time: Sat Jun  5 12:53:47 2010


@<TRIPOS>MOLECULE
frag5-616-93/138278 -- energy: -7.275947
   40    40     1     1     1
SMALL
USER_CHARGES


@<TRIPOS>ATOM
      1 C1          3.4604   -0.8352   -0.3750 C.3        1 <1>        0.000
      2 C2          3.1608    0.6569   -0.3457 C.3        1 <1>        0.000
      3 C3          2.5714   -1.7951   -1.1473 C.3        1 <1>        0.000
      4 C4          1.8362    1.2242    0.1570 C.3        1 <1>        0.000
      5 C7          2.3913   -3.1876   -0.5713 C.3        1 <1>        0.000
      6 O7         -1.2659   -2.8067   -0.3870 O.3        1 <1>        0.000
      7 C9          1.5721    2.6813   -0.1646 C.3        1 <1>        0.000
      8 C12         1.0093   -3.6778   -0.2101 C.3        1 <1>        0.000
      9 C13         0.2410    3.2818    0.2297 C.2        1 <1>        0.000
     10 C17        -0.0484   -2.6718    0.1696 C.2        1 <1>        0.000
     11 C18        -1.0353    2.7800   -0.3007 C.2        1 <1>        0.000
     12 O6          0.1847    4.2232    1.0240 O.2        1 <1>        0.000
     13 O8          0.2270   -1.7623    0.9489 O.2        1 <1>        0.000
     14 C22        -1.1895    2.1515   -1.4679 C.2        1 <1>        0.000
     15 C27        -2.0668   -1.6476   -0.5060 C.3        1 <1>        0.000
     16 C28        -2.3447    1.5778   -2.0825 C.2        1 <1>        0.000
     17 C31        -1.7011   -0.8484   -1.7449 C.3        1 <1>        0.000
     18 C33        -2.5814    0.2648   -2.1892 C.2        1 <1>        0.000
     19 H           3.3491   -1.1482    0.6632 H.spc      1 <1>        0.000
     20 H           4.4240   -0.9020   -0.8801 H.spc      1 <1>        0.000
     21 H           3.1672    0.9338   -1.3999 H.spc      1 <1>        0.000
     22 H           3.8860    1.0433    0.3705 H.spc      1 <1>        0.000
     23 H           1.5790   -1.3442   -1.1484 H.spc      1 <1>        0.000
     24 H           3.0553   -1.9346   -2.1140 H.spc      1 <1>        0.000
     25 H           1.0511    0.6542   -0.3398 H.spc      1 <1>        0.000
     26 H           1.8652    1.1513    1.2442 H.spc      1 <1>        0.000
     27 H           2.7207   -3.8574   -1.3656 H.spc      1 <1>        0.000
     28 H           2.9300   -3.1641    0.3760 H.spc      1 <1>        0.000
     29 H           1.5988    2.7409   -1.2526 H.spc      1 <1>        0.000
     30 H           2.3146    3.2371    0.4080 H.spc      1 <1>        0.000
     31 H           1.1520   -4.2855    0.6834 H.spc      1 <1>        0.000
     32 H           0.6335   -4.1509   -1.1173 H.spc      1 <1>        0.000
     33 H          -1.9265    2.9336    0.3079 H.spc      1 <1>        0.000
     34 H          -0.2752    2.0599   -2.0542 H.spc      1 <1>        0.000
     35 H          -3.1099   -1.9535   -0.5860 H.spc      1 <1>        0.000
     36 H          -1.9035   -1.0216    0.3713 H.spc      1 <1>        0.000
     37 H          -3.0882    2.2598   -2.4950 H.spc      1 <1>        0.000
     38 H          -0.7556   -0.3680   -1.4933 H.spc      1 <1>        0.000
     39 H          -1.7390   -1.5713   -2.5598 H.spc      1 <1>        0.000
     40 H          -3.5252   -0.0206   -2.6538 H.spc      1 <1>        0.000
@<TRIPOS>BOND
     1    1    2 1  
     2    5    8 1  
     3    4    7 1  
     4    7    9 1  
     5    3    5 1  
     6    1    3 1  
     7    2    4 1  
     8   17   18 1  
     9   16   18 2  
    10   15   17 1  
    11    6   15 1  
    12   14   16 1  
    13   11   14 2  
    14   10    6 1  
    15    9   12 2  
    16    9   11 1  
    17   10   13 2  
    18    8   10 1  
    19    1   19 1  
    20    1   20 1  
    21    2   21 1  
    22    2   22 1  
    23    3   23 1  
    24    3   24 1  
    25    4   25 1  
    26    4   26 1  
    27    5   27 1  
    28    5   28 1  
    29    7   29 1  
    30    7   30 1  
    31    8   31 1  
    32    8   32 1  
    33   11   33 1  
    34   14   34 1  
    35   15   35 1  
    36   15   36 1  
    37   16   37 1  
    38   17   38 1  
    39   17   39 1  
    40   18   40 1  
# Name:          frag5-616-93/138278 -- energy: -6.507276
# Creation time: Sat Jun  5 12:53:47 2010


@<TRIPOS>MOLECULE
frag5-616-93/138278 -- energy: -6.507276
   40    40     1     1     1
SMALL
USER_CHARGES


@<TRIPOS>ATOM
      1 C1          3.1483   -0.6037   -1.1544 C.3        1 <1>        0.000
      2 C2          2.9746    0.8723   -0.8573 C.3        1 <1>        0.000
      3 C3          3.1690   -1.6140   -0.0306 C.3        1 <1>        0.000
      4 C4          1.9537    1.3923    0.1303 C.3        1 <1>        0.000
      5 C7          1.8799   -2.2024    0.4920 C.3        1 <1>        0.000
      6 O7         -0.7111   -2.5798   -1.3734 O.3        1 <1>        0.000
      7 C9          1.7350    2.8900    0.1288 C.3        1 <1>        0.000
      8 C12         1.2959   -3.3847   -0.2433 C.3        1 <1>        0.000
      9 C13         0.3444    3.4459    0.3380 C.2        1 <1>        0.000
     10 C17        -0.1925   -3.3003   -0.3616 C.2        1 <1>        0.000
     11 C18        -0.8533    2.9399   -0.3619 C.2        1 <1>        0.000
     12 O6          0.1703    4.3696    1.1412 O.2        1 <1>        0.000
     13 O8         -0.8822   -3.8535    0.4955 O.2        1 <1>        0.000
     14 C22        -0.8969    2.1035   -1.4091 C.2        1 <1>        0.000
     15 C27        -2.0265   -2.0995   -1.1959 C.3        1 <1>        0.000
     16 C28        -2.0037    1.5312   -2.1064 C.2        1 <1>        0.000
     17 C31        -2.1331   -0.6372   -0.7692 C.3        1 <1>        0.000
     18 C33        -2.5507    0.3396   -1.8258 C.2        1 <1>        0.000
     19 H           4.1419   -0.6737   -1.5970 H.spc      1 <1>        0.000
     20 H           2.2647   -0.8666   -1.7359 H.spc      1 <1>        0.000
     21 H           2.6339    1.2810   -1.8086 H.spc      1 <1>        0.000
     22 H           3.9261    1.1504   -0.4040 H.spc      1 <1>        0.000
     23 H           3.7057   -2.4672   -0.4455 H.spc      1 <1>        0.000
     24 H           3.5776   -1.0648    0.8176 H.spc      1 <1>        0.000
     25 H           1.0006    0.9428   -0.1483 H.spc      1 <1>        0.000
     26 H           2.3286    1.1380    1.1217 H.spc      1 <1>        0.000
     27 H           2.1118   -2.5679    1.4924 H.spc      1 <1>        0.000
     28 H           1.1393   -1.4080    0.3996 H.spc      1 <1>        0.000
     29 H           2.0084    3.2062   -0.8779 H.spc      1 <1>        0.000
     30 H           2.3065    3.2516    0.9836 H.spc      1 <1>        0.000
     31 H           1.5400   -4.2865    0.3182 H.spc      1 <1>        0.000
     32 H           1.7150   -3.3980   -1.2494 H.spc      1 <1>        0.000
     33 H          -1.8146    3.2869    0.0171 H.spc      1 <1>        0.000
     34 H           0.0798    1.8103   -1.7939 H.spc      1 <1>        0.000
     35 H          -2.5221   -2.1800   -2.1634 H.spc      1 <1>        0.000
     36 H          -2.4706   -2.6919   -0.3959 H.spc      1 <1>        0.000
     37 H          -2.4354    2.1048   -2.9266 H.spc      1 <1>        0.000
     38 H          -2.9078   -0.6023   -0.0032 H.spc      1 <1>        0.000
     39 H          -1.1307   -0.3389   -0.4620 H.spc      1 <1>        0.000
     40 H          -3.4017    0.0462   -2.4404 H.spc      1 <1>        0.000
@<TRIPOS>BOND
     1    1    2 1  
     2    5    8 1  
     3    4    7 1  
     4    7    9 1  
     5    3    5 1  
     6    1    3 1  
     7    2    4 1  
     8   17   18 1  
     9   16   18 2  
    10   15   17 1  
    11    6   15 1  
    12   14   16 1  
    13   11   14 2  
    14   10    6 1  
    15    9   12 2  
    16    9   11 1  
    17   10   13 2  
    18    8   10 1  
    19    1   19 1  
    20    1   20 1  
    21    2   21 1  
    22    2   22 1  
    23    3   23 1  
    24    3   24 1  
    25    4   25 1  
    26    4   26 1  
    27    5   27 1  
    28    5   28 1  
    29    7   29 1  
    30    7   30 1  
    31    8   31 1  
    32    8   32 1  
    33   11   33 1  
    34   14   34 1  
    35   15   35 1  
    36   15   36 1  
    37   16   37 1  
    38   17   38 1  
    39   17   39 1  
    40   18   40 1  
# Name:          frag5-616-93/138278 -- energy: -6.288364
# Creation time: Sat Jun  5 12:53:47 2010


@<TRIPOS>MOLECULE
frag5-616-93/138278 -- energy: -6.288364
   40    40     1     1     1
SMALL
USER_CHARGES


@<TRIPOS>ATOM
      1 C1          3.3664   -0.6534    0.7864 C.3        1 <1>        0.000
      2 C2          3.1845    0.6875    0.1201 C.3        1 <1>        0.000
      3 C3          3.3155   -1.8458   -0.1369 C.3        1 <1>        0.000
      4 C4          1.9543    1.4956    0.4339 C.3        1 <1>        0.000
      5 C7          1.9758   -2.0553   -0.7866 C.3        1 <1>        0.000
      6 O7         -1.3209   -3.1284    0.1045 O.3        1 <1>        0.000
      7 C9          1.7561    2.7421   -0.3777 C.3        1 <1>        0.000
      8 C12         1.1077   -3.1079   -0.1784 C.3        1 <1>        0.000
      9 C13         0.4486    3.4655   -0.1840 C.2        1 <1>        0.000
     10 C17        -0.2729   -3.0922   -0.7291 C.2        1 <1>        0.000
     11 C18        -0.8389    2.8870   -0.6050 C.2        1 <1>        0.000
     12 O6          0.4208    4.5519    0.3889 O.2        1 <1>        0.000
     13 O8         -0.4187   -2.9460   -1.9376 O.2        1 <1>        0.000
     14 C22        -1.0798    1.9632   -1.5377 C.2        1 <1>        0.000
     15 C27        -2.2584   -2.1792   -0.3372 C.3        1 <1>        0.000
     16 C28        -2.3438    1.3809   -1.8854 C.2        1 <1>        0.000
     17 C31        -1.8544   -0.7238   -0.6312 C.3        1 <1>        0.000
     18 C33        -2.7208    0.1673   -1.4703 C.2        1 <1>        0.000
     19 H           2.5403   -0.7673    1.4883 H.spc      1 <1>        0.000
     20 H           4.3607   -0.6472    1.2329 H.spc      1 <1>        0.000
     21 H           3.1110    0.4650   -0.9444 H.spc      1 <1>        0.000
     22 H           4.0176    1.2937    0.4758 H.spc      1 <1>        0.000
     23 H           4.0386   -1.6705   -0.9335 H.spc      1 <1>        0.000
     24 H           3.5268   -2.7305    0.4637 H.spc      1 <1>        0.000
     25 H           1.1027    0.8513    0.2153 H.spc      1 <1>        0.000
     26 H           2.0588    1.8198    1.4693 H.spc      1 <1>        0.000
     27 H           1.4349   -1.1149   -0.6807 H.spc      1 <1>        0.000
     28 H           2.1790   -2.3795   -1.8073 H.spc      1 <1>        0.000
     29 H           1.7783    2.4305   -1.4220 H.spc      1 <1>        0.000
     30 H           2.5358    3.4358   -0.0631 H.spc      1 <1>        0.000
     31 H           1.0456   -2.9161    0.8928 H.spc      1 <1>        0.000
     32 H           1.5488   -4.0793   -0.4020 H.spc      1 <1>        0.000
     33 H          -1.7170    3.2660   -0.0822 H.spc      1 <1>        0.000
     34 H          -0.2157    1.6102   -2.1006 H.spc      1 <1>        0.000
     35 H          -2.5772   -2.5611   -1.3071 H.spc      1 <1>        0.000
     36 H          -2.9529   -2.0921    0.4983 H.spc      1 <1>        0.000
     37 H          -3.0260    1.9523   -2.5149 H.spc      1 <1>        0.000
     38 H          -1.8576   -0.2468    0.3489 H.spc      1 <1>        0.000
     39 H          -0.9353   -0.8176   -1.2096 H.spc      1 <1>        0.000
     40 H          -3.7089   -0.1931   -1.7565 H.spc      1 <1>        0.000
@<TRIPOS>BOND
     1    1    2 1  
     2    5    8 1  
     3    4    7 1  
     4    7    9 1  
     5    3    5 1  
     6    1    3 1  
     7    2    4 1  
     8   17   18 1  
     9   16   18 2  
    10   15   17 1  
    11    6   15 1  
    12   14   16 1  
    13   11   14 2  
    14   10    6 1  
    15    9   12 2  
    16    9   11 1  
    17   10   13 2  
    18    8   10 1  
    19    1   19 1  
    20    1   20 1  
    21    2   21 1  
    22    2   22 1  
    23    3   23 1  
    24    3   24 1  
    25    4   25 1  
    26    4   26 1  
    27    5   27 1  
    28    5   28 1  
    29    7   29 1  
    30    7   30 1  
    31    8   31 1  
    32    8   32 1  
    33   11   33 1  
    34   14   34 1  
    35   15   35 1  
    36   15   36 1  
    37   16   37 1  
    38   17   38 1  
    39   17   39 1  
    40   18   40 1  
# Name:          frag5-616-93/138278 -- energy: -6.972329
# Creation time: Sat Jun  5 12:53:47 2010


@<TRIPOS>MOLECULE
frag5-616-93/138278 -- energy: -6.972329
   40    40     1     1     1
SMALL
USER_CHARGES


@<TRIPOS>ATOM
      1 C1          3.0562   -0.8377   -1.4222 C.3        1 <1>        0.000
      2 C2          3.0574    0.6460   -1.0473 C.3        1 <1>        0.000
      3 C3          3.1243   -1.9071   -0.3504 C.3        1 <1>        0.000
      4 C4          2.0533    1.1678   -0.0305 C.3        1 <1>        0.000
      5 C7          2.1212   -3.0121   -0.1247 C.3        1 <1>        0.000
      6 O7         -0.7684   -2.5207   -0.6296 O.3        1 <1>        0.000
      7 C9          1.5035    2.5699   -0.2081 C.3        1 <1>        0.000
      8 C12         1.0482   -2.8906    0.9314 C.3        1 <1>        0.000
      9 C13         0.1656    2.7994    0.4634 C.2        1 <1>        0.000
     10 C17        -0.1846   -2.1336    0.5162 C.2        1 <1>        0.000
     11 C18        -1.0747    2.2363   -0.1190 C.2        1 <1>        0.000
     12 O6          0.0968    3.3903    1.5424 O.2        1 <1>        0.000
     13 O8         -0.5444   -1.1839    1.2080 O.2        1 <1>        0.000
     14 C22        -1.2600    2.0671   -1.4378 C.2        1 <1>        0.000
     15 C27        -1.8031   -1.6926   -1.1223 C.3        1 <1>        0.000
     16 C28        -2.3238    1.5212   -2.2213 C.2        1 <1>        0.000
     17 C31        -1.4342   -0.8495   -2.3149 C.3        1 <1>        0.000
     18 C33        -2.4123    0.2390   -2.5962 C.2        1 <1>        0.000
     19 H           3.9773   -0.9700   -1.9897 H.spc      1 <1>        0.000
     20 H           2.0852   -0.9931   -1.8925 H.spc      1 <1>        0.000
     21 H           2.8054    1.1635   -1.9729 H.spc      1 <1>        0.000
     22 H           4.0297    0.8114   -0.5832 H.spc      1 <1>        0.000
     23 H           4.0087   -2.4682   -0.6523 H.spc      1 <1>        0.000
     24 H           3.0133   -1.3171    0.5594 H.spc      1 <1>        0.000
     25 H           1.1890    0.5098   -0.1208 H.spc      1 <1>        0.000
     26 H           2.5934    1.1918    0.9160 H.spc      1 <1>        0.000
     27 H           1.5647   -3.0571   -1.0608 H.spc      1 <1>        0.000
     28 H           2.7277   -3.8528    0.2123 H.spc      1 <1>        0.000
     29 H           1.3588    2.7264   -1.2770 H.spc      1 <1>        0.000
     30 H           2.2160    3.2560    0.2499 H.spc      1 <1>        0.000
     31 H           1.4889   -2.3365    1.7602 H.spc      1 <1>        0.000
     32 H           0.7260   -3.9052    1.1655 H.spc      1 <1>        0.000
     33 H          -1.8778    1.9445    0.5578 H.spc      1 <1>        0.000
     34 H          -0.4219    2.4208   -2.0383 H.spc      1 <1>        0.000
     35 H          -2.6083   -2.3537   -1.4426 H.spc      1 <1>        0.000
     36 H          -2.0625   -1.0031   -0.3189 H.spc      1 <1>        0.000
     37 H          -3.1193    2.1968   -2.5358 H.spc      1 <1>        0.000
     38 H          -0.4737   -0.3807   -2.1011 H.spc      1 <1>        0.000
     39 H          -1.4123   -1.5045   -3.1859 H.spc      1 <1>        0.000
     40 H          -3.2964   -0.0391   -3.1699 H.spc      1 <1>        0.000
@<TRIPOS>BOND
     1    1    2 1  
     2    5    8 1  
     3    4    7 1  
     4    7    9 1  
     5    3    5 1  
     6    1    3 1  
     7    2    4 1  
     8   17   18 1  
     9   16   18 2  
    10   15   17 1  
    11    6   15 1  
    12   14   16 1  
    13   11   14 2  
    14   10    6 1  
    15    9   12 2  
    16    9   11 1  
    17   10   13 2  
    18    8   10 1  
    19    1   19 1  
    20    1   20 1  
    21    2   21 1  
    22    2   22 1  
    23    3   23 1  
    24    3   24 1  
    25    4   25 1  
    26    4   26 1  
    27    5   27 1  
    28    5   28 1  
    29    7   29 1  
    30    7   30 1  
    31    8   31 1  
    32    8   32 1  
    33   11   33 1  
    34   14   34 1  
    35   15   35 1  
    36   15   36 1  
    37   16   37 1  
    38   17   38 1  
    39   17   39 1  
    40   18   40 1  
# Name:          frag5-616-93/138278 -- energy: -8.159082
# Creation time: Sat Jun  5 12:53:47 2010


@<TRIPOS>MOLECULE
frag5-616-93/138278 -- energy: -8.159082
   40    40     1     1     1
SMALL
USER_CHARGES


@<TRIPOS>ATOM
      1 C1          3.7202   -0.5025    0.2895 C.3        1 <1>        0.000
      2 C2          3.3605    0.7104   -0.5552 C.3        1 <1>        0.000
      3 C3          2.5672   -1.2946    0.8610 C.3        1 <1>        0.000
      4 C4          2.2667    1.5990    0.0140 C.3        1 <1>        0.000
      5 C7          1.5687   -1.7678   -0.2037 C.3        1 <1>        0.000
      6 O7         -1.2167   -2.9611   -1.6062 O.3        1 <1>        0.000
      7 C9          1.7556    2.7684   -0.7974 C.3        1 <1>        0.000
      8 C12         0.5435   -2.8229    0.1832 C.3        1 <1>        0.000
      9 C13         0.5666    3.4334   -0.1369 C.2        1 <1>        0.000
     10 C17        -0.2021   -3.4958   -0.9329 C.2        1 <1>        0.000
     11 C18        -0.8003    2.8823   -0.2248 C.2        1 <1>        0.000
     12 O6          0.7231    4.4485    0.5462 O.2        1 <1>        0.000
     13 O8          0.1404   -4.6444   -1.2377 O.2        1 <1>        0.000
     14 C22        -1.3405    2.0277   -1.1010 C.2        1 <1>        0.000
     15 C27        -1.5665   -1.6035   -1.6889 C.3        1 <1>        0.000
     16 C28        -2.6711    1.4882   -1.1159 C.2        1 <1>        0.000
     17 C31        -2.0163   -0.8716   -0.4388 C.3        1 <1>        0.000
     18 C33        -2.9781    0.2156   -0.8173 C.2        1 <1>        0.000
     19 H           4.2758   -0.1193    1.1454 H.spc      1 <1>        0.000
     20 H           4.2540   -1.1835   -0.3734 H.spc      1 <1>        0.000
     21 H           2.9885    0.3286   -1.5060 H.spc      1 <1>        0.000
     22 H           4.2592    1.3240   -0.6179 H.spc      1 <1>        0.000
     23 H           2.9823   -2.1812    1.3404 H.spc      1 <1>        0.000
     24 H           2.0297   -0.6432    1.5502 H.spc      1 <1>        0.000
     25 H           1.4048    0.9405    0.1215 H.spc      1 <1>        0.000
     26 H           2.7126    2.0519    0.8995 H.spc      1 <1>        0.000
     27 H           0.9854   -0.8837   -0.4612 H.spc      1 <1>        0.000
     28 H           2.1773   -2.2320   -0.9797 H.spc      1 <1>        0.000
     29 H           1.4426    2.3977   -1.7735 H.spc      1 <1>        0.000
     30 H           2.5563    3.5032   -0.8817 H.spc      1 <1>        0.000
     31 H          -0.2113   -2.3009    0.7713 H.spc      1 <1>        0.000
     32 H           1.1050   -3.6124    0.6826 H.spc      1 <1>        0.000
     33 H          -1.4816    3.2288    0.5523 H.spc      1 <1>        0.000
     34 H          -0.6859    1.6984   -1.9079 H.spc      1 <1>        0.000
     35 H          -0.6486   -1.0988   -1.9902 H.spc      1 <1>        0.000
     36 H          -2.4327   -1.5804   -2.3501 H.spc      1 <1>        0.000
     37 H          -3.4875    2.1572   -1.3881 H.spc      1 <1>        0.000
     38 H          -2.5065   -1.5724    0.2369 H.spc      1 <1>        0.000
     39 H          -1.1505   -0.4348    0.0588 H.spc      1 <1>        0.000
     40 H          -4.0334   -0.0550   -0.8536 H.spc      1 <1>        0.000
@<TRIPOS>BOND
     1    1    2 1  
     2    5    8 1  
     3    4    7 1  
     4    7    9 1  
     5    3    5 1  
     6    1    3 1  
     7    2    4 1  
     8   17   18 1  
     9   16   18 2  
    10   15   17 1  
    11    6   15 1  
    12   14   16 1  
    13   11   14 2  
    14   10    6 1  
    15    9   12 2  
    16    9   11 1  
    17   10   13 2  
    18    8   10 1  
    19    1   19 1  
    20    1   20 1  
    21    2   21 1  
    22    2   22 1  
    23    3   23 1  
    24    3   24 1  
    25    4   25 1  
    26    4   26 1  
    27    5   27 1  
    28    5   28 1  
    29    7   29 1  
    30    7   30 1  
    31    8   31 1  
    32    8   32 1  
    33   11   33 1  
    34   14   34 1  
    35   15   35 1  
    36   15   36 1  
    37   16   37 1  
    38   17   38 1  
    39   17   39 1  
    40   18   40 1  
# Name:          frag5-616-93/138278 -- energy: -6.698873
# Creation time: Sat Jun  5 12:53:47 2010


@<TRIPOS>MOLECULE
frag5-616-93/138278 -- energy: -6.698873
   40    40     1     1     1
SMALL
USER_CHARGES


@<TRIPOS>ATOM
      1 C1          4.0498   -0.5132   -0.3181 C.3        1 <1>        0.000
      2 C2          3.3205    0.7923   -0.5477 C.3        1 <1>        0.000
      3 C3          3.2997   -1.7642    0.0215 C.3        1 <1>        0.000
      4 C4          1.9602    1.1044    0.0540 C.3        1 <1>        0.000
      5 C7          2.1422   -2.2857   -0.7942 C.3        1 <1>        0.000
      6 O7         -0.6448   -1.4585    0.0755 O.3        1 <1>        0.000
      7 C9          1.4894    2.5328   -0.1109 C.3        1 <1>        0.000
      8 C12         1.1739   -3.0840    0.0692 C.3        1 <1>        0.000
      9 C13         0.1068    2.8906    0.3905 C.2        1 <1>        0.000
     10 C17        -0.2765   -2.7406    0.0098 C.2        1 <1>        0.000
     11 C18        -1.1299    2.4169   -0.2668 C.2        1 <1>        0.000
     12 O6         -0.0184    3.5863    1.4014 O.2        1 <1>        0.000
     13 O8         -1.1038   -3.6395   -0.1351 O.2        1 <1>        0.000
     14 C22        -1.2738    2.0417   -1.5441 C.2        1 <1>        0.000
     15 C27        -1.8809   -1.1675   -0.5291 C.3        1 <1>        0.000
     16 C28        -2.4055    1.5324   -2.2625 C.2        1 <1>        0.000
     17 C31        -1.7477   -0.8632   -2.0085 C.3        1 <1>        0.000
     18 C33        -2.6401    0.2283   -2.4681 C.2        1 <1>        0.000
     19 H           4.6616   -0.3234    0.5638 H.spc      1 <1>        0.000
     20 H           4.5093   -0.7331   -1.2817 H.spc      1 <1>        0.000
     21 H           3.1179    0.7759   -1.6186 H.spc      1 <1>        0.000
     22 H           3.9732    1.5254   -0.0738 H.spc      1 <1>        0.000
     23 H           4.0538   -2.5422   -0.0978 H.spc      1 <1>        0.000
     24 H           2.8358   -1.5200    0.9771 H.spc      1 <1>        0.000
     25 H           1.2378    0.4766   -0.4677 H.spc      1 <1>        0.000
     26 H           2.0461    0.9270    1.1260 H.spc      1 <1>        0.000
     27 H           1.6081   -1.4371   -1.2217 H.spc      1 <1>        0.000
     28 H           2.5331   -2.9397   -1.5737 H.spc      1 <1>        0.000
     29 H           1.4588    2.7037   -1.1870 H.spc      1 <1>        0.000
     30 H           2.1765    3.1333    0.4853 H.spc      1 <1>        0.000
     31 H           1.4740   -2.8820    1.0974 H.spc      1 <1>        0.000
     32 H           1.2408   -4.1082   -0.2978 H.spc      1 <1>        0.000
     33 H          -2.0225    2.3677    0.3568 H.spc      1 <1>        0.000
     34 H          -0.3697    2.1411   -2.1447 H.spc      1 <1>        0.000
     35 H          -2.5213   -2.0431   -0.4226 H.spc      1 <1>        0.000
     36 H          -2.2943   -0.2851   -0.0406 H.spc      1 <1>        0.000
     37 H          -3.1195    2.2500   -2.6666 H.spc      1 <1>        0.000
     38 H          -0.7206   -0.5450   -2.1872 H.spc      1 <1>        0.000
     39 H          -2.0231   -1.7649   -2.5554 H.spc      1 <1>        0.000
     40 H          -3.5458   -0.0475   -3.0083 H.spc      1 <1>        0.000
@<TRIPOS>BOND
     1    1    2 1  
     2    5    8 1  
     3    4    7 1  
     4    7    9 1  
     5    3    5 1  
     6    1    3 1  
     7    2    4 1  
     8   17   18 1  
     9   16   18 2  
    10   15   17 1  
    11    6   15 1  
    12   14   16 1  
    13   11   14 2  
    14   10    6 1  
    15    9   12 2  
    16    9   11 1  
    17   10   13 2  
    18    8   10 1  
    19    1   19 1  
    20    1   20 1  
    21    2   21 1  
    22    2   22 1  
    23    3   23 1  
    24    3   24 1  
    25    4   25 1  
    26    4   26 1  
    27    5   27 1  
    28    5   28 1  
    29    7   29 1  
    30    7   30 1  
    31    8   31 1  
    32    8   32 1  
    33   11   33 1  
    34   14   34 1  
    35   15   35 1  
    36   15   36 1  
    37   16   37 1  
    38   17   38 1  
    39   17   39 1  
    40   18   40 1  
# Name:          frag5-616-93/138278 -- energy: -6.236937
# Creation time: Sat Jun  5 12:53:47 2010


@<TRIPOS>MOLECULE
frag5-616-93/138278 -- energy: -6.236937
   40    40     1     1     1
SMALL
USER_CHARGES


@<TRIPOS>ATOM
      1 C1          2.9808   -0.8176    0.9403 C.3        1 <1>        0.000
      2 C2          3.0677    0.6753    0.6849 C.3        1 <1>        0.000
      3 C3          3.2334   -1.7326   -0.2340 C.3        1 <1>        0.000
      4 C4          1.8328    1.5440    0.7590 C.3        1 <1>        0.000
      5 C7          2.2167   -1.8711   -1.3602 C.3        1 <1>        0.000
      6 O7         -0.8516   -2.0122   -1.1338 O.3        1 <1>        0.000
      7 C9          1.7303    2.6081   -0.3066 C.3        1 <1>        0.000
      8 C12         1.3573   -3.1210   -1.3816 C.3        1 <1>        0.000
      9 C13         0.4819    3.4554   -0.3678 C.2        1 <1>        0.000
     10 C17        -0.0966   -3.1023   -0.9883 C.2        1 <1>        0.000
     11 C18        -0.8371    2.8968   -0.6971 C.2        1 <1>        0.000
     12 O6          0.5429    4.6621   -0.1395 O.2        1 <1>        0.000
     13 O8         -0.5506   -4.1468   -0.5085 O.2        1 <1>        0.000
     14 C22        -1.0806    1.7702   -1.3824 C.2        1 <1>        0.000
     15 C27        -2.0048   -1.9830   -0.3249 C.3        1 <1>        0.000
     16 C28        -2.3519    1.1921   -1.6683 C.2        1 <1>        0.000
     17 C31        -2.3441   -0.5843    0.1481 C.3        1 <1>        0.000
     18 C33        -2.9055    0.1759   -1.0024 C.2        1 <1>        0.000
     19 H           1.9522   -1.0065    1.2476 H.spc      1 <1>        0.000
     20 H           3.7646   -1.0408    1.6642 H.spc      1 <1>        0.000
     21 H           3.3844    0.7500   -0.3554 H.spc      1 <1>        0.000
     22 H           3.7038    1.0468    1.4883 H.spc      1 <1>        0.000
     23 H           4.1072   -1.2996   -0.7210 H.spc      1 <1>        0.000
     24 H           3.2693   -2.7270    0.2110 H.spc      1 <1>        0.000
     25 H           0.9767    0.8829    0.6243 H.spc      1 <1>        0.000
     26 H           1.8725    2.0631    1.7166 H.spc      1 <1>        0.000
     27 H           1.5223   -1.0409   -1.2311 H.spc      1 <1>        0.000
     28 H           2.8012   -1.9023   -2.2797 H.spc      1 <1>        0.000
     29 H           1.7509    2.0654   -1.2517 H.spc      1 <1>        0.000
     30 H           2.5369    3.3076   -0.0869 H.spc      1 <1>        0.000
     31 H           1.8170   -3.7590   -0.6268 H.spc      1 <1>        0.000
     32 H           1.3322   -3.3946   -2.4364 H.spc      1 <1>        0.000
     33 H          -1.7059    3.4552   -0.3487 H.spc      1 <1>        0.000
     34 H          -0.2095    1.2371   -1.7632 H.spc      1 <1>        0.000
     35 H          -2.8420   -2.3504   -0.9183 H.spc      1 <1>        0.000
     36 H          -1.8156   -2.5993    0.5540 H.spc      1 <1>        0.000
     37 H          -2.9183    1.6142   -2.4984 H.spc      1 <1>        0.000
     38 H          -3.0732   -0.6301    0.9570 H.spc      1 <1>        0.000
     39 H          -1.4481   -0.0887    0.5218 H.spc      1 <1>        0.000
     40 H          -3.8924   -0.1364   -1.3439 H.spc      1 <1>        0.000
@<TRIPOS>BOND
     1    1    2 1  
     2    5    8 1  
     3    4    7 1  
     4    7    9 1  
     5    3    5 1  
     6    1    3 1  
     7    2    4 1  
     8   17   18 1  
     9   16   18 2  
    10   15   17 1  
    11    6   15 1  
    12   14   16 1  
    13   11   14 2  
    14   10    6 1  
    15    9   12 2  
    16    9   11 1  
    17   10   13 2  
    18    8   10 1  
    19    1   19 1  
    20    1   20 1  
    21    2   21 1  
    22    2   22 1  
    23    3   23 1  
    24    3   24 1  
    25    4   25 1  
    26    4   26 1  
    27    5   27 1  
    28    5   28 1  
    29    7   29 1  
    30    7   30 1  
    31    8   31 1  
    32    8   32 1  
    33   11   33 1  
    34   14   34 1  
    35   15   35 1  
    36   15   36 1  
    37   16   37 1  
    38   17   38 1  
    39   17   39 1  
    40   18   40 1  
# Name:          frag5-616-93/138278 -- energy: -7.578660
# Creation time: Sat Jun  5 12:53:48 2010


@<TRIPOS>MOLECULE
frag5-616-93/138278 -- energy: -7.578660
   40    40     1     1     1
SMALL
USER_CHARGES


@<TRIPOS>ATOM
      1 C1          3.8011   -0.6556   -0.6850 C.3        1 <1>        0.000
      2 C2          3.1990    0.6886   -1.1163 C.3        1 <1>        0.000
      3 C3          2.9920   -1.9041   -0.2745 C.3        1 <1>        0.000
      4 C4          2.3460    1.4004   -0.0874 C.3        1 <1>        0.000
      5 C7          1.9568   -1.8132    0.8372 C.3        1 <1>        0.000
      6 O7         -1.2619   -2.8720   -0.9735 O.3        1 <1>        0.000
      7 C9          1.5937    2.6285   -0.5121 C.3        1 <1>        0.000
      8 C12         0.5064   -1.7078    0.4014 C.3        1 <1>        0.000
      9 C13         0.4036    2.9410    0.3715 C.2        1 <1>        0.000
     10 C17        -0.1238   -2.9285   -0.2514 C.2        1 <1>        0.000
     11 C18        -0.9096    2.3329    0.0606 C.2        1 <1>        0.000
     12 O6          0.5152    3.6369    1.3828 O.2        1 <1>        0.000
     13 O8          0.4632   -4.0055   -0.0844 O.2        1 <1>        0.000
     14 C22        -1.4241    2.2460   -1.1648 C.2        1 <1>        0.000
     15 C27        -2.1021   -1.7261   -0.9670 C.3        1 <1>        0.000
     16 C28        -2.6452    1.6828   -1.6621 C.2        1 <1>        0.000
     17 C31        -1.9971   -0.7607   -2.1684 C.3        1 <1>        0.000
     18 C33        -2.8923    0.4255   -2.0697 C.2        1 <1>        0.000
     19 H           4.3073   -0.3936    0.2441 H.spc      1 <1>        0.000
     20 H           4.2940   -0.9905   -1.5977 H.spc      1 <1>        0.000
     21 H           2.5420    0.4715   -1.9585 H.spc      1 <1>        0.000
     22 H           4.0424    1.3480   -1.3211 H.spc      1 <1>        0.000
     23 H           2.4138   -2.1567   -1.1633 H.spc      1 <1>        0.000
     24 H           3.7402   -2.5983    0.1079 H.spc      1 <1>        0.000
     25 H           1.5798    0.6794    0.1976 H.spc      1 <1>        0.000
     26 H           3.0443    1.7422    0.6765 H.spc      1 <1>        0.000
     27 H           2.0366   -2.7421    1.4020 H.spc      1 <1>        0.000
     28 H           2.1769   -0.8949    1.3816 H.spc      1 <1>        0.000
     29 H           1.2172    2.4510   -1.5195 H.spc      1 <1>        0.000
     30 H           2.2804    3.4726   -0.4488 H.spc      1 <1>        0.000
     31 H           0.4853   -0.9263   -0.3581 H.spc      1 <1>        0.000
     32 H          -0.0622   -1.5388    1.3159 H.spc      1 <1>        0.000
     33 H          -1.4934    1.9301    0.8882 H.spc      1 <1>        0.000
     34 H          -0.7961    2.6880   -1.9383 H.spc      1 <1>        0.000
     35 H          -3.1224   -2.1093   -0.9858 H.spc      1 <1>        0.000
     36 H          -1.8005   -1.1451   -0.0955 H.spc      1 <1>        0.000
     37 H          -3.4904    2.3689   -1.7174 H.spc      1 <1>        0.000
     38 H          -0.9720   -0.3915   -2.1988 H.spc      1 <1>        0.000
     39 H          -2.2930   -1.3169   -3.0579 H.spc      1 <1>        0.000
     40 H          -3.9212    0.2438   -2.3802 H.spc      1 <1>        0.000
@<TRIPOS>BOND
     1    1    2 1  
     2    5    8 1  
     3    4    7 1  
     4    7    9 1  
     5    3    5 1  
     6    1    3 1  
     7    2    4 1  
     8   17   18 1  
     9   16   18 2  
    10   15   17 1  
    11    6   15 1  
    12   14   16 1  
    13   11   14 2  
    14   10    6 1  
    15    9   12 2  
    16    9   11 1  
    17   10   13 2  
    18    8   10 1  
    19    1   19 1  
    20    1   20 1  
    21    2   21 1  
    22    2   22 1  
    23    3   23 1  
    24    3   24 1  
    25    4   25 1  
    26    4   26 1  
    27    5   27 1  
    28    5   28 1  
    29    7   29 1  
    30    7   30 1  
    31    8   31 1  
    32    8   32 1  
    33   11   33 1  
    34   14   34 1  
    35   15   35 1  
    36   15   36 1  
    37   16   37 1  
    38   17   38 1  
    39   17   39 1  
    40   18   40 1  
# Name:          frag5-616-93/138278 -- energy: -7.536902
# Creation time: Sat Jun  5 12:53:48 2010


@<TRIPOS>MOLECULE
frag5-616-93/138278 -- energy: -7.536902
   40    40     1     1     1
SMALL
USER_CHARGES


@<TRIPOS>ATOM
      1 C1          2.0581   -0.5976    0.0118 C.3        1 <1>        0.000
      2 C2          2.7982    0.6822    0.3274 C.3        1 <1>        0.000
      3 C3          2.5230   -1.5100   -1.1020 C.3        1 <1>        0.000
      4 C4          1.9056    1.7413    0.9652 C.3        1 <1>        0.000
      5 C7          2.3764   -2.9971   -0.9006 C.3        1 <1>        0.000
      6 O7         -1.1095   -2.8888    0.3357 O.3        1 <1>        0.000
      7 C9          1.8145    3.0547    0.2038 C.3        1 <1>        0.000
      8 C12         1.1498   -3.6211   -0.2777 C.3        1 <1>        0.000
      9 C13         0.4626    3.6490   -0.1423 C.2        1 <1>        0.000
     10 C17        -0.1561   -2.9682   -0.6120 C.2        1 <1>        0.000
     11 C18        -0.6301    2.8737   -0.7910 C.2        1 <1>        0.000
     12 O6          0.2301    4.8415    0.0952 O.2        1 <1>        0.000
     13 O8         -0.3243   -2.5187   -1.7410 O.2        1 <1>        0.000
     14 C22        -0.5481    1.7347   -1.4947 C.2        1 <1>        0.000
     15 C27        -2.2431   -2.1325   -0.0283 C.3        1 <1>        0.000
     16 C28        -1.5759    0.9508   -2.1057 C.2        1 <1>        0.000
     17 C31        -2.0619   -0.6281   -0.1655 C.3        1 <1>        0.000
     18 C33        -2.2484   -0.0565   -1.5416 C.2        1 <1>        0.000
     19 H           1.0741   -0.2611   -0.3147 H.spc      1 <1>        0.000
     20 H           2.1735   -1.1996    0.9131 H.spc      1 <1>        0.000
     21 H           3.1779    1.0874   -0.6105 H.spc      1 <1>        0.000
     22 H           3.5902    0.4427    1.0370 H.spc      1 <1>        0.000
     23 H           1.8923   -1.2689   -1.9577 H.spc      1 <1>        0.000
     24 H           3.5946   -1.3334   -1.1943 H.spc      1 <1>        0.000
     25 H           0.8984    1.3257    0.9943 H.spc      1 <1>        0.000
     26 H           2.3401    1.9726    1.9377 H.spc      1 <1>        0.000
     27 H           2.3659   -3.3873   -1.9183 H.spc      1 <1>        0.000
     28 H           3.1660   -3.2317   -0.1868 H.spc      1 <1>        0.000
     29 H           2.2686    2.8375   -0.7630 H.spc      1 <1>        0.000
     30 H           2.2666    3.7861    0.8736 H.spc      1 <1>        0.000
     31 H           1.2723   -3.5289    0.8015 H.spc      1 <1>        0.000
     32 H           1.0926   -4.6387   -0.6641 H.spc      1 <1>        0.000
     33 H          -1.6323    3.2875   -0.6790 H.spc      1 <1>        0.000
     34 H           0.4621    1.3451   -1.6207 H.spc      1 <1>        0.000
     35 H          -2.5295   -2.4872   -1.0184 H.spc      1 <1>        0.000
     36 H          -2.9625   -2.2711    0.7788 H.spc      1 <1>        0.000
     37 H          -1.8369    1.1998   -3.1343 H.spc      1 <1>        0.000
     38 H          -2.8306   -0.1723    0.4586 H.spc      1 <1>        0.000
     39 H          -1.0281   -0.4211    0.1109 H.spc      1 <1>        0.000
     40 H          -3.0242   -0.5180   -2.1525 H.spc      1 <1>        0.000
@<TRIPOS>BOND
     1    1    2 1  
     2    5    8 1  
     3    4    7 1  
     4    7    9 1  
     5    3    5 1  
     6    1    3 1  
     7    2    4 1  
     8   17   18 1  
     9   16   18 2  
    10   15   17 1  
    11    6   15 1  
    12   14   16 1  
    13   11   14 2  
    14   10    6 1  
    15    9   12 2  
    16    9   11 1  
    17   10   13 2  
    18    8   10 1  
    19    1   19 1  
    20    1   20 1  
    21    2   21 1  
    22    2   22 1  
    23    3   23 1  
    24    3   24 1  
    25    4   25 1  
    26    4   26 1  
    27    5   27 1  
    28    5   28 1  
    29    7   29 1  
    30    7   30 1  
    31    8   31 1  
    32    8   32 1  
    33   11   33 1  
    34   14   34 1  
    35   15   35 1  
    36   15   36 1  
    37   16   37 1  
    38   17   38 1  
    39   17   39 1  
    40   18   40 1  
# Name:          frag5-616-93/138278 -- energy: -7.706027
# Creation time: Sat Jun  5 12:53:48 2010


@<TRIPOS>MOLECULE
frag5-616-93/138278 -- energy: -7.706027
   40    40     1     1     1
SMALL
USER_CHARGES


@<TRIPOS>ATOM
      1 C1          3.1368   -0.6853    0.4849 C.3        1 <1>        0.000
      2 C2          3.1817    0.8020    0.0941 C.3        1 <1>        0.000
      3 C3          3.2414   -1.7541   -0.5887 C.3        1 <1>        0.000
      4 C4          1.9059    1.4299   -0.4467 C.3        1 <1>        0.000
      5 C7          2.0027   -2.4630   -1.1057 C.3        1 <1>        0.000
      6 O7         -0.5713   -1.8720    0.2912 O.3        1 <1>        0.000
      7 C9          1.6360    2.9033   -0.1508 C.3        1 <1>        0.000
      8 C12         1.2388   -3.4463   -0.2299 C.3        1 <1>        0.000
      9 C13         0.2156    3.3074    0.3049 C.2        1 <1>        0.000
     10 C17        -0.2266   -3.0905   -0.1598 C.2        1 <1>        0.000
     11 C18        -1.0073    2.6617   -0.2863 C.2        1 <1>        0.000
     12 O6          0.0441    4.1671    1.1766 O.2        1 <1>        0.000
     13 O8         -1.0572   -3.8866   -0.5976 O.2        1 <1>        0.000
     14 C22        -1.1270    2.1367   -1.5188 C.2        1 <1>        0.000
     15 C27        -1.7832   -1.2960   -0.2210 C.3        1 <1>        0.000
     16 C28        -2.2436    1.4831   -2.1123 C.2        1 <1>        0.000
     17 C31        -1.6742   -0.9626   -1.7024 C.3        1 <1>        0.000
     18 C33        -2.4914    0.1744   -2.1946 C.2        1 <1>        0.000
     19 H           2.1445   -0.8252    0.9138 H.spc      1 <1>        0.000
     20 H           4.0222   -0.8320    1.1035 H.spc      1 <1>        0.000
     21 H           3.9063    0.8686   -0.7175 H.spc      1 <1>        0.000
     22 H           3.4030    1.3393    1.0163 H.spc      1 <1>        0.000
     23 H           3.6237   -1.2199   -1.4585 H.spc      1 <1>        0.000
     24 H           3.8236   -2.5465   -0.1183 H.spc      1 <1>        0.000
     25 H           1.9963    1.3692   -1.5312 H.spc      1 <1>        0.000
     26 H           1.0941    0.8886    0.0391 H.spc      1 <1>        0.000
     27 H           1.2905   -1.6566   -1.2808 H.spc      1 <1>        0.000
     28 H           2.3724   -3.0744   -1.9289 H.spc      1 <1>        0.000
     29 H           1.7925    3.4203   -1.0975 H.spc      1 <1>        0.000
     30 H           2.2886    3.1531    0.6858 H.spc      1 <1>        0.000
     31 H           1.6541   -3.4106    0.7773 H.spc      1 <1>        0.000
     32 H           1.3346   -4.4430   -0.6606 H.spc      1 <1>        0.000
     33 H          -1.8899    2.6142    0.3515 H.spc      1 <1>        0.000
     34 H          -0.2445    2.2240   -2.1526 H.spc      1 <1>        0.000
     35 H          -2.5863   -2.0218   -0.0931 H.spc      1 <1>        0.000
     36 H          -1.9779   -0.3718    0.3230 H.spc      1 <1>        0.000
     37 H          -2.9939    2.1366   -2.5575 H.spc      1 <1>        0.000
     38 H          -0.6352   -0.6787   -1.8695 H.spc      1 <1>        0.000
     39 H          -2.0350   -1.8428   -2.2345 H.spc      1 <1>        0.000
     40 H          -3.4226   -0.0970   -2.6920 H.spc      1 <1>        0.000
@<TRIPOS>BOND
     1    1    2 1  
     2    5    8 1  
     3    4    7 1  
     4    7    9 1  
     5    3    5 1  
     6    1    3 1  
     7    2    4 1  
     8   17   18 1  
     9   16   18 2  
    10   15   17 1  
    11    6   15 1  
    12   14   16 1  
    13   11   14 2  
    14   10    6 1  
    15    9   12 2  
    16    9   11 1  
    17   10   13 2  
    18    8   10 1  
    19    1   19 1  
    20    1   20 1  
    21    2   21 1  
    22    2   22 1  
    23    3   23 1  
    24    3   24 1  
    25    4   25 1  
    26    4   26 1  
    27    5   27 1  
    28    5   28 1  
    29    7   29 1  
    30    7   30 1  
    31    8   31 1  
    32    8   32 1  
    33   11   33 1  
    34   14   34 1  
    35   15   35 1  
    36   15   36 1  
    37   16   37 1  
    38   17   38 1  
    39   17   39 1  
    40   18   40 1  
# Name:          frag5-616-93/138278 -- energy: -7.869233
# Creation time: Sat Jun  5 12:53:48 2010


@<TRIPOS>MOLECULE
frag5-616-93/138278 -- energy: -7.869233
   40    40     1     1     1
SMALL
USER_CHARGES


@<TRIPOS>ATOM
      1 C1          3.4881   -0.0092   -0.3465 C.3        1 <1>        0.000
      2 C2          3.8798    1.4397   -0.1084 C.3        1 <1>        0.000
      3 C3          2.3841   -0.5969    0.5104 C.3        1 <1>        0.000
      4 C4          3.1337    2.5578   -0.7916 C.3        1 <1>        0.000
      5 C7          1.7740   -1.9343    0.1496 C.3        1 <1>        0.000
      6 O7         -1.8508   -2.7563   -0.3395 O.3        1 <1>        0.000
      7 C9          1.6438    2.5670   -1.0002 C.3        1 <1>        0.000
      8 C12         0.3027   -2.0897    0.4847 C.3        1 <1>        0.000
      9 C13         0.7748    2.5236    0.2641 C.2        1 <1>        0.000
     10 C17        -0.5169   -2.9880   -0.4000 C.2        1 <1>        0.000
     11 C18        -0.5760    1.9077    0.1794 C.2        1 <1>        0.000
     12 O6          1.1242    2.9708    1.3636 O.2        1 <1>        0.000
     13 O8          0.0053   -3.7959   -1.1582 O.2        1 <1>        0.000
     14 C22        -1.2913    1.8666   -0.9619 C.2        1 <1>        0.000
     15 C27        -2.4134   -2.4081   -1.5881 C.3        1 <1>        0.000
     16 C28        -2.5725    1.3085   -1.2784 C.2        1 <1>        0.000
     17 C31        -1.9964   -1.0507   -2.1686 C.3        1 <1>        0.000
     18 C33        -2.8723    0.0966   -1.7736 C.2        1 <1>        0.000
     19 H           4.3785   -0.5922   -0.1114 H.spc      1 <1>        0.000
     20 H           3.1104   -0.0429   -1.3684 H.spc      1 <1>        0.000
     21 H           4.8926    1.5120   -0.5048 H.spc      1 <1>        0.000
     22 H           3.6873    1.5983    0.9527 H.spc      1 <1>        0.000
     23 H           2.8528   -0.7647    1.4801 H.spc      1 <1>        0.000
     24 H           1.5610    0.1115    0.4166 H.spc      1 <1>        0.000
     25 H           3.2878    3.3990   -0.1157 H.spc      1 <1>        0.000
     26 H           3.5197    2.5182   -1.8102 H.spc      1 <1>        0.000
     27 H           1.8590   -2.0334   -0.9326 H.spc      1 <1>        0.000
     28 H           2.3069   -2.6866    0.7311 H.spc      1 <1>        0.000
     29 H           1.4115    1.6594   -1.5573 H.spc      1 <1>        0.000
     30 H           1.4138    3.5121   -1.4921 H.spc      1 <1>        0.000
     31 H          -0.1304   -1.0953    0.3767 H.spc      1 <1>        0.000
     32 H           0.2727   -2.5446    1.4748 H.spc      1 <1>        0.000
     33 H          -1.0065    1.4702    1.0801 H.spc      1 <1>        0.000
     34 H          -0.8011    2.3509   -1.8065 H.spc      1 <1>        0.000
     35 H          -2.0667   -3.1601   -2.2969 H.spc      1 <1>        0.000
     36 H          -3.4904   -2.3520   -1.4300 H.spc      1 <1>        0.000
     37 H          -3.4255    1.9605   -1.0905 H.spc      1 <1>        0.000
     38 H          -0.9996   -0.8348   -1.7840 H.spc      1 <1>        0.000
     39 H          -2.0589   -1.1377   -3.2533 H.spc      1 <1>        0.000
     40 H          -3.9386   -0.0824   -1.9118 H.spc      1 <1>        0.000
@<TRIPOS>BOND
     1    1    2 1  
     2    5    8 1  
     3    4    7 1  
     4    7    9 1  
     5    3    5 1  
     6    1    3 1  
     7    2    4 1  
     8   17   18 1  
     9   16   18 2  
    10   15   17 1  
    11    6   15 1  
    12   14   16 1  
    13   11   14 2  
    14   10    6 1  
    15    9   12 2  
    16    9   11 1  
    17   10   13 2  
    18    8   10 1  
    19    1   19 1  
    20    1   20 1  
    21    2   21 1  
    22    2   22 1  
    23    3   23 1  
    24    3   24 1  
    25    4   25 1  
    26    4   26 1  
    27    5   27 1  
    28    5   28 1  
    29    7   29 1  
    30    7   30 1  
    31    8   31 1  
    32    8   32 1  
    33   11   33 1  
    34   14   34 1  
    35   15   35 1  
    36   15   36 1  
    37   16   37 1  
    38   17   38 1  
    39   17   39 1  
    40   18   40 1  
# Name:          frag5-616-93/138278 -- energy: -6.235503
# Creation time: Sat Jun  5 12:53:48 2010


@<TRIPOS>MOLECULE
frag5-616-93/138278 -- energy: -6.235503
   40    40     1     1     1
SMALL
USER_CHARGES


@<TRIPOS>ATOM
      1 C1          3.6203    0.0090    0.6532 C.3        1 <1>        0.000
      2 C2          3.4435    1.0667   -0.3930 C.3        1 <1>        0.000
      3 C3          2.5489   -0.9959    0.9900 C.3        1 <1>        0.000
      4 C4          2.1826    1.1161   -1.2080 C.3        1 <1>        0.000
      5 C7          2.3686   -2.1746    0.0432 C.3        1 <1>        0.000
      6 O7         -0.5943   -1.7058   -0.8295 O.3        1 <1>        0.000
      7 C9          1.4371    2.4234   -1.2283 C.3        1 <1>        0.000
      8 C12         1.1866   -3.0797    0.2596 C.3        1 <1>        0.000
      9 C13         0.6335    2.6743    0.0320 C.2        1 <1>        0.000
     10 C17        -0.0684   -2.9270   -0.5726 C.2        1 <1>        0.000
     11 C18        -0.6962    2.0397    0.1602 C.2        1 <1>        0.000
     12 O6          1.0874    3.3301    0.9647 O.2        1 <1>        0.000
     13 O8         -0.6040   -3.9694   -0.9770 O.2        1 <1>        0.000
     14 C22        -1.6356    2.1118   -0.7932 C.2        1 <1>        0.000
     15 C27        -1.8791   -1.7352   -1.4427 C.3        1 <1>        0.000
     16 C28        -2.9504    1.5546   -0.8833 C.2        1 <1>        0.000
     17 C31        -2.3833   -0.5316   -2.2433 C.3        1 <1>        0.000
     18 C33        -3.2762    0.4027   -1.4950 C.2        1 <1>        0.000
     19 H           3.7211    0.5837    1.5739 H.spc      1 <1>        0.000
     20 H           4.4230   -0.6084    0.2501 H.spc      1 <1>        0.000
     21 H           4.2296    0.8638   -1.1203 H.spc      1 <1>        0.000
     22 H           3.4437    2.0033    0.1645 H.spc      1 <1>        0.000
     23 H           2.8432   -1.4295    1.9458 H.spc      1 <1>        0.000
     24 H           1.6088   -0.4453    0.9556 H.spc      1 <1>        0.000
     25 H           2.4851    0.9286   -2.2382 H.spc      1 <1>        0.000
     26 H           1.5051    0.3927   -0.7544 H.spc      1 <1>        0.000
     27 H           2.2186   -1.7336   -0.9423 H.spc      1 <1>        0.000
     28 H           3.2459   -2.8036    0.1941 H.spc      1 <1>        0.000
     29 H           0.7381    2.3913   -2.0640 H.spc      1 <1>        0.000
     30 H           2.1742    3.2219   -1.3137 H.spc      1 <1>        0.000
     31 H           0.8614   -2.8545    1.2753 H.spc      1 <1>        0.000
     32 H           1.5591   -4.0706   -0.0000 H.spc      1 <1>        0.000
     33 H          -0.9228    1.4877    1.0724 H.spc      1 <1>        0.000
     34 H          -1.3440    2.7045   -1.6602 H.spc      1 <1>        0.000
     35 H          -1.8082   -2.5369   -2.1778 H.spc      1 <1>        0.000
     36 H          -2.5745   -1.8130   -0.6070 H.spc      1 <1>        0.000
     37 H          -3.7599    2.1139   -0.4142 H.spc      1 <1>        0.000
     38 H          -1.5029    0.0422   -2.5326 H.spc      1 <1>        0.000
     39 H          -2.9710   -0.9304   -3.0702 H.spc      1 <1>        0.000
     40 H          -4.3257    0.1139   -1.4375 H.spc      1 <1>        0.000
@<TRIPOS>BOND
     1    1    2 1  
     2    5    8 1  
     3    4    7 1  
     4    7    9 1  
     5    3    5 1  
     6    1    3 1  
     7    2    4 1  
     8   17   18 1  
     9   16   18 2  
    10   15   17 1  
    11    6   15 1  
    12   14   16 1  
    13   11   14 2  
    14   10    6 1  
    15    9   12 2  
    16    9   11 1  
    17   10   13 2  
    18    8   10 1  
    19    1   19 1  
    20    1   20 1  
    21    2   21 1  
    22    2   22 1  
    23    3   23 1  
    24    3   24 1  
    25    4   25 1  
    26    4   26 1  
    27    5   27 1  
    28    5   28 1  
    29    7   29 1  
    30    7   30 1  
    31    8   31 1  
    32    8   32 1  
    33   11   33 1  
    34   14   34 1  
    35   15   35 1  
    36   15   36 1  
    37   16   37 1  
    38   17   38 1  
    39   17   39 1  
    40   18   40 1  
# Name:          frag5-616-93/138278 -- energy: -6.763959
# Creation time: Sat Jun  5 12:53:48 2010


@<TRIPOS>MOLECULE
frag5-616-93/138278 -- energy: -6.763959
   40    40     1     1     1
SMALL
USER_CHARGES


@<TRIPOS>ATOM
      1 C1          3.4480   -0.3644    0.2735 C.3        1 <1>        0.000
      2 C2          3.2312    0.7594   -0.7315 C.3        1 <1>        0.000
      3 C3          2.3441   -1.3670    0.5660 C.3        1 <1>        0.000
      4 C4          1.8494    1.4007   -0.7697 C.3        1 <1>        0.000
      5 C7          2.1504   -2.5772   -0.3216 C.3        1 <1>        0.000
      6 O7         -0.6733   -3.0756   -1.5531 O.3        1 <1>        0.000
      7 C9          1.6453    2.9073   -0.8827 C.3        1 <1>        0.000
      8 C12         1.0529   -3.5436    0.0780 C.3        1 <1>        0.000
      9 C13         0.5754    3.4194    0.0769 C.2        1 <1>        0.000
     10 C17        -0.3153   -3.0578   -0.2599 C.2        1 <1>        0.000
     11 C18        -0.7183    2.6947    0.2053 C.2        1 <1>        0.000
     12 O6          0.7867    4.4055    0.7871 O.2        1 <1>        0.000
     13 O8         -1.0308   -2.6145    0.6387 O.2        1 <1>        0.000
     14 C22        -1.3569    2.1603   -0.8438 C.2        1 <1>        0.000
     15 C27        -1.7955   -2.2896   -1.8627 C.3        1 <1>        0.000
     16 C28        -2.5644    1.4017   -1.0273 C.2        1 <1>        0.000
     17 C31        -1.5466   -0.7802   -1.8699 C.3        1 <1>        0.000
     18 C33        -2.6616    0.1301   -1.4665 C.2        1 <1>        0.000
     19 H           3.5984    0.1512    1.2220 H.spc      1 <1>        0.000
     20 H           4.2445   -0.9651   -0.1656 H.spc      1 <1>        0.000
     21 H           3.3769    0.3106   -1.7141 H.spc      1 <1>        0.000
     22 H           3.9187    1.5537   -0.4408 H.spc      1 <1>        0.000
     23 H           2.6122   -1.7858    1.5360 H.spc      1 <1>        0.000
     24 H           1.4238   -0.7956    0.4452 H.spc      1 <1>        0.000
     25 H           1.4209    1.0190   -1.6964 H.spc      1 <1>        0.000
     26 H           1.4355    1.1640    0.2105 H.spc      1 <1>        0.000
     27 H           1.8687   -2.1902   -1.3008 H.spc      1 <1>        0.000
     28 H           3.0817   -3.1411   -0.2690 H.spc      1 <1>        0.000
     29 H           1.3223    3.1298   -1.8997 H.spc      1 <1>        0.000
     30 H           2.5867    3.3961   -0.6321 H.spc      1 <1>        0.000
     31 H           1.1004   -3.6656    1.1601 H.spc      1 <1>        0.000
     32 H           1.2167   -4.4716   -0.4697 H.spc      1 <1>        0.000
     33 H          -1.1648    2.5947    1.1946 H.spc      1 <1>        0.000
     34 H          -0.8365    2.3447   -1.7836 H.spc      1 <1>        0.000
     35 H          -2.1016   -2.5626   -2.8726 H.spc      1 <1>        0.000
     36 H          -2.5376   -2.4822   -1.0879 H.spc      1 <1>        0.000
     37 H          -3.4995    1.9073   -0.7862 H.spc      1 <1>        0.000
     38 H          -0.7643   -0.6174   -1.1286 H.spc      1 <1>        0.000
     39 H          -1.3386   -0.5312   -2.9105 H.spc      1 <1>        0.000
     40 H          -3.6688   -0.2809   -1.5352 H.spc      1 <1>        0.000
@<TRIPOS>BOND
     1    1    2 1  
     2    5    8 1  
     3    4    7 1  
     4    7    9 1  
     5    3    5 1  
     6    1    3 1  
     7    2    4 1  
     8   17   18 1  
     9   16   18 2  
    10   15   17 1  
    11    6   15 1  
    12   14   16 1  
    13   11   14 2  
    14   10    6 1  
    15    9   12 2  
    16    9   11 1  
    17   10   13 2  
    18    8   10 1  
    19    1   19 1  
    20    1   20 1  
    21    2   21 1  
    22    2   22 1  
    23    3   23 1  
    24    3   24 1  
    25    4   25 1  
    26    4   26 1  
    27    5   27 1  
    28    5   28 1  
    29    7   29 1  
    30    7   30 1  
    31    8   31 1  
    32    8   32 1  
    33   11   33 1  
    34   14   34 1  
    35   15   35 1  
    36   15   36 1  
    37   16   37 1  
    38   17   38 1  
    39   17   39 1  
    40   18   40 1  
# Name:          frag5-616-93/138278 -- energy: -6.273026
# Creation time: Sat Jun  5 12:53:48 2010


@<TRIPOS>MOLECULE
frag5-616-93/138278 -- energy: -6.273026
   40    40     1     1     1
SMALL
USER_CHARGES


@<TRIPOS>ATOM
      1 C1          3.3647   -0.5859    0.5106 C.3        1 <1>        0.000
      2 C2          3.4150    0.8691    0.0773 C.3        1 <1>        0.000
      3 C3          2.0661   -1.3155    0.2538 C.3        1 <1>        0.000
      4 C4          2.2161    1.7517    0.3392 C.3        1 <1>        0.000
      5 C7          2.0018   -2.8096    0.1194 C.3        1 <1>        0.000
      6 O7         -1.4928   -2.7819   -1.2843 O.3        1 <1>        0.000
      7 C9          1.8434    2.7454   -0.7261 C.3        1 <1>        0.000
      8 C12         0.6447   -3.4221   -0.1126 C.3        1 <1>        0.000
      9 C13         0.5682    3.5180   -0.4583 C.2        1 <1>        0.000
     10 C17        -0.1607   -2.9605   -1.3006 C.2        1 <1>        0.000
     11 C18        -0.7689    2.8985   -0.5768 C.2        1 <1>        0.000
     12 O6          0.6230    4.6952   -0.0969 O.2        1 <1>        0.000
     13 O8          0.4540   -2.7723   -2.3558 O.2        1 <1>        0.000
     14 C22        -1.0935    1.8049   -1.2723 C.2        1 <1>        0.000
     15 C27        -2.1462   -2.3269   -0.1197 C.3        1 <1>        0.000
     16 C28        -2.3484    1.1353   -1.3912 C.2        1 <1>        0.000
     17 C31        -2.0205   -0.8496    0.2022 C.3        1 <1>        0.000
     18 C33        -2.7450    0.0154   -0.7707 C.2        1 <1>        0.000
     19 H           3.5048   -0.5861    1.5916 H.spc      1 <1>        0.000
     20 H           4.1250   -1.1036   -0.0742 H.spc      1 <1>        0.000
     21 H           3.5087    0.8364   -1.0082 H.spc      1 <1>        0.000
     22 H           4.2220    1.3094    0.6630 H.spc      1 <1>        0.000
     23 H           1.4794   -1.1147    1.1502 H.spc      1 <1>        0.000
     24 H           1.7630   -0.9578   -0.7302 H.spc      1 <1>        0.000
     25 H           1.3651    1.0756    0.4219 H.spc      1 <1>        0.000
     26 H           2.4727    2.3440    1.2175 H.spc      1 <1>        0.000
     27 H           2.5915   -3.0530   -0.7644 H.spc      1 <1>        0.000
     28 H           2.3471   -3.2078    1.0735 H.spc      1 <1>        0.000
     29 H           1.6830    2.1795   -1.6438 H.spc      1 <1>        0.000
     30 H           2.6512    3.4757   -0.7733 H.spc      1 <1>        0.000
     31 H           0.0531   -3.1412    0.7587 H.spc      1 <1>        0.000
     32 H           0.8370   -4.4798   -0.2928 H.spc      1 <1>        0.000
     33 H          -1.5795    3.3881   -0.0371 H.spc      1 <1>        0.000
     34 H          -0.2751    1.3555   -1.8347 H.spc      1 <1>        0.000
     35 H          -3.2086   -2.5085   -0.2823 H.spc      1 <1>        0.000
     36 H          -1.6789   -2.8551    0.7114 H.spc      1 <1>        0.000
     37 H          -3.0716    1.5896   -2.0685 H.spc      1 <1>        0.000
     38 H          -2.4572   -0.6836    1.1870 H.spc      1 <1>        0.000
     39 H          -0.9634   -0.5871    0.1605 H.spc      1 <1>        0.000
     40 H          -3.7547   -0.3137   -1.0161 H.spc      1 <1>        0.000
@<TRIPOS>BOND
     1    1    2 1  
     2    5    8 1  
     3    4    7 1  
     4    7    9 1  
     5    3    5 1  
     6    1    3 1  
     7    2    4 1  
     8   17   18 1  
     9   16   18 2  
    10   15   17 1  
    11    6   15 1  
    12   14   16 1  
    13   11   14 2  
    14   10    6 1  
    15    9   12 2  
    16    9   11 1  
    17   10   13 2  
    18    8   10 1  
    19    1   19 1  
    20    1   20 1  
    21    2   21 1  
    22    2   22 1  
    23    3   23 1  
    24    3   24 1  
    25    4   25 1  
    26    4   26 1  
    27    5   27 1  
    28    5   28 1  
    29    7   29 1  
    30    7   30 1  
    31    8   31 1  
    32    8   32 1  
    33   11   33 1  
    34   14   34 1  
    35   15   35 1  
    36   15   36 1  
    37   16   37 1  
    38   17   38 1  
    39   17   39 1  
    40   18   40 1  
# Name:          frag5-616-93/138278 -- energy: -8.001606
# Creation time: Sat Jun  5 12:53:48 2010


@<TRIPOS>MOLECULE
frag5-616-93/138278 -- energy: -8.001606
   40    40     1     1     1
SMALL
USER_CHARGES


@<TRIPOS>ATOM
      1 C1          2.2578   -0.4490    0.3506 C.3        1 <1>        0.000
      2 C2          2.9803    0.7866   -0.1317 C.3        1 <1>        0.000
      3 C3          2.6913   -1.7827   -0.2213 C.3        1 <1>        0.000
      4 C4          2.7607    2.1373    0.5153 C.3        1 <1>        0.000
      5 C7          2.1782   -2.2429   -1.5684 C.3        1 <1>        0.000
      6 O7         -1.5357   -2.9521   -1.0489 O.3        1 <1>        0.000
      7 C9          1.4071    2.6411    0.9455 C.3        1 <1>        0.000
      8 C12         0.7092   -2.4577   -1.8488 C.3        1 <1>        0.000
      9 C13         0.5397    3.3810   -0.0588 C.2        1 <1>        0.000
     10 C17        -0.2287   -2.8529   -0.7444 C.2        1 <1>        0.000
     11 C18        -0.6765    2.7438   -0.6090 C.2        1 <1>        0.000
     12 O6          0.7779    4.5498   -0.3729 O.2        1 <1>        0.000
     13 O8          0.1759   -3.0134    0.4051 O.2        1 <1>        0.000
     14 C22        -0.6878    1.5895   -1.2898 C.2        1 <1>        0.000
     15 C27        -2.3872   -2.3492   -0.1028 C.3        1 <1>        0.000
     16 C28        -1.7735    0.8632   -1.8597 C.2        1 <1>        0.000
     17 C31        -2.3045   -0.8341   -0.0033 C.3        1 <1>        0.000
     18 C33        -2.4631   -0.1491   -1.3199 C.2        1 <1>        0.000
     19 H           1.2205   -0.3211    0.0412 H.spc      1 <1>        0.000
     20 H           2.4617   -0.5088    1.4197 H.spc      1 <1>        0.000
     21 H           2.6111    0.9228   -1.1482 H.spc      1 <1>        0.000
     22 H           4.0291    0.5694    0.0708 H.spc      1 <1>        0.000
     23 H           3.7665   -1.6766   -0.3652 H.spc      1 <1>        0.000
     24 H           2.2977   -2.5171    0.4814 H.spc      1 <1>        0.000
     25 H           3.2997    2.0476    1.4584 H.spc      1 <1>        0.000
     26 H           3.0426    2.8352   -0.2731 H.spc      1 <1>        0.000
     27 H           2.4438   -1.4209   -2.2331 H.spc      1 <1>        0.000
     28 H           2.6028   -3.2415   -1.6718 H.spc      1 <1>        0.000
     29 H           1.6161    3.3721    1.7266 H.spc      1 <1>        0.000
     30 H           0.8414    1.7437    1.1960 H.spc      1 <1>        0.000
     31 H           0.6882   -3.3049   -2.5343 H.spc      1 <1>        0.000
     32 H           0.3511   -1.4787   -2.1671 H.spc      1 <1>        0.000
     33 H          -1.6296    3.2480   -0.4497 H.spc      1 <1>        0.000
     34 H           0.2916    1.1323   -1.4304 H.spc      1 <1>        0.000
     35 H          -3.4054   -2.5807   -0.4154 H.spc      1 <1>        0.000
     36 H          -2.0872   -2.7371    0.8707 H.spc      1 <1>        0.000
     37 H          -2.0805    1.1702   -2.8595 H.spc      1 <1>        0.000
     38 H          -3.1167   -0.5006    0.6426 H.spc      1 <1>        0.000
     39 H          -1.3172   -0.5818    0.3836 H.spc      1 <1>        0.000
     40 H          -3.2705   -0.5354   -1.9420 H.spc      1 <1>        0.000
@<TRIPOS>BOND
     1    1    2 1  
     2    5    8 1  
     3    4    7 1  
     4    7    9 1  
     5    3    5 1  
     6    1    3 1  
     7    2    4 1  
     8   17   18 1  
     9   16   18 2  
    10   15   17 1  
    11    6   15 1  
    12   14   16 1  
    13   11   14 2  
    14   10    6 1  
    15    9   12 2  
    16    9   11 1  
    17   10   13 2  
    18    8   10 1  
    19    1   19 1  
    20    1   20 1  
    21    2   21 1  
    22    2   22 1  
    23    3   23 1  
    24    3   24 1  
    25    4   25 1  
    26    4   26 1  
    27    5   27 1  
    28    5   28 1  
    29    7   29 1  
    30    7   30 1  
    31    8   31 1  
    32    8   32 1  
    33   11   33 1  
    34   14   34 1  
    35   15   35 1  
    36   15   36 1  
    37   16   37 1  
    38   17   38 1  
    39   17   39 1  
    40   18   40 1  
# Name:          frag5-616-93/138278 -- energy: -7.178434
# Creation time: Sat Jun  5 12:53:48 2010


@<TRIPOS>MOLECULE
frag5-616-93/138278 -- energy: -7.178434
   40    40     1     1     1
SMALL
USER_CHARGES


@<TRIPOS>ATOM
      1 C1          3.3171   -0.0158    0.9132 C.3        1 <1>        0.000
      2 C2          3.3306    0.6588   -0.4408 C.3        1 <1>        0.000
      3 C3          2.4222   -1.2217    1.1338 C.3        1 <1>        0.000
      4 C4          2.0072    1.0019   -1.0891 C.3        1 <1>        0.000
      5 C7          2.4444   -2.3570    0.1252 C.3        1 <1>        0.000
      6 O7         -1.0555   -2.4874   -0.0520 O.3        1 <1>        0.000
      7 C9          1.5895    2.4468   -1.1994 C.3        1 <1>        0.000
      8 C12         1.2607   -3.2637   -0.1299 C.3        1 <1>        0.000
      9 C13         0.6636    2.9329   -0.1094 C.2        1 <1>        0.000
     10 C17         0.0200   -2.7484   -0.8206 C.2        1 <1>        0.000
     11 C18        -0.7440    2.4824   -0.0262 C.2        1 <1>        0.000
     12 O6          1.0775    3.7054    0.7623 O.2        1 <1>        0.000
     13 O8          0.0178   -2.6123   -2.0381 O.2        1 <1>        0.000
     14 C22        -1.4666    2.0682   -1.0708 C.2        1 <1>        0.000
     15 C27        -2.2705   -1.9728   -0.5958 C.3        1 <1>        0.000
     16 C28        -2.7969    1.5681   -1.2085 C.2        1 <1>        0.000
     17 C31        -2.2485   -0.8753   -1.6599 C.3        1 <1>        0.000
     18 C33        -3.1476    0.2990   -1.4568 C.2        1 <1>        0.000
     19 H           2.9363    0.7421    1.5978 H.spc      1 <1>        0.000
     20 H           4.3308   -0.3938    1.0458 H.spc      1 <1>        0.000
     21 H           3.7995   -0.0600   -1.1128 H.spc      1 <1>        0.000
     22 H           3.8248    1.6165   -0.2773 H.spc      1 <1>        0.000
     23 H           2.7788   -1.6671    2.0626 H.spc      1 <1>        0.000
     24 H           1.4070   -0.8275    1.0873 H.spc      1 <1>        0.000
     25 H           2.1070    0.6624   -2.1201 H.spc      1 <1>        0.000
     26 H           1.2560    0.5442   -0.4454 H.spc      1 <1>        0.000
     27 H           2.5668   -1.8388   -0.8259 H.spc      1 <1>        0.000
     28 H           3.1908   -3.0367    0.5362 H.spc      1 <1>        0.000
     29 H           1.0458    2.5448   -2.1390 H.spc      1 <1>        0.000
     30 H           2.4995    3.0424   -1.1261 H.spc      1 <1>        0.000
     31 H           0.9148   -3.5335    0.8679 H.spc      1 <1>        0.000
     32 H           1.6490   -4.0190   -0.8131 H.spc      1 <1>        0.000
     33 H          -1.2230    2.4891    0.9529 H.spc      1 <1>        0.000
     34 H          -0.9274    2.1237   -2.0165 H.spc      1 <1>        0.000
     35 H          -2.7174   -2.8272   -1.1040 H.spc      1 <1>        0.000
     36 H          -2.7672   -1.5078    0.2558 H.spc      1 <1>        0.000
     37 H          -3.6067    2.2897   -1.1011 H.spc      1 <1>        0.000
     38 H          -1.2349   -0.4746   -1.6475 H.spc      1 <1>        0.000
     39 H          -2.5899   -1.3509   -2.5793 H.spc      1 <1>        0.000
     40 H          -4.2176    0.1002   -1.5178 H.spc      1 <1>        0.000
@<TRIPOS>BOND
     1    1    2 1  
     2    5    8 1  
     3    4    7 1  
     4    7    9 1  
     5    3    5 1  
     6    1    3 1  
     7    2    4 1  
     8   17   18 1  
     9   16   18 2  
    10   15   17 1  
    11    6   15 1  
    12   14   16 1  
    13   11   14 2  
    14   10    6 1  
    15    9   12 2  
    16    9   11 1  
    17   10   13 2  
    18    8   10 1  
    19    1   19 1  
    20    1   20 1  
    21    2   21 1  
    22    2   22 1  
    23    3   23 1  
    24    3   24 1  
    25    4   25 1  
    26    4   26 1  
    27    5   27 1  
    28    5   28 1  
    29    7   29 1  
    30    7   30 1  
    31    8   31 1  
    32    8   32 1  
    33   11   33 1  
    34   14   34 1  
    35   15   35 1  
    36   15   36 1  
    37   16   37 1  
    38   17   38 1  
    39   17   39 1  
    40   18   40 1  
# Name:          frag5-616-93/138278 -- energy: -8.071715
# Creation time: Sat Jun  5 12:53:48 2010


@<TRIPOS>MOLECULE
frag5-616-93/138278 -- energy: -8.071715
   40    40     1     1     1
SMALL
USER_CHARGES


@<TRIPOS>ATOM
      1 C1          3.6319   -0.1711   -0.4319 C.3        1 <1>        0.000
      2 C2          2.9552    0.2496    0.8521 C.3        1 <1>        0.000
      3 C3          3.1837   -1.3813   -1.2192 C.3        1 <1>        0.000
      4 C4          1.6930    1.0898    0.8202 C.3        1 <1>        0.000
      5 C7          1.7453   -1.8169   -1.1840 C.3        1 <1>        0.000
      6 O7         -0.8826   -1.8840    0.4142 O.3        1 <1>        0.000
      7 C9          1.6456    2.3626    0.0030 C.3        1 <1>        0.000
      8 C12         1.2900   -2.8273   -0.1571 C.3        1 <1>        0.000
      9 C13         0.3721    3.1783    0.1447 C.2        1 <1>        0.000
     10 C17        -0.2017   -2.9296   -0.0912 C.2        1 <1>        0.000
     11 C18        -0.9083    2.7318   -0.4446 C.2        1 <1>        0.000
     12 O6          0.3676    4.2184    0.7985 O.2        1 <1>        0.000
     13 O8         -0.7558   -3.9192   -0.5714 O.2        1 <1>        0.000
     14 C22        -1.0437    1.9092   -1.4891 C.2        1 <1>        0.000
     15 C27        -2.0586   -1.5517   -0.2899 C.3        1 <1>        0.000
     16 C28        -2.1974    1.3748   -2.1357 C.2        1 <1>        0.000
     17 C31        -1.8532   -1.1164   -1.7414 C.3        1 <1>        0.000
     18 C33        -2.5622    0.0922   -2.2402 C.2        1 <1>        0.000
     19 H           4.6409   -0.4335   -0.1139 H.spc      1 <1>        0.000
     20 H           3.4341    0.6604   -1.1084 H.spc      1 <1>        0.000
     21 H           3.6890    0.8876    1.3447 H.spc      1 <1>        0.000
     22 H           2.6405   -0.6888    1.3086 H.spc      1 <1>        0.000
     23 H           3.3580   -1.1070   -2.2596 H.spc      1 <1>        0.000
     24 H           3.7291   -2.2123   -0.7720 H.spc      1 <1>        0.000
     25 H           0.9486    0.4425    0.3564 H.spc      1 <1>        0.000
     26 H           1.5643    1.4242    1.8496 H.spc      1 <1>        0.000
     27 H           1.1909   -0.9106   -0.9406 H.spc      1 <1>        0.000
     28 H           1.5853   -2.3101   -2.1428 H.spc      1 <1>        0.000
     29 H           1.7101    2.0641   -1.0434 H.spc      1 <1>        0.000
     30 H           2.4608    2.9925    0.3591 H.spc      1 <1>        0.000
     31 H           1.6524   -2.5065    0.8196 H.spc      1 <1>        0.000
     32 H           1.6856   -3.8025   -0.4409 H.spc      1 <1>        0.000
     33 H          -1.8233    3.1070    0.0137 H.spc      1 <1>        0.000
     34 H          -0.0990    1.5875   -1.9274 H.spc      1 <1>        0.000
     35 H          -2.6694   -2.4540   -0.3190 H.spc      1 <1>        0.000
     36 H          -2.5031   -0.7028    0.2297 H.spc      1 <1>        0.000
     37 H          -2.8635    2.1008   -2.6019 H.spc      1 <1>        0.000
     38 H          -0.7939   -0.8695   -1.8128 H.spc      1 <1>        0.000
     39 H          -2.2465   -1.9388   -2.3390 H.spc      1 <1>        0.000
     40 H          -3.5029   -0.0915   -2.7592 H.spc      1 <1>        0.000
@<TRIPOS>BOND
     1    1    2 1  
     2    5    8 1  
     3    4    7 1  
     4    7    9 1  
     5    3    5 1  
     6    1    3 1  
     7    2    4 1  
     8   17   18 1  
     9   16   18 2  
    10   15   17 1  
    11    6   15 1  
    12   14   16 1  
    13   11   14 2  
    14   10    6 1  
    15    9   12 2  
    16    9   11 1  
    17   10   13 2  
    18    8   10 1  
    19    1   19 1  
    20    1   20 1  
    21    2   21 1  
    22    2   22 1  
    23    3   23 1  
    24    3   24 1  
    25    4   25 1  
    26    4   26 1  
    27    5   27 1  
    28    5   28 1  
    29    7   29 1  
    30    7   30 1  
    31    8   31 1  
    32    8   32 1  
    33   11   33 1  
    34   14   34 1  
    35   15   35 1  
    36   15   36 1  
    37   16   37 1  
    38   17   38 1  
    39   17   39 1  
    40   18   40 1  
# Name:          frag5-616-93/138278 -- energy: -8.291174
# Creation time: Sat Jun  5 12:53:48 2010


@<TRIPOS>MOLECULE
frag5-616-93/138278 -- energy: -8.291174
   40    40     1     1     1
SMALL
USER_CHARGES


@<TRIPOS>ATOM
      1 C1          3.4108   -0.5976    0.6139 C.3        1 <1>        0.000
      2 C2          3.1876    0.7304   -0.0764 C.3        1 <1>        0.000
      3 C3          2.4045   -1.7072    0.4228 C.3        1 <1>        0.000
      4 C4          1.8864    1.4608    0.1609 C.3        1 <1>        0.000
      5 C7          2.1566   -2.1575   -1.0070 C.3        1 <1>        0.000
      6 O7         -0.7877   -2.5297   -0.1775 O.3        1 <1>        0.000
      7 C9          1.6405    2.7805   -0.5251 C.3        1 <1>        0.000
      8 C12         1.3010   -3.3683   -1.3065 C.3        1 <1>        0.000
      9 C13         0.4062    3.5095   -0.0254 C.2        1 <1>        0.000
     10 C17        -0.0631   -3.5357   -0.6811 C.2        1 <1>        0.000
     11 C18        -0.9491    2.9699   -0.2757 C.2        1 <1>        0.000
     12 O6          0.5160    4.5294    0.6478 O.2        1 <1>        0.000
     13 O8         -0.5215   -4.6882   -0.6569 O.2        1 <1>        0.000
     14 C22        -1.2785    2.2518   -1.3639 C.2        1 <1>        0.000
     15 C27        -1.1357   -1.4265   -0.9990 C.3        1 <1>        0.000
     16 C28        -2.4787    1.6077   -1.7821 C.2        1 <1>        0.000
     17 C31        -2.3452   -0.6255   -0.5086 C.3        1 <1>        0.000
     18 C33        -2.9292    0.4053   -1.4234 C.2        1 <1>        0.000
     19 H           3.3733   -0.3678    1.6787 H.spc      1 <1>        0.000
     20 H           4.3354   -0.9830    0.1842 H.spc      1 <1>        0.000
     21 H           3.1937    0.5007   -1.1419 H.spc      1 <1>        0.000
     22 H           3.9594    1.3897    0.3207 H.spc      1 <1>        0.000
     23 H           2.8072   -2.5739    0.9470 H.spc      1 <1>        0.000
     24 H           1.4533   -1.3184    0.7864 H.spc      1 <1>        0.000
     25 H           1.1193    0.7956   -0.2356 H.spc      1 <1>        0.000
     26 H           1.8926    1.6987    1.2246 H.spc      1 <1>        0.000
     27 H           1.6065   -1.3289   -1.4530 H.spc      1 <1>        0.000
     28 H           3.1454   -2.4366   -1.3709 H.spc      1 <1>        0.000
     29 H           1.4892    2.5732   -1.5845 H.spc      1 <1>        0.000
     30 H           2.5002    3.4186   -0.3205 H.spc      1 <1>        0.000
     31 H           1.8774   -4.2027   -0.9071 H.spc      1 <1>        0.000
     32 H           1.0927   -3.2856   -2.3732 H.spc      1 <1>        0.000
     33 H          -1.7248    3.1658    0.4646 H.spc      1 <1>        0.000
     34 H          -0.4578    2.1392   -2.0724 H.spc      1 <1>        0.000
     35 H          -0.2828   -0.7478   -0.9995 H.spc      1 <1>        0.000
     36 H          -1.3950   -1.8278   -1.9787 H.spc      1 <1>        0.000
     37 H          -3.1039    2.1653   -2.4794 H.spc      1 <1>        0.000
     38 H          -3.1364   -1.3607   -0.3617 H.spc      1 <1>        0.000
     39 H          -1.9896   -0.0708    0.3597 H.spc      1 <1>        0.000
     40 H          -3.8828    0.1260   -1.8715 H.spc      1 <1>        0.000
@<TRIPOS>BOND
     1    1    2 1  
     2    5    8 1  
     3    4    7 1  
     4    7    9 1  
     5    3    5 1  
     6    1    3 1  
     7    2    4 1  
     8   17   18 1  
     9   16   18 2  
    10   15   17 1  
    11    6   15 1  
    12   14   16 1  
    13   11   14 2  
    14   10    6 1  
    15    9   12 2  
    16    9   11 1  
    17   10   13 2  
    18    8   10 1  
    19    1   19 1  
    20    1   20 1  
    21    2   21 1  
    22    2   22 1  
    23    3   23 1  
    24    3   24 1  
    25    4   25 1  
    26    4   26 1  
    27    5   27 1  
    28    5   28 1  
    29    7   29 1  
    30    7   30 1  
    31    8   31 1  
    32    8   32 1  
    33   11   33 1  
    34   14   34 1  
    35   15   35 1  
    36   15   36 1  
    37   16   37 1  
    38   17   38 1  
    39   17   39 1  
    40   18   40 1  
