#      Rotatable Fragment
#      Build by yxyuan
#
# Name:          frag3-187-10/96164
# Creation time: Sat Jun  5 12:53:09 2010


@<TRIPOS>MOLECULE
frag3-187-10/96164
    9     8     1     1     1
SMALL
USER_CHARGES


@<TRIPOS>ATOM
      1 N1          1.5697   -0.1043    0.2118 N.am       1 <1>        0.000
      2 C1          0.4219   -0.0659   -0.5281 C.2        1 <1>        0.000
      3 C4         -0.7719    0.6614    0.1221 C.2        1 <1>        0.000
      4 O1          0.1986   -0.5186   -1.6310 O.2        1 <1>        0.000
      5 O2         -1.8960   -0.0311    0.0875 O.3        1 <1>        0.000
      6 O3         -0.5628    1.7760    0.5511 O.2        1 <1>        0.000
      7 H           2.4000   -0.5667   -0.1586 H.spc      1 <1>        0.000
      8 H           1.5964    0.3294    1.1346 H.spc      1 <1>        0.000
      9 H          -1.7316   -0.8859   -0.3173 H.spc      1 <1>        0.000
@<TRIPOS>BOND
     1    1    2 am 
     2    2    3 1  
     3    2    4 2  
     4    3    5 1  
     5    3    6 2  
     6    1    7 1  
     7    1    8 1  
     8    5    9 1  
# Name:          frag3-187-10/96164
# Creation time: Sat Jun  5 12:53:09 2010


@<TRIPOS>MOLECULE
frag3-187-10/96164
    9     8     1     1     1
SMALL
USER_CHARGES


@<TRIPOS>ATOM
      1 N1          1.6799    0.3870   -0.2100 N.am       1 <1>        0.000
      2 C1          0.4227   -0.0784   -0.5235 C.2        1 <1>        0.000
      3 C4         -0.7788    0.7045    0.1093 C.2        1 <1>        0.000
      4 O1          0.1104   -1.0430   -1.1902 O.2        1 <1>        0.000
      5 O2         -1.9478    0.3682   -0.4659 O.3        1 <1>        0.000
      6 O3         -0.5269    1.3791    1.0937 O.2        1 <1>        0.000
      7 H           2.5056   -0.1022   -0.5554 H.spc      1 <1>        0.000
      8 H           1.7856    1.2210    0.3676 H.spc      1 <1>        0.000
      9 H          -1.7784   -0.1800   -1.2356 H.spc      1 <1>        0.000
@<TRIPOS>BOND
     1    1    2 am 
     2    2    3 1  
     3    2    4 2  
     4    3    5 1  
     5    3    6 2  
     6    1    7 1  
     7    1    8 1  
     8    5    9 1  
# Name:          frag3-187-10/96164
# Creation time: Sat Jun  5 12:53:09 2010


@<TRIPOS>MOLECULE
frag3-187-10/96164
    9     8     1     1     1
SMALL
USER_CHARGES


@<TRIPOS>ATOM
      1 N1          1.1552   -0.8095    0.3260 N.am       1 <1>        0.000
      2 C1          0.4372   -0.0245   -0.5452 C.2        1 <1>        0.000
      3 C4         -0.7722    0.6885    0.0905 C.2        1 <1>        0.000
      4 O1          0.5633    0.1464   -1.7546 O.2        1 <1>        0.000
      5 O2         -1.5032   -0.1565    0.8322 O.3        1 <1>        0.000
      6 O3         -0.9208    1.8730   -0.1356 O.2        1 <1>        0.000
      7 H           1.9352   -1.3701   -0.0170 H.spc      1 <1>        0.000
      8 H           0.9078   -0.8312    1.3153 H.spc      1 <1>        0.000
      9 H          -1.1084   -1.0310    0.8015 H.spc      1 <1>        0.000
@<TRIPOS>BOND
     1    1    2 am 
     2    2    3 1  
     3    2    4 2  
     4    3    5 1  
     5    3    6 2  
     6    1    7 1  
     7    1    8 1  
     8    5    9 1  
# Name:          frag3-187-10/96164
# Creation time: Sat Jun  5 12:53:09 2010


@<TRIPOS>MOLECULE
frag3-187-10/96164
    9     8     1     1     1
SMALL
USER_CHARGES


@<TRIPOS>ATOM
      1 N1          1.5287    0.6423   -0.8308 N.am       1 <1>        0.000
      2 C1          0.4268   -0.1002   -0.4895 C.2        1 <1>        0.000
      3 C4         -0.7764    0.6875    0.1339 C.2        1 <1>        0.000
      4 O1          0.2592   -1.3037   -0.5650 O.2        1 <1>        0.000
      5 O2         -1.7019    0.9980   -0.7860 O.3        1 <1>        0.000
      6 O3         -0.7768    0.7936    1.3508 O.2        1 <1>        0.000
      7 H           2.3576    0.1817   -1.2066 H.spc      1 <1>        0.000
      8 H           1.5191    1.6549   -0.7088 H.spc      1 <1>        0.000
      9 H          -1.3684    0.7812   -1.6597 H.spc      1 <1>        0.000
@<TRIPOS>BOND
     1    1    2 am 
     2    2    3 1  
     3    2    4 2  
     4    3    5 1  
     5    3    6 2  
     6    1    7 1  
     7    1    8 1  
     8    5    9 1  
# Name:          frag3-187-10/96164
# Creation time: Sat Jun  5 12:53:09 2010


@<TRIPOS>MOLECULE
frag3-187-10/96164
    9     8     1     1     1
SMALL
USER_CHARGES


@<TRIPOS>ATOM
      1 N1          0.8674   -1.2155    0.0252 N.am       1 <1>        0.000
      2 C1          0.4533   -0.0299   -0.5216 C.2        1 <1>        0.000
      3 C4         -0.8284    0.6427    0.0675 C.2        1 <1>        0.000
      4 O1          0.9824    0.6042   -1.4321 O.2        1 <1>        0.000
      5 O2         -1.1759    0.1929    1.2778 O.3        1 <1>        0.000
      6 O3         -1.3392    1.5230   -0.6035 O.2        1 <1>        0.000
      7 H           1.7091   -1.6725   -0.3256 H.spc      1 <1>        0.000
      8 H           0.3341   -1.6414    0.7832 H.spc      1 <1>        0.000
      9 H          -0.5770   -0.5098    1.5409 H.spc      1 <1>        0.000
@<TRIPOS>BOND
     1    1    2 am 
     2    2    3 1  
     3    2    4 2  
     4    3    5 1  
     5    3    6 2  
     6    1    7 1  
     7    1    8 1  
     8    5    9 1  
# Name:          frag3-187-10/96164 -- energy: -0.109516
# Creation time: Sat Jun  5 12:53:09 2010


@<TRIPOS>MOLECULE
frag3-187-10/96164 -- energy: -0.109516
    9     8     1     1     1
SMALL
USER_CHARGES


@<TRIPOS>ATOM
      1 N1          1.5697   -0.1043    0.2118 N.am       1 <1>        0.000
      2 C1          0.4219   -0.0659   -0.5281 C.2        1 <1>        0.000
      3 C4         -0.7719    0.6614    0.1221 C.2        1 <1>        0.000
      4 O1          0.1986   -0.5186   -1.6310 O.2        1 <1>        0.000
      5 O2         -1.8960   -0.0311    0.0875 O.3        1 <1>        0.000
      6 O3         -0.5628    1.7760    0.5511 O.2        1 <1>        0.000
      7 H           2.4000   -0.5667   -0.1586 H.spc      1 <1>        0.000
      8 H           1.5964    0.3294    1.1346 H.spc      1 <1>        0.000
      9 H          -1.7316   -0.8859   -0.3173 H.spc      1 <1>        0.000
@<TRIPOS>BOND
     1    1    2 am 
     2    2    3 1  
     3    2    4 2  
     4    3    5 1  
     5    3    6 2  
     6    1    7 1  
     7    1    8 1  
     8    5    9 1  
# Name:          frag3-187-10/96164 -- energy: 1.131053
# Creation time: Sat Jun  5 12:53:09 2010


@<TRIPOS>MOLECULE
frag3-187-10/96164 -- energy: 1.131053
    9     8     1     1     1
SMALL
USER_CHARGES


@<TRIPOS>ATOM
      1 N1          1.6799    0.3870   -0.2100 N.am       1 <1>        0.000
      2 C1          0.4227   -0.0784   -0.5235 C.2        1 <1>        0.000
      3 C4         -0.7788    0.7045    0.1093 C.2        1 <1>        0.000
      4 O1          0.1104   -1.0430   -1.1902 O.2        1 <1>        0.000
      5 O2         -1.9478    0.3682   -0.4659 O.3        1 <1>        0.000
      6 O3         -0.5269    1.3791    1.0937 O.2        1 <1>        0.000
      7 H           2.5056   -0.1022   -0.5554 H.spc      1 <1>        0.000
      8 H           1.7856    1.2210    0.3676 H.spc      1 <1>        0.000
      9 H          -1.7784   -0.1800   -1.2356 H.spc      1 <1>        0.000
@<TRIPOS>BOND
     1    1    2 am 
     2    2    3 1  
     3    2    4 2  
     4    3    5 1  
     5    3    6 2  
     6    1    7 1  
     7    1    8 1  
     8    5    9 1  
# Name:          frag3-187-10/96164 -- energy: 0.068214
# Creation time: Sat Jun  5 12:53:09 2010


@<TRIPOS>MOLECULE
frag3-187-10/96164 -- energy: 0.068214
    9     8     1     1     1
SMALL
USER_CHARGES


@<TRIPOS>ATOM
      1 N1          1.1552   -0.8095    0.3260 N.am       1 <1>        0.000
      2 C1          0.4372   -0.0245   -0.5452 C.2        1 <1>        0.000
      3 C4         -0.7722    0.6885    0.0905 C.2        1 <1>        0.000
      4 O1          0.5633    0.1464   -1.7546 O.2        1 <1>        0.000
      5 O2         -1.5032   -0.1565    0.8322 O.3        1 <1>        0.000
      6 O3         -0.9208    1.8730   -0.1356 O.2        1 <1>        0.000
      7 H           1.9352   -1.3701   -0.0170 H.spc      1 <1>        0.000
      8 H           0.9078   -0.8312    1.3153 H.spc      1 <1>        0.000
      9 H          -1.1084   -1.0310    0.8015 H.spc      1 <1>        0.000
@<TRIPOS>BOND
     1    1    2 am 
     2    2    3 1  
     3    2    4 2  
     4    3    5 1  
     5    3    6 2  
     6    1    7 1  
     7    1    8 1  
     8    5    9 1  
# Name:          frag3-187-10/96164 -- energy: -0.327652
# Creation time: Sat Jun  5 12:53:09 2010


@<TRIPOS>MOLECULE
frag3-187-10/96164 -- energy: -0.327652
    9     8     1     1     1
SMALL
USER_CHARGES


@<TRIPOS>ATOM
      1 N1          1.5287    0.6423   -0.8308 N.am       1 <1>        0.000
      2 C1          0.4268   -0.1002   -0.4895 C.2        1 <1>        0.000
      3 C4         -0.7764    0.6875    0.1339 C.2        1 <1>        0.000
      4 O1          0.2592   -1.3037   -0.5650 O.2        1 <1>        0.000
      5 O2         -1.7019    0.9980   -0.7860 O.3        1 <1>        0.000
      6 O3         -0.7768    0.7936    1.3508 O.2        1 <1>        0.000
      7 H           2.3576    0.1817   -1.2066 H.spc      1 <1>        0.000
      8 H           1.5191    1.6549   -0.7088 H.spc      1 <1>        0.000
      9 H          -1.3684    0.7812   -1.6597 H.spc      1 <1>        0.000
@<TRIPOS>BOND
     1    1    2 am 
     2    2    3 1  
     3    2    4 2  
     4    3    5 1  
     5    3    6 2  
     6    1    7 1  
     7    1    8 1  
     8    5    9 1  
