#      Rotatable Fragment
#      Build by yxyuan
#
# Name:          frag4-396-64/48856
# Creation time: Sat Jun  5 12:53:46 2010


@<TRIPOS>MOLECULE
frag4-396-64/48856
   10    10     1     1     1
SMALL
USER_CHARGES


@<TRIPOS>ATOM
      1 C10        -1.9051    0.8428    0.2758 C.2        1 <1>        0.000
      2 N2         -2.6736    0.7190   -0.7303 N.2        1 <1>        0.000
      3 C11        -3.7938    1.6123   -0.5662 C.3        1 <1>        0.000
      4 C12        -3.6939    1.9569    0.9347 C.3        1 <1>        0.000
      5 O1         -2.3213    1.6823    1.2229 O.3        1 <1>        0.000
      6 H          -0.9654    0.2965    0.3579 H.spc      1 <1>        0.000
      7 H          -3.7556    2.4850   -1.2181 H.spc      1 <1>        0.000
      8 H          -4.7493    1.1714   -0.8504 H.spc      1 <1>        0.000
      9 H          -4.3838    1.3819    1.5523 H.spc      1 <1>        0.000
     10 H          -3.9803    2.9848    1.1574 H.spc      1 <1>        0.000
@<TRIPOS>BOND
     1    3    4 1  
     2    1    2 2  
     3    1    5 1  
     4    2    3 1  
     5    4    5 1  
     6    1    6 1  
     7    3    7 1  
     8    3    8 1  
     9    4    9 1  
    10    4   10 1  
# Name:          frag4-396-64/48856 -- energy: -0.355677
# Creation time: Sat Jun  5 12:53:46 2010


@<TRIPOS>MOLECULE
frag4-396-64/48856 -- energy: -0.355677
   10    10     1     1     1
SMALL
USER_CHARGES


@<TRIPOS>ATOM
      1 C10        -1.9051    0.8428    0.2758 C.2        1 <1>        0.000
      2 N2         -2.6736    0.7190   -0.7303 N.2        1 <1>        0.000
      3 C11        -3.7938    1.6123   -0.5662 C.3        1 <1>        0.000
      4 C12        -3.6939    1.9569    0.9347 C.3        1 <1>        0.000
      5 O1         -2.3213    1.6823    1.2229 O.3        1 <1>        0.000
      6 H          -0.9654    0.2965    0.3579 H.spc      1 <1>        0.000
      7 H          -3.7556    2.4850   -1.2181 H.spc      1 <1>        0.000
      8 H          -4.7493    1.1714   -0.8504 H.spc      1 <1>        0.000
      9 H          -4.3838    1.3819    1.5523 H.spc      1 <1>        0.000
     10 H          -3.9803    2.9848    1.1574 H.spc      1 <1>        0.000
@<TRIPOS>BOND
     1    3    4 1  
     2    1    2 2  
     3    1    5 1  
     4    2    3 1  
     5    4    5 1  
     6    1    6 1  
     7    3    7 1  
     8    3    8 1  
     9    4    9 1  
    10    4   10 1  
