#      Rotatable Fragment
#      Build by yxyuan
#
# Name:          frag3-093-2965/96164
# Creation time: Sat Jun  5 12:52:39 2010


@<TRIPOS>MOLECULE
frag3-093-2965/96164
    7     6     1     1     1
SMALL
USER_CHARGES


@<TRIPOS>ATOM
      1 N5         -0.9896    0.1565   -0.0730 N.am       1 <1>        0.000
      2 C14         0.2450   -0.3491    0.0404 C.2        1 <1>        0.000
      3 O4          0.1407   -1.6732   -0.0019 O.3        1 <1>        0.000
      4 O5          1.2921    0.2443    0.1603 O.2        1 <1>        0.000
      5 H          -1.1298    1.1668   -0.0638 H.spc      1 <1>        0.000
      6 H          -1.7899   -0.4686   -0.1686 H.spc      1 <1>        0.000
      7 H          -0.7824   -1.9173   -0.1009 H.spc      1 <1>        0.000
@<TRIPOS>BOND
     1    1    2 am 
     2    2    3 1  
     3    2    4 2  
     4    1    5 1  
     5    1    6 1  
     6    3    7 1  
# Name:          frag3-093-2965/96164 -- energy: 1.649909
# Creation time: Sat Jun  5 12:52:39 2010


@<TRIPOS>MOLECULE
frag3-093-2965/96164 -- energy: 1.649909
    7     6     1     1     1
SMALL
USER_CHARGES


@<TRIPOS>ATOM
      1 N5         -0.9896    0.1565   -0.0730 N.am       1 <1>        0.000
      2 C14         0.2450   -0.3491    0.0404 C.2        1 <1>        0.000
      3 O4          0.1407   -1.6732   -0.0019 O.3        1 <1>        0.000
      4 O5          1.2921    0.2443    0.1603 O.2        1 <1>        0.000
      5 H          -1.1298    1.1668   -0.0638 H.spc      1 <1>        0.000
      6 H          -1.7899   -0.4686   -0.1686 H.spc      1 <1>        0.000
      7 H          -0.7824   -1.9173   -0.1009 H.spc      1 <1>        0.000
@<TRIPOS>BOND
     1    1    2 am 
     2    2    3 1  
     3    2    4 2  
     4    1    5 1  
     5    1    6 1  
     6    3    7 1  
