#      Rotatable Fragment
#      Build by yxyuan
#
# Name:          frag5-576-43/41815
# Creation time: Sat Jun  5 12:52:55 2010


@<TRIPOS>MOLECULE
frag5-576-43/41815
   15    15     1     1     1
SMALL
USER_CHARGES


@<TRIPOS>ATOM
      1 N2         -4.7009   -0.0729    0.9649 N.am       1 <1>        0.000
      2 C6         -4.1459    1.0915    1.4001 C.2        1 <1>        0.000
      3 C7         -2.6963    1.1058    1.7909 C.3        1 <1>        0.000
      4 N3         -1.9398    0.0727    1.0569 N.4        1 <1>        0.000
      5 C8         -2.5541   -1.2543    1.2573 C.3        1 <1>        0.000
      6 C9         -4.0055   -1.2395    0.8732 C.2        1 <1>        0.000
      7 O2         -4.5356   -2.2726    0.4851 O.2        1 <1>        0.000
      8 O6         -4.8006    2.1231    1.4788 O.2        1 <1>        0.000
      9 H          -5.6845   -0.0711    0.6947 H.spc      1 <1>        0.000
     10 H          -2.6203    0.9019    2.8590 H.spc      1 <1>        0.000
     11 H          -2.2787    2.0830    1.5486 H.spc      1 <1>        0.000
     12 H          -0.9817    0.0515    1.4061 H.spc      1 <1>        0.000
     13 H          -1.9506    0.2970    0.0619 H.spc      1 <1>        0.000
     14 H          -2.4742   -1.5209    2.3112 H.spc      1 <1>        0.000
     15 H          -2.0340   -1.9785    0.6303 H.spc      1 <1>        0.000
@<TRIPOS>BOND
     1    6    7 2  
     2    1    2 am 
     3    1    6 am 
     4    2    3 1  
     5    2    8 2  
     6    3    4 1  
     7    4    5 1  
     8    5    6 1  
     9    1    9 1  
    10    3   10 1  
    11    3   11 1  
    12    4   12 1  
    13    4   13 1  
    14    5   14 1  
    15    5   15 1  
# Name:          frag5-576-43/41815 -- energy: -0.989713
# Creation time: Sat Jun  5 12:52:55 2010


@<TRIPOS>MOLECULE
frag5-576-43/41815 -- energy: -0.989713
   15    15     1     1     1
SMALL
USER_CHARGES


@<TRIPOS>ATOM
      1 N2         -4.7009   -0.0729    0.9649 N.am       1 <1>        0.000
      2 C6         -4.1459    1.0915    1.4001 C.2        1 <1>        0.000
      3 C7         -2.6963    1.1058    1.7909 C.3        1 <1>        0.000
      4 N3         -1.9398    0.0727    1.0569 N.4        1 <1>        0.000
      5 C8         -2.5541   -1.2543    1.2573 C.3        1 <1>        0.000
      6 C9         -4.0055   -1.2395    0.8732 C.2        1 <1>        0.000
      7 O2         -4.5356   -2.2726    0.4851 O.2        1 <1>        0.000
      8 O6         -4.8006    2.1231    1.4788 O.2        1 <1>        0.000
      9 H          -5.6845   -0.0711    0.6947 H.spc      1 <1>        0.000
     10 H          -2.6203    0.9019    2.8590 H.spc      1 <1>        0.000
     11 H          -2.2787    2.0830    1.5486 H.spc      1 <1>        0.000
     12 H          -0.9817    0.0515    1.4061 H.spc      1 <1>        0.000
     13 H          -1.9506    0.2970    0.0619 H.spc      1 <1>        0.000
     14 H          -2.4742   -1.5209    2.3112 H.spc      1 <1>        0.000
     15 H          -2.0340   -1.9785    0.6303 H.spc      1 <1>        0.000
@<TRIPOS>BOND
     1    6    7 2  
     2    1    2 am 
     3    1    6 am 
     4    2    3 1  
     5    2    8 2  
     6    3    4 1  
     7    4    5 1  
     8    5    6 1  
     9    1    9 1  
    10    3   10 1  
    11    3   11 1  
    12    4   12 1  
    13    4   13 1  
    14    5   14 1  
    15    5   15 1  
