#      Rotatable Fragment
#      Build by yxyuan
#
# Name:          frag5-677-62/138278
# Creation time: Sat Jun  5 12:51:52 2010


@<TRIPOS>MOLECULE
frag5-677-62/138278
   30    31     1     1     1
SMALL
USER_CHARGES


@<TRIPOS>ATOM
      1 C9         -1.3946   -0.1310   -0.2304 C.ar       1 <1>        0.000
      2 C12        -0.2689    0.6322    0.0905 C.ar       1 <1>        0.000
      3 C13        -1.4857   -1.5197   -0.2005 C.ar       1 <1>        0.000
      4 C15         0.7640   -0.1811    0.5737 C.ar       1 <1>        0.000
      5 O1         -0.2061    1.9547   -0.0085 O.3        1 <1>        0.000
      6 C16        -0.3760   -2.2295    0.2330 C.ar       1 <1>        0.000
      7 C17         0.7808   -1.5785    0.6713 C.ar       1 <1>        0.000
      8 C26         2.0283   -1.7819   -2.5382 C.ar       1 <1>        0.000
      9 C20         1.9864   -2.2528    1.2663 C.2        1 <1>        0.000
     10 N3          2.6450   -3.2099    0.5510 N.am       1 <1>        0.000
     11 O4          2.3768   -1.9528    2.3794 O.2        1 <1>        0.000
     12 S1          2.5052   -3.9002   -0.8791 S.o2       1 <1>        0.000
     13 C25         2.9639   -2.5880   -1.8784 C.ar       1 <1>        0.000
     14 O5          3.5072   -4.9321   -0.9017 O.2        1 <1>        0.000
     15 O6          1.1230   -4.1720   -1.0802 O.2        1 <1>        0.000
     16 C27         4.2426   -2.0163   -1.9533 C.ar       1 <1>        0.000
     17 C28         2.3252   -0.7832   -3.4555 C.ar       1 <1>        0.000
     18 C30         4.6289   -1.0631   -2.8950 C.ar       1 <1>        0.000
     19 C31         3.6453   -0.4357   -3.6335 C.ar       1 <1>        0.000
     20 H          -2.2884    0.4142   -0.5337 H.spc      1 <1>        0.000
     21 H          -2.3978   -2.0316   -0.5072 H.spc      1 <1>        0.000
     22 H           1.6617    0.3347    0.9144 H.spc      1 <1>        0.000
     23 H          -1.0328    2.2874   -0.3655 H.spc      1 <1>        0.000
     24 H          -0.4065   -3.3191    0.2319 H.spc      1 <1>        0.000
     25 H           0.9759   -1.9534   -2.3120 H.spc      1 <1>        0.000
     26 H           3.4394   -3.5838    1.0702 H.spc      1 <1>        0.000
     27 H           4.9861   -2.3396   -1.2247 H.spc      1 <1>        0.000
     28 H           1.5348   -0.2878   -4.0193 H.spc      1 <1>        0.000
     29 H           5.6808   -0.8195   -3.0443 H.spc      1 <1>        0.000
     30 H           3.9139    0.3342   -4.3569 H.spc      1 <1>        0.000
@<TRIPOS>BOND
     1    2    5 1  
     2    2    4 ar 
     3    3    6 ar 
     4   17   19 ar 
     5    4    7 ar 
     6    6    7 ar 
     7    9   11 2  
     8   10   12 1  
     9   16   18 ar 
    10   12   15 2  
    11    9   10 am 
    12   13   16 ar 
    13    7    9 1  
    14   12   14 2  
    15   12   13 1  
    16   18   19 ar 
    17    8   17 ar 
    18   13    8 ar 
    19    1    3 ar 
    20    1    2 ar 
    21    1   20 1  
    22    3   21 1  
    23    4   22 1  
    24    5   23 1  
    25    6   24 1  
    26    8   25 1  
    27   10   26 1  
    28   16   27 1  
    29   17   28 1  
    30   18   29 1  
    31   19   30 1  
# Name:          frag5-677-62/138278
# Creation time: Sat Jun  5 12:51:52 2010


@<TRIPOS>MOLECULE
frag5-677-62/138278
   30    31     1     1     1
SMALL
USER_CHARGES


@<TRIPOS>ATOM
      1 C9         -2.1574   -0.4191    1.3862 C.ar       1 <1>        0.000
      2 C12        -1.1174    0.4853    1.1411 C.ar       1 <1>        0.000
      3 C13        -2.0631   -1.8104    1.3821 C.ar       1 <1>        0.000
      4 C15         0.1060   -0.1906    0.9821 C.ar       1 <1>        0.000
      5 O1         -1.2757    1.8067    1.1085 O.3        1 <1>        0.000
      6 C16        -0.8288   -2.3822    1.1213 C.ar       1 <1>        0.000
      7 C17         0.3086   -1.5958    0.9823 C.ar       1 <1>        0.000
      8 C26         4.7207   -1.6745   -2.4563 C.ar       1 <1>        0.000
      9 C20         1.6420   -2.2246    0.9081 C.2        1 <1>        0.000
     10 N3          2.4245   -2.0479   -0.1779 N.am       1 <1>        0.000
     11 O4          2.0415   -2.9831    1.7857 O.2        1 <1>        0.000
     12 S1          2.1100   -1.5881   -1.6729 S.o2       1 <1>        0.000
     13 C25         3.4351   -2.2250   -2.4997 C.ar       1 <1>        0.000
     14 O5          0.9153   -2.3135   -2.0123 O.2        1 <1>        0.000
     15 O6          2.1972   -0.1482   -1.6695 O.2        1 <1>        0.000
     16 C27         3.4394   -3.4823   -3.0896 C.ar       1 <1>        0.000
     17 C28         5.8014   -2.1178   -3.2208 C.ar       1 <1>        0.000
     18 C30         4.4479   -3.9585   -3.9237 C.ar       1 <1>        0.000
     19 C31         5.6442   -3.2713   -3.9636 C.ar       1 <1>        0.000
     20 H          -3.1377    0.0062    1.6015 H.spc      1 <1>        0.000
     21 H          -2.9372   -2.4312    1.5788 H.spc      1 <1>        0.000
     22 H           0.9916    0.4298    0.8442 H.spc      1 <1>        0.000
     23 H          -2.2021    2.0203    1.2418 H.spc      1 <1>        0.000
     24 H          -0.7484   -3.4648    1.0236 H.spc      1 <1>        0.000
     25 H           4.8906   -0.8394   -1.7767 H.spc      1 <1>        0.000
     26 H           3.4105   -2.2476   -0.0094 H.spc      1 <1>        0.000
     27 H           2.5956   -4.1416   -2.8858 H.spc      1 <1>        0.000
     28 H           6.7430   -1.5688   -3.2311 H.spc      1 <1>        0.000
     29 H           4.2962   -4.8516   -4.5299 H.spc      1 <1>        0.000
     30 H           6.4641   -3.6387   -4.5808 H.spc      1 <1>        0.000
@<TRIPOS>BOND
     1    2    5 1  
     2    2    4 ar 
     3    3    6 ar 
     4   17   19 ar 
     5    4    7 ar 
     6    6    7 ar 
     7    9   11 2  
     8   10   12 1  
     9   16   18 ar 
    10   12   15 2  
    11    9   10 am 
    12   13   16 ar 
    13    7    9 1  
    14   12   14 2  
    15   12   13 1  
    16   18   19 ar 
    17    8   17 ar 
    18   13    8 ar 
    19    1    3 ar 
    20    1    2 ar 
    21    1   20 1  
    22    3   21 1  
    23    4   22 1  
    24    5   23 1  
    25    6   24 1  
    26    8   25 1  
    27   10   26 1  
    28   16   27 1  
    29   17   28 1  
    30   18   29 1  
    31   19   30 1  
# Name:          frag5-677-62/138278
# Creation time: Sat Jun  5 12:51:52 2010


@<TRIPOS>MOLECULE
frag5-677-62/138278
   30    31     1     1     1
SMALL
USER_CHARGES


@<TRIPOS>ATOM
      1 C9         -1.0831    0.0294   -0.3384 C.ar       1 <1>        0.000
      2 C12         0.1733    0.6240   -0.2176 C.ar       1 <1>        0.000
      3 C13        -1.3976   -1.3093   -0.0753 C.ar       1 <1>        0.000
      4 C15         1.0809   -0.2910    0.3373 C.ar       1 <1>        0.000
      5 O1          0.4407    1.8865   -0.5259 O.3        1 <1>        0.000
      6 C16        -0.3913   -2.1576    0.3576 C.ar       1 <1>        0.000
      7 C17         0.8538   -1.6419    0.6853 C.ar       1 <1>        0.000
      8 C26         2.1210   -2.2813   -2.9175 C.ar       1 <1>        0.000
      9 C20         1.9287   -2.4555    1.3400 C.2        1 <1>        0.000
     10 N3          2.6266   -3.3876    0.6022 N.am       1 <1>        0.000
     11 O4          2.2073   -2.2785    2.5090 O.2        1 <1>        0.000
     12 S1          2.5780   -3.9695   -0.8700 S.o2       1 <1>        0.000
     13 C25         2.8648   -2.5487   -1.7769 C.ar       1 <1>        0.000
     14 O5          3.6840   -4.8787   -1.0466 O.2        1 <1>        0.000
     15 O6          1.2096   -4.3947   -1.0757 O.2        1 <1>        0.000
     16 C27         3.6419   -1.4063   -1.4340 C.ar       1 <1>        0.000
     17 C28         2.2609   -1.1980   -3.7658 C.ar       1 <1>        0.000
     18 C30         3.8508   -0.2861   -2.2496 C.ar       1 <1>        0.000
     19 C31         3.1411   -0.1960   -3.4272 C.ar       1 <1>        0.000
     20 H          -1.9001    0.6701   -0.6702 H.spc      1 <1>        0.000
     21 H          -2.4149   -1.6772   -0.2085 H.spc      1 <1>        0.000
     22 H           2.0862    0.0871    0.5231 H.spc      1 <1>        0.000
     23 H          -0.3459    2.2994   -0.8898 H.spc      1 <1>        0.000
     24 H          -0.5778   -3.2283    0.4405 H.spc      1 <1>        0.000
     25 H           1.3437   -3.0018   -3.1719 H.spc      1 <1>        0.000
     26 H           3.3725   -3.8165    1.1500 H.spc      1 <1>        0.000
     27 H           4.1153   -1.4026   -0.4522 H.spc      1 <1>        0.000
     28 H           1.6830   -1.1389   -4.6881 H.spc      1 <1>        0.000
     29 H           4.5559    0.4931   -1.9602 H.spc      1 <1>        0.000
     30 H           3.2759    0.6623   -4.0854 H.spc      1 <1>        0.000
@<TRIPOS>BOND
     1    2    5 1  
     2    2    4 ar 
     3    3    6 ar 
     4   17   19 ar 
     5    4    7 ar 
     6    6    7 ar 
     7    9   11 2  
     8   10   12 1  
     9   16   18 ar 
    10   12   15 2  
    11    9   10 am 
    12   13   16 ar 
    13    7    9 1  
    14   12   14 2  
    15   12   13 1  
    16   18   19 ar 
    17    8   17 ar 
    18   13    8 ar 
    19    1    3 ar 
    20    1    2 ar 
    21    1   20 1  
    22    3   21 1  
    23    4   22 1  
    24    5   23 1  
    25    6   24 1  
    26    8   25 1  
    27   10   26 1  
    28   16   27 1  
    29   17   28 1  
    30   18   29 1  
    31   19   30 1  
# Name:          frag5-677-62/138278
# Creation time: Sat Jun  5 12:51:52 2010


@<TRIPOS>MOLECULE
frag5-677-62/138278
   30    31     1     1     1
SMALL
USER_CHARGES


@<TRIPOS>ATOM
      1 C9         -0.9733    1.0600    1.5669 C.ar       1 <1>        0.000
      2 C12        -1.3114   -0.2328    1.9832 C.ar       1 <1>        0.000
      3 C13        -0.0432    1.4049    0.5754 C.ar       1 <1>        0.000
      4 C15        -0.6824   -1.1846    1.1959 C.ar       1 <1>        0.000
      5 O1         -2.1554   -0.5133    2.9628 O.3        1 <1>        0.000
      6 C16         0.6149    0.4037   -0.0817 C.ar       1 <1>        0.000
      7 C17         0.2367   -0.8782    0.2062 C.ar       1 <1>        0.000
      8 C26         3.0445   -3.2270   -3.2210 C.ar       1 <1>        0.000
      9 C20         0.8374   -1.9556   -0.5123 C.2        1 <1>        0.000
     10 N3          2.0127   -2.4142    0.0015 N.am       1 <1>        0.000
     11 O4          0.3328   -2.4154   -1.5015 O.2        1 <1>        0.000
     12 S1          2.9606   -3.5513   -0.5115 S.o2       1 <1>        0.000
     13 C25         3.5318   -2.8511   -1.9670 C.ar       1 <1>        0.000
     14 O5          4.0137   -3.5951    0.4626 O.2        1 <1>        0.000
     15 O6          2.1081   -4.6728   -0.8252 O.2        1 <1>        0.000
     16 C27         4.3408   -1.7012   -2.0704 C.ar       1 <1>        0.000
     17 C28         3.5311   -2.7874   -4.4430 C.ar       1 <1>        0.000
     18 C30         4.9120   -1.2414   -3.2585 C.ar       1 <1>        0.000
     19 C31         4.4798   -1.7879   -4.4512 C.ar       1 <1>        0.000
     20 H          -1.4855    1.8835    2.0644 H.spc      1 <1>        0.000
     21 H           0.1507    2.4500    0.3340 H.spc      1 <1>        0.000
     22 H          -0.9249   -2.2337    1.3653 H.spc      1 <1>        0.000
     23 H          -2.4616    0.3035    3.3635 H.spc      1 <1>        0.000
     24 H           1.4047    0.6172   -0.8019 H.spc      1 <1>        0.000
     25 H           2.2090   -3.9268   -3.2408 H.spc      1 <1>        0.000
     26 H           2.3238   -1.9446    0.8519 H.spc      1 <1>        0.000
     27 H           4.5335   -1.1323   -1.1608 H.spc      1 <1>        0.000
     28 H           3.1715   -3.2224   -5.3755 H.spc      1 <1>        0.000
     29 H           5.6811   -0.4691   -3.2452 H.spc      1 <1>        0.000
     30 H           4.8880   -1.4296   -5.3962 H.spc      1 <1>        0.000
@<TRIPOS>BOND
     1    2    5 1  
     2    2    4 ar 
     3    3    6 ar 
     4   17   19 ar 
     5    4    7 ar 
     6    6    7 ar 
     7    9   11 2  
     8   10   12 1  
     9   16   18 ar 
    10   12   15 2  
    11    9   10 am 
    12   13   16 ar 
    13    7    9 1  
    14   12   14 2  
    15   12   13 1  
    16   18   19 ar 
    17    8   17 ar 
    18   13    8 ar 
    19    1    3 ar 
    20    1    2 ar 
    21    1   20 1  
    22    3   21 1  
    23    4   22 1  
    24    5   23 1  
    25    6   24 1  
    26    8   25 1  
    27   10   26 1  
    28   16   27 1  
    29   17   28 1  
    30   18   29 1  
    31   19   30 1  
# Name:          frag5-677-62/138278
# Creation time: Sat Jun  5 12:51:52 2010


@<TRIPOS>MOLECULE
frag5-677-62/138278
   30    31     1     1     1
SMALL
USER_CHARGES


@<TRIPOS>ATOM
      1 C9         -1.7246    0.1008    1.5740 C.ar       1 <1>        0.000
      2 C12        -1.2809    0.4182    0.2828 C.ar       1 <1>        0.000
      3 C13        -1.1997   -0.8810    2.4298 C.ar       1 <1>        0.000
      4 C15        -0.1518   -0.3106   -0.0337 C.ar       1 <1>        0.000
      5 O1         -1.8359    1.3289   -0.5019 O.3        1 <1>        0.000
      6 C16        -0.1397   -1.6191    2.0025 C.ar       1 <1>        0.000
      7 C17         0.4019   -1.2761    0.7974 C.ar       1 <1>        0.000
      8 C26         2.8427   -1.6624   -3.0309 C.ar       1 <1>        0.000
      9 C20         1.5446   -2.0091    0.3618 C.2        1 <1>        0.000
     10 N3          1.3494   -2.8821   -0.6684 N.am       1 <1>        0.000
     11 O4          2.6182   -1.8413    0.9036 O.2        1 <1>        0.000
     12 S1          2.3816   -3.8559   -1.3361 S.o2       1 <1>        0.000
     13 C25         3.3235   -2.6978   -2.1842 C.ar       1 <1>        0.000
     14 O5          3.1225   -4.4525   -0.2616 O.2        1 <1>        0.000
     15 O6          1.6651   -4.6425   -2.3204 O.2        1 <1>        0.000
     16 C27         4.6768   -2.5246   -1.9287 C.ar       1 <1>        0.000
     17 C28         3.6469   -0.7761   -3.7541 C.ar       1 <1>        0.000
     18 C30         5.5384   -1.7284   -2.6595 C.ar       1 <1>        0.000
     19 C31         5.0124   -0.8293   -3.5617 C.ar       1 <1>        0.000
     20 H          -2.5674    0.6779    1.9545 H.spc      1 <1>        0.000
     21 H          -1.6326   -1.0483    3.4161 H.spc      1 <1>        0.000
     22 H           0.3329   -0.1173   -0.9906 H.spc      1 <1>        0.000
     23 H          -2.6075    1.6979   -0.0660 H.spc      1 <1>        0.000
     24 H           0.2577   -2.4441    2.5937 H.spc      1 <1>        0.000
     25 H           1.7624   -1.5505   -3.1238 H.spc      1 <1>        0.000
     26 H           0.4062   -2.9044   -1.0561 H.spc      1 <1>        0.000
     27 H           5.0961   -3.0628   -1.0786 H.spc      1 <1>        0.000
     28 H           3.2072   -0.0625   -4.4509 H.spc      1 <1>        0.000
     29 H           6.6169   -1.8104   -2.5243 H.spc      1 <1>        0.000
     30 H           5.6710   -0.1641   -4.1201 H.spc      1 <1>        0.000
@<TRIPOS>BOND
     1    2    5 1  
     2    2    4 ar 
     3    3    6 ar 
     4   17   19 ar 
     5    4    7 ar 
     6    6    7 ar 
     7    9   11 2  
     8   10   12 1  
     9   16   18 ar 
    10   12   15 2  
    11    9   10 am 
    12   13   16 ar 
    13    7    9 1  
    14   12   14 2  
    15   12   13 1  
    16   18   19 ar 
    17    8   17 ar 
    18   13    8 ar 
    19    1    3 ar 
    20    1    2 ar 
    21    1   20 1  
    22    3   21 1  
    23    4   22 1  
    24    5   23 1  
    25    6   24 1  
    26    8   25 1  
    27   10   26 1  
    28   16   27 1  
    29   17   28 1  
    30   18   29 1  
    31   19   30 1  
# Name:          frag5-677-62/138278
# Creation time: Sat Jun  5 12:51:52 2010


@<TRIPOS>MOLECULE
frag5-677-62/138278
   30    31     1     1     1
SMALL
USER_CHARGES


@<TRIPOS>ATOM
      1 C9         -0.4237    1.2252    1.4996 C.ar       1 <1>        0.000
      2 C12        -1.3771    0.1982    1.4577 C.ar       1 <1>        0.000
      3 C13         0.8980    1.1667    1.0411 C.ar       1 <1>        0.000
      4 C15        -0.8857   -0.8954    0.7800 C.ar       1 <1>        0.000
      5 O1         -2.6016    0.2747    1.9431 O.3        1 <1>        0.000
      6 C16         1.3389   -0.0043    0.4878 C.ar       1 <1>        0.000
      7 C17         0.4165   -1.0214    0.3397 C.ar       1 <1>        0.000
      8 C26         2.8609   -3.0364   -3.2419 C.ar       1 <1>        0.000
      9 C20         0.7584   -2.2831   -0.2455 C.2        1 <1>        0.000
     10 N3          1.9687   -2.7975    0.1096 N.am       1 <1>        0.000
     11 O4          0.0543   -2.8135   -1.0708 O.2        1 <1>        0.000
     12 S1          2.8955   -3.8231   -0.6221 S.o2       1 <1>        0.000
     13 C25         3.3995   -2.8772   -1.9621 C.ar       1 <1>        0.000
     14 O5          3.9964   -4.0094    0.2857 O.2        1 <1>        0.000
     15 O6          2.0547   -4.8953   -1.0931 O.2        1 <1>        0.000
     16 C27         4.1946   -1.7123   -1.9082 C.ar       1 <1>        0.000
     17 C28         3.2947   -2.3935   -4.3928 C.ar       1 <1>        0.000
     18 C30         4.7126   -1.0496   -3.0237 C.ar       1 <1>        0.000
     19 C31         4.2357   -1.3939   -4.2731 C.ar       1 <1>        0.000
     20 H          -0.7459    2.1707    1.9359 H.spc      1 <1>        0.000
     21 H           1.5577    2.0306    1.1228 H.spc      1 <1>        0.000
     22 H          -1.5720   -1.7177    0.5775 H.spc      1 <1>        0.000
     23 H          -2.7216    1.1245    2.3733 H.spc      1 <1>        0.000
     24 H           2.3760   -0.1294    0.1765 H.spc      1 <1>        0.000
     25 H           2.0247   -3.7279   -3.3454 H.spc      1 <1>        0.000
     26 H           2.3306   -2.4574    1.0005 H.spc      1 <1>        0.000
     27 H           4.4209   -1.2998   -0.9250 H.spc      1 <1>        0.000
     28 H           2.8999   -2.6730   -5.3696 H.spc      1 <1>        0.000
     29 H           5.4751   -0.2790   -2.9105 H.spc      1 <1>        0.000
     30 H           4.6018   -0.8774   -5.1604 H.spc      1 <1>        0.000
@<TRIPOS>BOND
     1    2    5 1  
     2    2    4 ar 
     3    3    6 ar 
     4   17   19 ar 
     5    4    7 ar 
     6    6    7 ar 
     7    9   11 2  
     8   10   12 1  
     9   16   18 ar 
    10   12   15 2  
    11    9   10 am 
    12   13   16 ar 
    13    7    9 1  
    14   12   14 2  
    15   12   13 1  
    16   18   19 ar 
    17    8   17 ar 
    18   13    8 ar 
    19    1    3 ar 
    20    1    2 ar 
    21    1   20 1  
    22    3   21 1  
    23    4   22 1  
    24    5   23 1  
    25    6   24 1  
    26    8   25 1  
    27   10   26 1  
    28   16   27 1  
    29   17   28 1  
    30   18   29 1  
    31   19   30 1  
# Name:          frag5-677-62/138278
# Creation time: Sat Jun  5 12:51:52 2010


@<TRIPOS>MOLECULE
frag5-677-62/138278
   30    31     1     1     1
SMALL
USER_CHARGES


@<TRIPOS>ATOM
      1 C9         -0.9668    0.3283    2.4161 C.ar       1 <1>        0.000
      2 C12        -1.7570   -0.0014    1.3054 C.ar       1 <1>        0.000
      3 C13         0.3836    0.0186    2.6070 C.ar       1 <1>        0.000
      4 C15        -0.9963   -0.6002    0.3215 C.ar       1 <1>        0.000
      5 O1         -3.0439    0.2719    1.1880 O.3        1 <1>        0.000
      6 C16         1.0316   -0.6759    1.6288 C.ar       1 <1>        0.000
      7 C17         0.3475   -0.9108    0.4605 C.ar       1 <1>        0.000
      8 C26         4.7459   -2.4015   -1.7139 C.ar       1 <1>        0.000
      9 C20         0.9776   -1.5828   -0.6317 C.2        1 <1>        0.000
     10 N3          1.8130   -2.6019   -0.2841 N.am       1 <1>        0.000
     11 O4          0.7343   -1.3150   -1.7813 O.2        1 <1>        0.000
     12 S1          2.4172   -3.7549   -1.1493 S.o2       1 <1>        0.000
     13 C25         3.4921   -2.8665   -2.1329 C.ar       1 <1>        0.000
     14 O5          3.1365   -4.5439   -0.1833 O.2        1 <1>        0.000
     15 O6          1.3392   -4.2636   -1.9610 O.2        1 <1>        0.000
     16 C27         3.1244   -2.2618   -3.3465 C.ar       1 <1>        0.000
     17 C28         5.7000   -1.8552   -2.5657 C.ar       1 <1>        0.000
     18 C30         4.0023   -1.6514   -4.2321 C.ar       1 <1>        0.000
     19 C31         5.3099   -1.4728   -3.8344 C.ar       1 <1>        0.000
     20 H          -1.4569    0.8847    3.2150 H.spc      1 <1>        0.000
     21 H           0.9046    0.3245    3.5143 H.spc      1 <1>        0.000
     22 H          -1.4823   -0.8439   -0.6232 H.spc      1 <1>        0.000
     23 H          -3.3570    0.6856    1.9957 H.spc      1 <1>        0.000
     24 H           2.0527   -1.0310    1.7682 H.spc      1 <1>        0.000
     25 H           4.9887   -2.4724   -0.6536 H.spc      1 <1>        0.000
     26 H           2.0880   -2.6142    0.6980 H.spc      1 <1>        0.000
     27 H           2.0677   -2.2727   -3.6136 H.spc      1 <1>        0.000
     28 H           6.7326   -1.7316   -2.2394 H.spc      1 <1>        0.000
     29 H           3.6665   -1.3223   -5.2155 H.spc      1 <1>        0.000
     30 H           6.0340   -1.0311   -4.5190 H.spc      1 <1>        0.000
@<TRIPOS>BOND
     1    2    5 1  
     2    2    4 ar 
     3    3    6 ar 
     4   17   19 ar 
     5    4    7 ar 
     6    6    7 ar 
     7    9   11 2  
     8   10   12 1  
     9   16   18 ar 
    10   12   15 2  
    11    9   10 am 
    12   13   16 ar 
    13    7    9 1  
    14   12   14 2  
    15   12   13 1  
    16   18   19 ar 
    17    8   17 ar 
    18   13    8 ar 
    19    1    3 ar 
    20    1    2 ar 
    21    1   20 1  
    22    3   21 1  
    23    4   22 1  
    24    5   23 1  
    25    6   24 1  
    26    8   25 1  
    27   10   26 1  
    28   16   27 1  
    29   17   28 1  
    30   18   29 1  
    31   19   30 1  
# Name:          frag5-677-62/138278
# Creation time: Sat Jun  5 12:51:52 2010


@<TRIPOS>MOLECULE
frag5-677-62/138278
   30    31     1     1     1
SMALL
USER_CHARGES


@<TRIPOS>ATOM
      1 C9         -2.0150   -1.4808    1.9056 C.ar       1 <1>        0.000
      2 C12        -0.8476   -1.2565    2.6392 C.ar       1 <1>        0.000
      3 C13        -2.1608   -1.3498    0.5244 C.ar       1 <1>        0.000
      4 C15         0.2363   -0.9783    1.7828 C.ar       1 <1>        0.000
      5 O1         -0.7648   -1.3443    3.9632 O.3        1 <1>        0.000
      6 C16        -1.0512   -0.9761   -0.2230 C.ar       1 <1>        0.000
      7 C17         0.1634   -0.6947    0.4003 C.ar       1 <1>        0.000
      8 C26         4.7384   -2.8449   -1.9650 C.ar       1 <1>        0.000
      9 C20         1.3145   -0.1127   -0.3303 C.2        1 <1>        0.000
     10 N3          2.0734   -0.8957   -1.1241 N.am       1 <1>        0.000
     11 O4          1.6302    1.0578   -0.2115 O.2        1 <1>        0.000
     12 S1          2.1382   -2.4637   -1.3645 S.o2       1 <1>        0.000
     13 C25         3.4581   -2.5730   -2.4144 C.ar       1 <1>        0.000
     14 O5          2.4603   -2.9743   -0.0641 O.2        1 <1>        0.000
     15 O6          0.9334   -2.8062   -2.0912 O.2        1 <1>        0.000
     16 C27         3.4700   -2.1034   -3.7370 C.ar       1 <1>        0.000
     17 C28         5.8076   -3.1519   -2.7995 C.ar       1 <1>        0.000
     18 C30         4.5192   -2.3211   -4.6347 C.ar       1 <1>        0.000
     19 C31         5.6879   -2.8712   -4.1453 C.ar       1 <1>        0.000
     20 H          -2.8975   -1.7879    2.4667 H.spc      1 <1>        0.000
     21 H          -3.1212   -1.5360    0.0438 H.spc      1 <1>        0.000
     22 H           1.2297   -0.9822    2.2313 H.spc      1 <1>        0.000
     23 H          -1.6321   -1.5415    4.3246 H.spc      1 <1>        0.000
     24 H          -1.1311   -0.9022   -1.3076 H.spc      1 <1>        0.000
     25 H           4.9200   -2.8167   -0.8906 H.spc      1 <1>        0.000
     26 H           2.7445   -0.3722   -1.6862 H.spc      1 <1>        0.000
     27 H           2.6083   -1.5341   -4.0855 H.spc      1 <1>        0.000
     28 H           6.7166   -3.6025   -2.4010 H.spc      1 <1>        0.000
     29 H           4.4181   -2.0645   -5.6892 H.spc      1 <1>        0.000
     30 H           6.5155   -3.0836   -4.8221 H.spc      1 <1>        0.000
@<TRIPOS>BOND
     1    2    5 1  
     2    2    4 ar 
     3    3    6 ar 
     4   17   19 ar 
     5    4    7 ar 
     6    6    7 ar 
     7    9   11 2  
     8   10   12 1  
     9   16   18 ar 
    10   12   15 2  
    11    9   10 am 
    12   13   16 ar 
    13    7    9 1  
    14   12   14 2  
    15   12   13 1  
    16   18   19 ar 
    17    8   17 ar 
    18   13    8 ar 
    19    1    3 ar 
    20    1    2 ar 
    21    1   20 1  
    22    3   21 1  
    23    4   22 1  
    24    5   23 1  
    25    6   24 1  
    26    8   25 1  
    27   10   26 1  
    28   16   27 1  
    29   17   28 1  
    30   18   29 1  
    31   19   30 1  
# Name:          frag5-677-62/138278
# Creation time: Sat Jun  5 12:51:52 2010


@<TRIPOS>MOLECULE
frag5-677-62/138278
   30    31     1     1     1
SMALL
USER_CHARGES


@<TRIPOS>ATOM
      1 C9          0.3343    0.8558    1.2010 C.ar       1 <1>        0.000
      2 C12        -0.4624    0.6012    0.0830 C.ar       1 <1>        0.000
      3 C13         1.1869   -0.0366    1.8257 C.ar       1 <1>        0.000
      4 C15        -0.2134   -0.6696   -0.4372 C.ar       1 <1>        0.000
      5 O1         -1.3062    1.4798   -0.4488 O.3        1 <1>        0.000
      6 C16         1.2324   -1.3171    1.3119 C.ar       1 <1>        0.000
      7 C17         0.4748   -1.7173    0.1988 C.ar       1 <1>        0.000
      8 C26         2.3385   -2.5211   -2.8163 C.ar       1 <1>        0.000
      9 C20         0.3845   -3.1036   -0.3620 C.2        1 <1>        0.000
     10 N3          1.4626   -3.9490   -0.2919 N.am       1 <1>        0.000
     11 O4         -0.6004   -3.4675   -0.9902 O.2        1 <1>        0.000
     12 S1          3.0412   -3.7131   -0.3327 S.o2       1 <1>        0.000
     13 C25         3.1073   -2.5642   -1.6041 C.ar       1 <1>        0.000
     14 O5          3.3699   -3.1456    0.9422 O.2        1 <1>        0.000
     15 O6          3.6709   -4.9219   -0.7955 O.2        1 <1>        0.000
     16 C27         3.8271   -1.3962   -1.4604 C.ar       1 <1>        0.000
     17 C28         2.4811   -1.5630   -3.8347 C.ar       1 <1>        0.000
     18 C30         4.0821   -0.4564   -2.4481 C.ar       1 <1>        0.000
     19 C31         3.3802   -0.5353   -3.6299 C.ar       1 <1>        0.000
     20 H           0.2789    1.8588    1.6242 H.spc      1 <1>        0.000
     21 H           1.7935    0.2571    2.6823 H.spc      1 <1>        0.000
     22 H          -0.5914   -0.8703   -1.4397 H.spc      1 <1>        0.000
     23 H          -1.3099    2.2798    0.0818 H.spc      1 <1>        0.000
     24 H           1.8838   -2.0486    1.7902 H.spc      1 <1>        0.000
     25 H           1.5832   -3.2941   -2.9581 H.spc      1 <1>        0.000
     26 H           1.2021   -4.9303   -0.1935 H.spc      1 <1>        0.000
     27 H           4.2366   -1.1913   -0.4713 H.spc      1 <1>        0.000
     28 H           1.9013   -1.6290   -4.7554 H.spc      1 <1>        0.000
     29 H           4.8226    0.3281   -2.2920 H.spc      1 <1>        0.000
     30 H           3.5346    0.2150   -4.4054 H.spc      1 <1>        0.000
@<TRIPOS>BOND
     1    2    5 1  
     2    2    4 ar 
     3    3    6 ar 
     4   17   19 ar 
     5    4    7 ar 
     6    6    7 ar 
     7    9   11 2  
     8   10   12 1  
     9   16   18 ar 
    10   12   15 2  
    11    9   10 am 
    12   13   16 ar 
    13    7    9 1  
    14   12   14 2  
    15   12   13 1  
    16   18   19 ar 
    17    8   17 ar 
    18   13    8 ar 
    19    1    3 ar 
    20    1    2 ar 
    21    1   20 1  
    22    3   21 1  
    23    4   22 1  
    24    5   23 1  
    25    6   24 1  
    26    8   25 1  
    27   10   26 1  
    28   16   27 1  
    29   17   28 1  
    30   18   29 1  
    31   19   30 1  
# Name:          frag5-677-62/138278
# Creation time: Sat Jun  5 12:51:52 2010


@<TRIPOS>MOLECULE
frag5-677-62/138278
   30    31     1     1     1
SMALL
USER_CHARGES


@<TRIPOS>ATOM
      1 C9         -0.1793    0.5456    1.5073 C.ar       1 <1>        0.000
      2 C12        -0.1736    0.6701    0.1163 C.ar       1 <1>        0.000
      3 C13         0.0409   -0.6268    2.2313 C.ar       1 <1>        0.000
      4 C15         0.2077   -0.5338   -0.4974 C.ar       1 <1>        0.000
      5 O1         -0.4553    1.7960   -0.5315 O.3        1 <1>        0.000
      6 C16         0.3248   -1.7863    1.5318 C.ar       1 <1>        0.000
      7 C17         0.3210   -1.7895    0.1380 C.ar       1 <1>        0.000
      8 C26         2.9667   -2.7107   -2.9582 C.ar       1 <1>        0.000
      9 C20         0.4285   -3.0545   -0.6189 C.2        1 <1>        0.000
     10 N3          1.4803   -3.8904   -0.3992 N.am       1 <1>        0.000
     11 O4         -0.3344   -3.3077   -1.5388 O.2        1 <1>        0.000
     12 S1          3.0391   -3.5985   -0.2979 S.o2       1 <1>        0.000
     13 C25         3.2279   -2.4775   -1.5794 C.ar       1 <1>        0.000
     14 O5          3.1625   -2.9636    0.9890 O.2        1 <1>        0.000
     15 O6          3.7141   -4.8079   -0.6819 O.2        1 <1>        0.000
     16 C27         3.4458   -1.1241   -1.3501 C.ar       1 <1>        0.000
     17 C28         3.2066   -1.7905   -3.9900 C.ar       1 <1>        0.000
     18 C30         3.7549   -0.1747   -2.3157 C.ar       1 <1>        0.000
     19 C31         3.6131   -0.5162   -3.6438 C.ar       1 <1>        0.000
     20 H          -0.3744    1.4508    2.0824 H.spc      1 <1>        0.000
     21 H          -0.0095   -0.6291    3.3201 H.spc      1 <1>        0.000
     22 H           0.4373   -0.4954   -1.5622 H.spc      1 <1>        0.000
     23 H          -0.6890    2.4784    0.1020 H.spc      1 <1>        0.000
     24 H           0.5530   -2.7036    2.0745 H.spc      1 <1>        0.000
     25 H           2.5481   -3.6785   -3.2344 H.spc      1 <1>        0.000
     26 H           1.2244   -4.8705   -0.2792 H.spc      1 <1>        0.000
     27 H           3.3670   -0.7765   -0.3200 H.spc      1 <1>        0.000
     28 H           3.0760   -2.0729   -5.0347 H.spc      1 <1>        0.000
     29 H           4.1019    0.8183   -2.0298 H.spc      1 <1>        0.000
     30 H           3.8217    0.2192   -4.4208 H.spc      1 <1>        0.000
@<TRIPOS>BOND
     1    2    5 1  
     2    2    4 ar 
     3    3    6 ar 
     4   17   19 ar 
     5    4    7 ar 
     6    6    7 ar 
     7    9   11 2  
     8   10   12 1  
     9   16   18 ar 
    10   12   15 2  
    11    9   10 am 
    12   13   16 ar 
    13    7    9 1  
    14   12   14 2  
    15   12   13 1  
    16   18   19 ar 
    17    8   17 ar 
    18   13    8 ar 
    19    1    3 ar 
    20    1    2 ar 
    21    1   20 1  
    22    3   21 1  
    23    4   22 1  
    24    5   23 1  
    25    6   24 1  
    26    8   25 1  
    27   10   26 1  
    28   16   27 1  
    29   17   28 1  
    30   18   29 1  
    31   19   30 1  
# Name:          frag5-677-62/138278
# Creation time: Sat Jun  5 12:51:52 2010


@<TRIPOS>MOLECULE
frag5-677-62/138278
   30    31     1     1     1
SMALL
USER_CHARGES


@<TRIPOS>ATOM
      1 C9         -1.4078    0.3417    1.7425 C.ar       1 <1>        0.000
      2 C12        -0.2527    0.8679    1.1468 C.ar       1 <1>        0.000
      3 C13        -1.8609   -0.9823    1.6689 C.ar       1 <1>        0.000
      4 C15         0.4809   -0.1349    0.5332 C.ar       1 <1>        0.000
      5 O1          0.1286    2.1337    1.2266 O.3        1 <1>        0.000
      6 C16        -1.1291   -1.8840    0.9555 C.ar       1 <1>        0.000
      7 C17        -0.0080   -1.4206    0.3301 C.ar       1 <1>        0.000
      8 C26         3.2692   -3.0341   -3.2081 C.ar       1 <1>        0.000
      9 C20         0.7336   -2.3749   -0.4331 C.2        1 <1>        0.000
     10 N3          1.9547   -2.7200    0.0634 N.am       1 <1>        0.000
     11 O4          0.2935   -2.8318   -1.4554 O.2        1 <1>        0.000
     12 S1          3.0798   -3.6145   -0.5581 S.o2       1 <1>        0.000
     13 C25         3.5339   -2.6440   -1.8981 C.ar       1 <1>        0.000
     14 O5          4.1260   -3.6137    0.4222 O.2        1 <1>        0.000
     15 O6          2.4265   -4.8119   -1.0319 O.2        1 <1>        0.000
     16 C27         3.9820   -1.3033   -1.8580 C.ar       1 <1>        0.000
     17 C28         3.6832   -2.3730   -4.3525 C.ar       1 <1>        0.000
     18 C30         4.4657   -0.5967   -2.9635 C.ar       1 <1>        0.000
     19 C31         4.2922   -1.1444   -4.2197 C.ar       1 <1>        0.000
     20 H          -2.0167    1.0346    2.3233 H.spc      1 <1>        0.000
     21 H          -2.7795   -1.2847    2.1717 H.spc      1 <1>        0.000
     22 H           1.4905    0.0955    0.1931 H.spc      1 <1>        0.000
     23 H          -0.5400    2.6392    1.6947 H.spc      1 <1>        0.000
     24 H          -1.4265   -2.9304    0.8873 H.spc      1 <1>        0.000
     25 H           2.6827   -3.9425   -3.3456 H.spc      1 <1>        0.000
     26 H           2.1695   -2.3357    0.9835 H.spc      1 <1>        0.000
     27 H           3.9480   -0.7852   -0.8996 H.spc      1 <1>        0.000
     28 H           3.5305   -2.8152   -5.3370 H.spc      1 <1>        0.000
     29 H           4.9673    0.3627   -2.8371 H.spc      1 <1>        0.000
     30 H           4.6360   -0.6063   -5.1030 H.spc      1 <1>        0.000
@<TRIPOS>BOND
     1    2    5 1  
     2    2    4 ar 
     3    3    6 ar 
     4   17   19 ar 
     5    4    7 ar 
     6    6    7 ar 
     7    9   11 2  
     8   10   12 1  
     9   16   18 ar 
    10   12   15 2  
    11    9   10 am 
    12   13   16 ar 
    13    7    9 1  
    14   12   14 2  
    15   12   13 1  
    16   18   19 ar 
    17    8   17 ar 
    18   13    8 ar 
    19    1    3 ar 
    20    1    2 ar 
    21    1   20 1  
    22    3   21 1  
    23    4   22 1  
    24    5   23 1  
    25    6   24 1  
    26    8   25 1  
    27   10   26 1  
    28   16   27 1  
    29   17   28 1  
    30   18   29 1  
    31   19   30 1  
# Name:          frag5-677-62/138278
# Creation time: Sat Jun  5 12:51:52 2010


@<TRIPOS>MOLECULE
frag5-677-62/138278
   30    31     1     1     1
SMALL
USER_CHARGES


@<TRIPOS>ATOM
      1 C9         -1.6400    0.6183    1.4463 C.ar       1 <1>        0.000
      2 C12        -0.7059   -0.0270    2.2644 C.ar       1 <1>        0.000
      3 C13        -1.7685    0.4955    0.0585 C.ar       1 <1>        0.000
      4 C15         0.0638   -0.9096    1.5196 C.ar       1 <1>        0.000
      5 O1         -0.6247    0.1407    3.5733 O.3        1 <1>        0.000
      6 C16        -0.9113   -0.3198   -0.6101 C.ar       1 <1>        0.000
      7 C17        -0.0085   -1.0299    0.1262 C.ar       1 <1>        0.000
      8 C26         4.2857   -1.5220   -2.2909 C.ar       1 <1>        0.000
      9 C20         0.8619   -1.8905   -0.6046 C.2        1 <1>        0.000
     10 N3          2.0951   -2.0813   -0.0642 N.am       1 <1>        0.000
     11 O4          0.5085   -2.4655   -1.6123 O.2        1 <1>        0.000
     12 S1          3.1726   -3.1734   -0.3585 S.o2       1 <1>        0.000
     13 C25         3.6491   -2.7288   -1.9344 C.ar       1 <1>        0.000
     14 O5          4.2144   -2.8857    0.5906 O.2        1 <1>        0.000
     15 O6          2.4546   -4.4272   -0.4039 O.2        1 <1>        0.000
     16 C27         3.1882   -3.3904   -3.0770 C.ar       1 <1>        0.000
     17 C28         4.8253   -1.2655   -3.5508 C.ar       1 <1>        0.000
     18 C30         3.6437   -3.1724   -4.3674 C.ar       1 <1>        0.000
     19 C31         4.4874   -2.1063   -4.5937 C.ar       1 <1>        0.000
     20 H          -2.3422    1.2878    1.9431 H.spc      1 <1>        0.000
     21 H          -2.5430    1.0444   -0.4772 H.spc      1 <1>        0.000
     22 H           0.7682   -1.5487    2.0521 H.spc      1 <1>        0.000
     23 H          -1.2598    0.8054    3.8496 H.spc      1 <1>        0.000
     24 H          -0.9438   -0.4035   -1.6964 H.spc      1 <1>        0.000
     25 H           4.3606   -0.7409   -1.5343 H.spc      1 <1>        0.000
     26 H           2.3593   -1.4013    0.6487 H.spc      1 <1>        0.000
     27 H           2.4071   -4.1384   -2.9415 H.spc      1 <1>        0.000
     28 H           5.4974   -0.4221   -3.7090 H.spc      1 <1>        0.000
     29 H           3.3420   -3.8284   -5.1840 H.spc      1 <1>        0.000
     30 H           4.8867   -1.9271   -5.5920 H.spc      1 <1>        0.000
@<TRIPOS>BOND
     1    2    5 1  
     2    2    4 ar 
     3    3    6 ar 
     4   17   19 ar 
     5    4    7 ar 
     6    6    7 ar 
     7    9   11 2  
     8   10   12 1  
     9   16   18 ar 
    10   12   15 2  
    11    9   10 am 
    12   13   16 ar 
    13    7    9 1  
    14   12   14 2  
    15   12   13 1  
    16   18   19 ar 
    17    8   17 ar 
    18   13    8 ar 
    19    1    3 ar 
    20    1    2 ar 
    21    1   20 1  
    22    3   21 1  
    23    4   22 1  
    24    5   23 1  
    25    6   24 1  
    26    8   25 1  
    27   10   26 1  
    28   16   27 1  
    29   17   28 1  
    30   18   29 1  
    31   19   30 1  
# Name:          frag5-677-62/138278
# Creation time: Sat Jun  5 12:51:52 2010


@<TRIPOS>MOLECULE
frag5-677-62/138278
   30    31     1     1     1
SMALL
USER_CHARGES


@<TRIPOS>ATOM
      1 C9         -1.0703    0.3481   -0.2678 C.ar       1 <1>        0.000
      2 C12        -0.2345    0.4600    0.8448 C.ar       1 <1>        0.000
      3 C13        -1.1507   -0.7435   -1.1352 C.ar       1 <1>        0.000
      4 C15         0.4544   -0.7474    1.0656 C.ar       1 <1>        0.000
      5 O1         -0.1315    1.5392    1.6163 O.3        1 <1>        0.000
      6 C16        -0.3353   -1.8398   -0.8942 C.ar       1 <1>        0.000
      7 C17         0.4440   -1.9148    0.2556 C.ar       1 <1>        0.000
      8 C26         3.0969   -3.2986   -2.4960 C.ar       1 <1>        0.000
      9 C20         1.1710   -3.1788    0.5892 C.2        1 <1>        0.000
     10 N3          2.5320   -3.2445    0.5083 N.am       1 <1>        0.000
     11 O4          0.5401   -4.1770    0.9066 O.2        1 <1>        0.000
     12 S1          3.6731   -2.2459    0.0313 S.o2       1 <1>        0.000
     13 C25         3.2954   -2.1907   -1.6292 C.ar       1 <1>        0.000
     14 O5          3.3466   -1.0021    0.6868 O.2        1 <1>        0.000
     15 O6          4.9429   -2.8832    0.1986 O.2        1 <1>        0.000
     16 C27         2.9139   -1.0174   -2.2514 C.ar       1 <1>        0.000
     17 C28         2.8617   -3.2099   -3.8758 C.ar       1 <1>        0.000
     18 C30         2.7452   -0.8402   -3.6162 C.ar       1 <1>        0.000
     19 C31         2.6965   -1.9544   -4.4263 C.ar       1 <1>        0.000
     20 H          -1.7233    1.1946   -0.4800 H.spc      1 <1>        0.000
     21 H          -1.8377   -0.7344   -1.9814 H.spc      1 <1>        0.000
     22 H           1.0689   -0.7922    1.9648 H.spc      1 <1>        0.000
     23 H          -0.6930    2.2353    1.2675 H.spc      1 <1>        0.000
     24 H          -0.3049   -2.6550   -1.6171 H.spc      1 <1>        0.000
     25 H           3.1299   -4.2947   -2.0546 H.spc      1 <1>        0.000
     26 H           2.9017   -4.1401    0.8272 H.spc      1 <1>        0.000
     27 H           2.7291   -0.1540   -1.6122 H.spc      1 <1>        0.000
     28 H           2.8108   -4.1054   -4.4952 H.spc      1 <1>        0.000
     29 H           2.6530    0.1598   -4.0399 H.spc      1 <1>        0.000
     30 H           2.5282   -1.8448   -5.4976 H.spc      1 <1>        0.000
@<TRIPOS>BOND
     1    2    5 1  
     2    2    4 ar 
     3    3    6 ar 
     4   17   19 ar 
     5    4    7 ar 
     6    6    7 ar 
     7    9   11 2  
     8   10   12 1  
     9   16   18 ar 
    10   12   15 2  
    11    9   10 am 
    12   13   16 ar 
    13    7    9 1  
    14   12   14 2  
    15   12   13 1  
    16   18   19 ar 
    17    8   17 ar 
    18   13    8 ar 
    19    1    3 ar 
    20    1    2 ar 
    21    1   20 1  
    22    3   21 1  
    23    4   22 1  
    24    5   23 1  
    25    6   24 1  
    26    8   25 1  
    27   10   26 1  
    28   16   27 1  
    29   17   28 1  
    30   18   29 1  
    31   19   30 1  
# Name:          frag5-677-62/138278
# Creation time: Sat Jun  5 12:51:52 2010


@<TRIPOS>MOLECULE
frag5-677-62/138278
   30    31     1     1     1
SMALL
USER_CHARGES


@<TRIPOS>ATOM
      1 C9         -2.2463   -1.1327    1.4855 C.ar       1 <1>        0.000
      2 C12        -1.5863    0.0399    1.1278 C.ar       1 <1>        0.000
      3 C13        -1.6837   -2.4100    1.5729 C.ar       1 <1>        0.000
      4 C15        -0.2090   -0.1972    0.9608 C.ar       1 <1>        0.000
      5 O1         -2.1726    1.2318    1.0059 O.3        1 <1>        0.000
      6 C16        -0.3304   -2.5520    1.2907 C.ar       1 <1>        0.000
      7 C17         0.4604   -1.4364    1.0519 C.ar       1 <1>        0.000
      8 C26         4.5789   -2.9640   -2.0139 C.ar       1 <1>        0.000
      9 C20         1.9327   -1.5187    0.9685 C.2        1 <1>        0.000
     10 N3          2.5079   -1.6780   -0.2313 N.am       1 <1>        0.000
     11 O4          2.6468   -1.4944    1.9604 O.2        1 <1>        0.000
     12 S1          1.9706   -2.0030   -1.6906 S.o2       1 <1>        0.000
     13 C25         3.4235   -2.3186   -2.5100 C.ar       1 <1>        0.000
     14 O5          1.2089   -3.2029   -1.5806 O.2        1 <1>        0.000
     15 O6          1.4030   -0.7622   -2.1660 O.2        1 <1>        0.000
     16 C27         3.6684   -1.7183   -3.7192 C.ar       1 <1>        0.000
     17 C28         5.6997   -3.2840   -2.7900 C.ar       1 <1>        0.000
     18 C30         4.7531   -1.9679   -4.5415 C.ar       1 <1>        0.000
     19 C31         5.7658   -2.7725   -4.0706 C.ar       1 <1>        0.000
     20 H          -3.3071   -1.0465    1.7208 H.spc      1 <1>        0.000
     21 H          -2.2901   -3.2708    1.8547 H.spc      1 <1>        0.000
     22 H           0.4089    0.6722    0.7363 H.spc      1 <1>        0.000
     23 H          -3.1150    1.1413    1.1649 H.spc      1 <1>        0.000
     24 H           0.1135   -3.5469    1.2566 H.spc      1 <1>        0.000
     25 H           4.5989   -3.2303   -0.9571 H.spc      1 <1>        0.000
     26 H           3.5211   -1.5649   -0.2006 H.spc      1 <1>        0.000
     27 H           2.9444   -0.9793   -4.0626 H.spc      1 <1>        0.000
     28 H           6.4947   -3.9168   -2.3955 H.spc      1 <1>        0.000
     29 H           4.8045   -1.5364   -5.5411 H.spc      1 <1>        0.000
     30 H           6.6188   -3.0055   -4.7079 H.spc      1 <1>        0.000
@<TRIPOS>BOND
     1    2    5 1  
     2    2    4 ar 
     3    3    6 ar 
     4   17   19 ar 
     5    4    7 ar 
     6    6    7 ar 
     7    9   11 2  
     8   10   12 1  
     9   16   18 ar 
    10   12   15 2  
    11    9   10 am 
    12   13   16 ar 
    13    7    9 1  
    14   12   14 2  
    15   12   13 1  
    16   18   19 ar 
    17    8   17 ar 
    18   13    8 ar 
    19    1    3 ar 
    20    1    2 ar 
    21    1   20 1  
    22    3   21 1  
    23    4   22 1  
    24    5   23 1  
    25    6   24 1  
    26    8   25 1  
    27   10   26 1  
    28   16   27 1  
    29   17   28 1  
    30   18   29 1  
    31   19   30 1  
# Name:          frag5-677-62/138278
# Creation time: Sat Jun  5 12:51:52 2010


@<TRIPOS>MOLECULE
frag5-677-62/138278
   30    31     1     1     1
SMALL
USER_CHARGES


@<TRIPOS>ATOM
      1 C9         -1.9616   -0.1696    1.5786 C.ar       1 <1>        0.000
      2 C12        -1.0991    0.7345    0.9451 C.ar       1 <1>        0.000
      3 C13        -1.7775   -1.5486    1.7229 C.ar       1 <1>        0.000
      4 C15         0.0641    0.1043    0.5441 C.ar       1 <1>        0.000
      5 O1         -1.3245    2.0265    0.7973 O.3        1 <1>        0.000
      6 C16        -0.6503   -2.1128    1.1907 C.ar       1 <1>        0.000
      7 C17         0.2865   -1.2571    0.6415 C.ar       1 <1>        0.000
      8 C26         4.7099   -2.4848   -1.8946 C.ar       1 <1>        0.000
      9 C20         1.4958   -1.7505    0.0988 C.2        1 <1>        0.000
     10 N3          1.3709   -2.8293   -0.7249 N.am       1 <1>        0.000
     11 O4          2.5741   -1.2710    0.3882 O.2        1 <1>        0.000
     12 S1          2.4842   -3.8287   -1.1970 S.o2       1 <1>        0.000
     13 C25         3.3884   -2.7832   -2.1829 C.ar       1 <1>        0.000
     14 O5          3.1792   -4.1752    0.0199 O.2        1 <1>        0.000
     15 O6          1.8275   -4.8070   -2.0291 O.2        1 <1>        0.000
     16 C27         2.8931   -1.9173   -3.1989 C.ar       1 <1>        0.000
     17 C28         5.5771   -1.8030   -2.7302 C.ar       1 <1>        0.000
     18 C30         3.6968   -1.1480   -4.0489 C.ar       1 <1>        0.000
     19 C31         5.0566   -1.1201   -3.8099 C.ar       1 <1>        0.000
     20 H          -2.8744    0.2464    2.0050 H.spc      1 <1>        0.000
     21 H          -2.5137   -2.1586    2.2463 H.spc      1 <1>        0.000
     22 H           0.8583    0.7211    0.1234 H.spc      1 <1>        0.000
     23 H          -2.1929    2.2406    1.1461 H.spc      1 <1>        0.000
     24 H          -0.4973   -3.1920    1.1994 H.spc      1 <1>        0.000
     25 H           5.0985   -2.8139   -0.9309 H.spc      1 <1>        0.000
     26 H           0.4321   -3.0102   -1.0803 H.spc      1 <1>        0.000
     27 H           1.8125   -1.8485   -3.3237 H.spc      1 <1>        0.000
     28 H           6.6502   -1.8055   -2.5390 H.spc      1 <1>        0.000
     29 H           3.2615   -0.5870   -4.8759 H.spc      1 <1>        0.000
     30 H           5.7167   -0.5602   -4.4724 H.spc      1 <1>        0.000
@<TRIPOS>BOND
     1    2    5 1  
     2    2    4 ar 
     3    3    6 ar 
     4   17   19 ar 
     5    4    7 ar 
     6    6    7 ar 
     7    9   11 2  
     8   10   12 1  
     9   16   18 ar 
    10   12   15 2  
    11    9   10 am 
    12   13   16 ar 
    13    7    9 1  
    14   12   14 2  
    15   12   13 1  
    16   18   19 ar 
    17    8   17 ar 
    18   13    8 ar 
    19    1    3 ar 
    20    1    2 ar 
    21    1   20 1  
    22    3   21 1  
    23    4   22 1  
    24    5   23 1  
    25    6   24 1  
    26    8   25 1  
    27   10   26 1  
    28   16   27 1  
    29   17   28 1  
    30   18   29 1  
    31   19   30 1  
# Name:          frag5-677-62/138278
# Creation time: Sat Jun  5 12:51:52 2010


@<TRIPOS>MOLECULE
frag5-677-62/138278
   30    31     1     1     1
SMALL
USER_CHARGES


@<TRIPOS>ATOM
      1 C9         -2.2564   -0.9518    1.1683 C.ar       1 <1>        0.000
      2 C12        -1.4867    0.1867    0.9371 C.ar       1 <1>        0.000
      3 C13        -1.7927   -2.2684    1.2332 C.ar       1 <1>        0.000
      4 C15        -0.1188   -0.1387    0.9065 C.ar       1 <1>        0.000
      5 O1         -1.9804    1.4147    0.8033 O.3        1 <1>        0.000
      6 C16        -0.4269   -2.4943    1.0758 C.ar       1 <1>        0.000
      7 C17         0.4585   -1.4186    0.9974 C.ar       1 <1>        0.000
      8 C26         4.5291   -3.2162   -2.5120 C.ar       1 <1>        0.000
      9 C20         1.9374   -1.5601    1.0133 C.2        1 <1>        0.000
     10 N3          2.5526   -2.1340   -0.0353 N.am       1 <1>        0.000
     11 O4          2.6003   -1.1696    1.9606 O.2        1 <1>        0.000
     12 S1          2.0861   -2.7781   -1.4118 S.o2       1 <1>        0.000
     13 C25         3.4058   -2.4147   -2.4172 C.ar       1 <1>        0.000
     14 O5          2.0255   -4.1745   -1.1118 O.2        1 <1>        0.000
     15 O6          0.9568   -2.0151   -1.8756 O.2        1 <1>        0.000
     16 C27         3.6225   -1.1659   -2.9992 C.ar       1 <1>        0.000
     17 C28         5.5159   -3.0609   -3.4802 C.ar       1 <1>        0.000
     18 C30         4.6105   -0.9014   -3.9478 C.ar       1 <1>        0.000
     19 C31         5.5521   -1.8800   -4.1939 C.ar       1 <1>        0.000
     20 H          -3.3261   -0.8003    1.3128 H.spc      1 <1>        0.000
     21 H          -2.4810   -3.0964    1.4024 H.spc      1 <1>        0.000
     22 H           0.5735    0.6964    0.8002 H.spc      1 <1>        0.000
     23 H          -2.9382    1.3811    0.8588 H.spc      1 <1>        0.000
     24 H          -0.0487   -3.5147    1.0137 H.spc      1 <1>        0.000
     25 H           4.6484   -4.0184   -1.7837 H.spc      1 <1>        0.000
     26 H           3.5656   -2.1633    0.0805 H.spc      1 <1>        0.000
     27 H           2.9774   -0.3425   -2.6927 H.spc      1 <1>        0.000
     28 H           6.2418   -3.8514   -3.6703 H.spc      1 <1>        0.000
     29 H           4.6380    0.0500   -4.4790 H.spc      1 <1>        0.000
     30 H           6.3217   -1.7209   -4.9492 H.spc      1 <1>        0.000
@<TRIPOS>BOND
     1    2    5 1  
     2    2    4 ar 
     3    3    6 ar 
     4   17   19 ar 
     5    4    7 ar 
     6    6    7 ar 
     7    9   11 2  
     8   10   12 1  
     9   16   18 ar 
    10   12   15 2  
    11    9   10 am 
    12   13   16 ar 
    13    7    9 1  
    14   12   14 2  
    15   12   13 1  
    16   18   19 ar 
    17    8   17 ar 
    18   13    8 ar 
    19    1    3 ar 
    20    1    2 ar 
    21    1   20 1  
    22    3   21 1  
    23    4   22 1  
    24    5   23 1  
    25    6   24 1  
    26    8   25 1  
    27   10   26 1  
    28   16   27 1  
    29   17   28 1  
    30   18   29 1  
    31   19   30 1  
# Name:          frag5-677-62/138278
# Creation time: Sat Jun  5 12:51:52 2010


@<TRIPOS>MOLECULE
frag5-677-62/138278
   30    31     1     1     1
SMALL
USER_CHARGES


@<TRIPOS>ATOM
      1 C9         -1.5002   -0.2949    2.4586 C.ar       1 <1>        0.000
      2 C12        -1.2022    0.6592    1.4764 C.ar       1 <1>        0.000
      3 C13        -1.0762   -1.6300    2.4912 C.ar       1 <1>        0.000
      4 C15        -0.3244    0.1439    0.5485 C.ar       1 <1>        0.000
      5 O1         -1.6363    1.9052    1.4602 O.3        1 <1>        0.000
      6 C16        -0.2694   -2.0786    1.4771 C.ar       1 <1>        0.000
      7 C17         0.0571   -1.1782    0.4765 C.ar       1 <1>        0.000
      8 C26         3.1997   -2.2401   -3.4047 C.ar       1 <1>        0.000
      9 C20         0.9073   -1.5208   -0.6295 C.2        1 <1>        0.000
     10 N3          1.9434   -2.3424   -0.3145 N.am       1 <1>        0.000
     11 O4          0.6391   -1.2255   -1.7714 O.2        1 <1>        0.000
     12 S1          2.5412   -3.5643   -1.0894 S.o2       1 <1>        0.000
     13 C25         3.5934   -2.7837   -2.1719 C.ar       1 <1>        0.000
     14 O5          3.2802   -4.2697   -0.0704 O.2        1 <1>        0.000
     15 O6          1.4665   -4.1662   -1.8397 O.2        1 <1>        0.000
     16 C27         4.8987   -2.3999   -1.8519 C.ar       1 <1>        0.000
     17 C28         4.0582   -1.6940   -4.3507 C.ar       1 <1>        0.000
     18 C30         5.8272   -1.9171   -2.7645 C.ar       1 <1>        0.000
     19 C31         5.3882   -1.5440   -4.0189 C.ar       1 <1>        0.000
     20 H          -2.1286    0.0369    3.2851 H.spc      1 <1>        0.000
     21 H          -1.3794   -2.2940    3.3007 H.spc      1 <1>        0.000
     22 H           0.0996    0.8324   -0.1825 H.spc      1 <1>        0.000
     23 H          -2.2362    2.0435    2.1968 H.spc      1 <1>        0.000
     24 H           0.1005   -3.1038    1.4592 H.spc      1 <1>        0.000
     25 H           2.1351   -2.2470   -3.6386 H.spc      1 <1>        0.000
     26 H           2.4059   -2.1283    0.5691 H.spc      1 <1>        0.000
     27 H           5.2102   -2.4858   -0.8109 H.spc      1 <1>        0.000
     28 H           3.6896   -1.3916   -5.3309 H.spc      1 <1>        0.000
     29 H           6.8804   -1.8345   -2.4961 H.spc      1 <1>        0.000
     30 H           6.0901   -1.1325   -4.7443 H.spc      1 <1>        0.000
@<TRIPOS>BOND
     1    2    5 1  
     2    2    4 ar 
     3    3    6 ar 
     4   17   19 ar 
     5    4    7 ar 
     6    6    7 ar 
     7    9   11 2  
     8   10   12 1  
     9   16   18 ar 
    10   12   15 2  
    11    9   10 am 
    12   13   16 ar 
    13    7    9 1  
    14   12   14 2  
    15   12   13 1  
    16   18   19 ar 
    17    8   17 ar 
    18   13    8 ar 
    19    1    3 ar 
    20    1    2 ar 
    21    1   20 1  
    22    3   21 1  
    23    4   22 1  
    24    5   23 1  
    25    6   24 1  
    26    8   25 1  
    27   10   26 1  
    28   16   27 1  
    29   17   28 1  
    30   18   29 1  
    31   19   30 1  
# Name:          frag5-677-62/138278
# Creation time: Sat Jun  5 12:51:52 2010


@<TRIPOS>MOLECULE
frag5-677-62/138278
   30    31     1     1     1
SMALL
USER_CHARGES


@<TRIPOS>ATOM
      1 C9         -2.2440   -0.6168    1.0203 C.ar       1 <1>        0.000
      2 C12        -1.5901   -1.3786    1.9912 C.ar       1 <1>        0.000
      3 C13        -1.6489    0.0339   -0.0609 C.ar       1 <1>        0.000
      4 C15        -0.2225   -1.5155    1.6824 C.ar       1 <1>        0.000
      5 O1         -2.1903   -1.9407    3.0346 O.3        1 <1>        0.000
      6 C16        -0.2740   -0.0725   -0.2133 C.ar       1 <1>        0.000
      7 C17         0.4902   -0.7867    0.7076 C.ar       1 <1>        0.000
      8 C26         3.3441   -1.7042   -3.4999 C.ar       1 <1>        0.000
      9 C20         1.9785   -0.7846    0.6799 C.2        1 <1>        0.000
     10 N3          2.6282   -1.5558   -0.2197 N.am       1 <1>        0.000
     11 O4          2.6338   -0.1417    1.4730 O.2        1 <1>        0.000
     12 S1          2.1876   -2.6797   -1.2512 S.o2       1 <1>        0.000
     13 C25         3.4167   -2.5664   -2.4090 C.ar       1 <1>        0.000
     14 O5          2.2975   -3.8839   -0.4906 O.2        1 <1>        0.000
     15 O6          0.9596   -2.2146   -1.8623 O.2        1 <1>        0.000
     16 C27         4.6919   -3.0991   -2.2507 C.ar       1 <1>        0.000
     17 C28         4.2676   -1.6682   -4.5410 C.ar       1 <1>        0.000
     18 C30         5.6428   -3.1550   -3.2686 C.ar       1 <1>        0.000
     19 C31         5.4227   -2.4107   -4.4109 C.ar       1 <1>        0.000
     20 H          -3.3255   -0.5212    1.1167 H.spc      1 <1>        0.000
     21 H          -2.2476    0.6100   -0.7664 H.spc      1 <1>        0.000
     22 H           0.3391   -2.2561    2.2517 H.spc      1 <1>        0.000
     23 H          -3.1204   -1.7030    3.0336 H.spc      1 <1>        0.000
     24 H           0.2134    0.4074   -1.0620 H.spc      1 <1>        0.000
     25 H           2.5057   -1.0089   -3.5417 H.spc      1 <1>        0.000
     26 H           3.6317   -1.3743   -0.2410 H.spc      1 <1>        0.000
     27 H           4.9638   -3.4964   -1.2728 H.spc      1 <1>        0.000
     28 H           4.0831   -1.0703   -5.4335 H.spc      1 <1>        0.000
     29 H           6.5367   -3.7701   -3.1656 H.spc      1 <1>        0.000
     30 H           6.1630   -2.4100   -5.2109 H.spc      1 <1>        0.000
@<TRIPOS>BOND
     1    2    5 1  
     2    2    4 ar 
     3    3    6 ar 
     4   17   19 ar 
     5    4    7 ar 
     6    6    7 ar 
     7    9   11 2  
     8   10   12 1  
     9   16   18 ar 
    10   12   15 2  
    11    9   10 am 
    12   13   16 ar 
    13    7    9 1  
    14   12   14 2  
    15   12   13 1  
    16   18   19 ar 
    17    8   17 ar 
    18   13    8 ar 
    19    1    3 ar 
    20    1    2 ar 
    21    1   20 1  
    22    3   21 1  
    23    4   22 1  
    24    5   23 1  
    25    6   24 1  
    26    8   25 1  
    27   10   26 1  
    28   16   27 1  
    29   17   28 1  
    30   18   29 1  
    31   19   30 1  
# Name:          frag5-677-62/138278
# Creation time: Sat Jun  5 12:51:52 2010


@<TRIPOS>MOLECULE
frag5-677-62/138278
   30    31     1     1     1
SMALL
USER_CHARGES


@<TRIPOS>ATOM
      1 C9         -0.8236    0.9263    0.4734 C.ar       1 <1>        0.000
      2 C12        -0.5742    0.2108    1.6425 C.ar       1 <1>        0.000
      3 C13        -0.4998    0.5316   -0.8285 C.ar       1 <1>        0.000
      4 C15        -0.0269   -1.0455    1.3483 C.ar       1 <1>        0.000
      5 O1         -0.8597    0.6404    2.8703 O.3        1 <1>        0.000
      6 C16         0.1264   -0.6976   -1.0075 C.ar       1 <1>        0.000
      7 C17         0.3119   -1.5546    0.0755 C.ar       1 <1>        0.000
      8 C26         2.6892   -3.3692   -2.6214 C.ar       1 <1>        0.000
      9 C20         0.7795   -2.9488   -0.0297 C.2        1 <1>        0.000
     10 N3          2.0620   -3.2630    0.3107 N.am       1 <1>        0.000
     11 O4          0.0683   -3.8071   -0.5281 O.2        1 <1>        0.000
     12 S1          3.4341   -2.5203   -0.0032 S.o2       1 <1>        0.000
     13 C25         3.3526   -2.4825   -1.7120 C.ar       1 <1>        0.000
     14 O5          3.2667   -1.2016    0.5523 O.2        1 <1>        0.000
     15 O6          4.5112   -3.3910    0.3671 O.2        1 <1>        0.000
     16 C27         3.9007   -1.4225   -2.4018 C.ar       1 <1>        0.000
     17 C28         2.6882   -3.2578   -4.0263 C.ar       1 <1>        0.000
     18 C30         4.0101   -1.2869   -3.7807 C.ar       1 <1>        0.000
     19 C31         3.3748   -2.2016   -4.5902 C.ar       1 <1>        0.000
     20 H          -1.3207    1.8899    0.5846 H.spc      1 <1>        0.000
     21 H          -0.7320    1.1704   -1.6807 H.spc      1 <1>        0.000
     22 H           0.1580   -1.7035    2.1974 H.spc      1 <1>        0.000
     23 H          -1.2237    1.5274    2.8212 H.spc      1 <1>        0.000
     24 H           0.4731   -0.9914   -1.9982 H.spc      1 <1>        0.000
     25 H           2.1368   -4.2032   -2.1885 H.spc      1 <1>        0.000
     26 H           2.1581   -4.1179    0.8587 H.spc      1 <1>        0.000
     27 H           4.2908   -0.6013   -1.8005 H.spc      1 <1>        0.000
     28 H           2.1621   -3.9825   -4.6476 H.spc      1 <1>        0.000
     29 H           4.5886   -0.4708   -4.2136 H.spc      1 <1>        0.000
     30 H           3.4140   -2.0919   -5.6740 H.spc      1 <1>        0.000
@<TRIPOS>BOND
     1    2    5 1  
     2    2    4 ar 
     3    3    6 ar 
     4   17   19 ar 
     5    4    7 ar 
     6    6    7 ar 
     7    9   11 2  
     8   10   12 1  
     9   16   18 ar 
    10   12   15 2  
    11    9   10 am 
    12   13   16 ar 
    13    7    9 1  
    14   12   14 2  
    15   12   13 1  
    16   18   19 ar 
    17    8   17 ar 
    18   13    8 ar 
    19    1    3 ar 
    20    1    2 ar 
    21    1   20 1  
    22    3   21 1  
    23    4   22 1  
    24    5   23 1  
    25    6   24 1  
    26    8   25 1  
    27   10   26 1  
    28   16   27 1  
    29   17   28 1  
    30   18   29 1  
    31   19   30 1  
# Name:          frag5-677-62/138278
# Creation time: Sat Jun  5 12:51:52 2010


@<TRIPOS>MOLECULE
frag5-677-62/138278
   30    31     1     1     1
SMALL
USER_CHARGES


@<TRIPOS>ATOM
      1 C9         -1.2760   -0.0074    2.3754 C.ar       1 <1>        0.000
      2 C12        -0.9735    0.8036    1.2765 C.ar       1 <1>        0.000
      3 C13        -0.9286   -1.3542    2.5544 C.ar       1 <1>        0.000
      4 C15        -0.1613    0.1288    0.3885 C.ar       1 <1>        0.000
      5 O1         -1.3507    2.0602    1.1219 O.3        1 <1>        0.000
      6 C16        -0.2055   -1.9692    1.5739 C.ar       1 <1>        0.000
      7 C17         0.1029   -1.2208    0.4600 C.ar       1 <1>        0.000
      8 C26         3.7858   -3.1549   -3.3444 C.ar       1 <1>        0.000
      9 C20         0.8556   -1.7835   -0.6152 C.2        1 <1>        0.000
     10 N3          1.7769   -2.7080   -0.2357 N.am       1 <1>        0.000
     11 O4          0.6625   -1.4903   -1.7734 O.2        1 <1>        0.000
     12 S1          2.5286   -3.7784   -1.0714 S.o2       1 <1>        0.000
     13 C25         3.5147   -2.7764   -2.0466 C.ar       1 <1>        0.000
     14 O5          3.3439   -4.4944   -0.1267 O.2        1 <1>        0.000
     15 O6          1.5261   -4.4187   -1.8888 O.2        1 <1>        0.000
     16 C27         4.0085   -1.4675   -1.7839 C.ar       1 <1>        0.000
     17 C28         4.5873   -2.4855   -4.2442 C.ar       1 <1>        0.000
     18 C30         4.8614   -0.7493   -2.6310 C.ar       1 <1>        0.000
     19 C31         5.1327   -1.2750   -3.8783 C.ar       1 <1>        0.000
     20 H          -1.8439    0.4585    3.1807 H.spc      1 <1>        0.000
     21 H          -1.2279   -1.8951    3.4522 H.spc      1 <1>        0.000
     22 H           0.2992    0.6985   -0.4186 H.spc      1 <1>        0.000
     23 H          -1.9102    2.3181    1.8581 H.spc      1 <1>        0.000
     24 H           0.1138   -3.0071    1.6684 H.spc      1 <1>        0.000
     25 H           3.3195   -4.0760   -3.6940 H.spc      1 <1>        0.000
     26 H           2.0118   -2.6965    0.7568 H.spc      1 <1>        0.000
     27 H           3.6999   -0.9888   -0.8545 H.spc      1 <1>        0.000
     28 H           4.7862   -2.9074   -5.2294 H.spc      1 <1>        0.000
     29 H           5.2986    0.1977   -2.3146 H.spc      1 <1>        0.000
     30 H           5.7766   -0.7337   -4.5714 H.spc      1 <1>        0.000
@<TRIPOS>BOND
     1    2    5 1  
     2    2    4 ar 
     3    3    6 ar 
     4   17   19 ar 
     5    4    7 ar 
     6    6    7 ar 
     7    9   11 2  
     8   10   12 1  
     9   16   18 ar 
    10   12   15 2  
    11    9   10 am 
    12   13   16 ar 
    13    7    9 1  
    14   12   14 2  
    15   12   13 1  
    16   18   19 ar 
    17    8   17 ar 
    18   13    8 ar 
    19    1    3 ar 
    20    1    2 ar 
    21    1   20 1  
    22    3   21 1  
    23    4   22 1  
    24    5   23 1  
    25    6   24 1  
    26    8   25 1  
    27   10   26 1  
    28   16   27 1  
    29   17   28 1  
    30   18   29 1  
    31   19   30 1  
# Name:          frag5-677-62/138278
# Creation time: Sat Jun  5 12:51:52 2010


@<TRIPOS>MOLECULE
frag5-677-62/138278
   30    31     1     1     1
SMALL
USER_CHARGES


@<TRIPOS>ATOM
      1 C9         -1.6819    0.6564    0.8495 C.ar       1 <1>        0.000
      2 C12        -1.5521   -0.4475    1.7023 C.ar       1 <1>        0.000
      3 C13        -0.7974    1.0413   -0.1675 C.ar       1 <1>        0.000
      4 C15        -0.4613   -1.2174    1.3467 C.ar       1 <1>        0.000
      5 O1         -2.4017   -0.7506    2.6748 O.3        1 <1>        0.000
      6 C16         0.3174    0.2819   -0.3812 C.ar       1 <1>        0.000
      7 C17         0.5067   -0.7862    0.4502 C.ar       1 <1>        0.000
      8 C26         2.6465   -2.2759   -3.1862 C.ar       1 <1>        0.000
      9 C20         1.6718   -1.5828    0.2654 C.2        1 <1>        0.000
     10 N3          1.5115   -2.7585   -0.3848 N.am       1 <1>        0.000
     11 O4          2.7575   -1.1674    0.6410 O.2        1 <1>        0.000
     12 S1          2.6020   -3.8044   -0.8316 S.o2       1 <1>        0.000
     13 C25         3.3214   -2.9045   -2.1046 C.ar       1 <1>        0.000
     14 O5          3.4929   -3.9145    0.3023 O.2        1 <1>        0.000
     15 O6          1.9214   -4.9202   -1.4040 O.2        1 <1>        0.000
     16 C27         4.6554   -2.5411   -2.0797 C.ar       1 <1>        0.000
     17 C28         3.2775   -1.6156   -4.2502 C.ar       1 <1>        0.000
     18 C30         5.3539   -1.9603   -3.1257 C.ar       1 <1>        0.000
     19 C31         4.6501   -1.4735   -4.2060 C.ar       1 <1>        0.000
     20 H          -2.5633    1.2817    0.9918 H.spc      1 <1>        0.000
     21 H          -0.9947    1.9257   -0.7734 H.spc      1 <1>        0.000
     22 H          -0.3562   -2.2076    1.7900 H.spc      1 <1>        0.000
     23 H          -3.0746   -0.0685    2.7345 H.spc      1 <1>        0.000
     24 H           1.0234    0.5167   -1.1778 H.spc      1 <1>        0.000
     25 H           1.5570   -2.3097   -3.1887 H.spc      1 <1>        0.000
     26 H           0.5490   -3.0021   -0.6187 H.spc      1 <1>        0.000
     27 H           5.2050   -2.7278   -1.1571 H.spc      1 <1>        0.000
     28 H           2.7005   -1.2255   -5.0887 H.spc      1 <1>        0.000
     29 H           6.4412   -1.8896   -3.0948 H.spc      1 <1>        0.000
     30 H           5.1752   -0.9781   -5.0226 H.spc      1 <1>        0.000
@<TRIPOS>BOND
     1    2    5 1  
     2    2    4 ar 
     3    3    6 ar 
     4   17   19 ar 
     5    4    7 ar 
     6    6    7 ar 
     7    9   11 2  
     8   10   12 1  
     9   16   18 ar 
    10   12   15 2  
    11    9   10 am 
    12   13   16 ar 
    13    7    9 1  
    14   12   14 2  
    15   12   13 1  
    16   18   19 ar 
    17    8   17 ar 
    18   13    8 ar 
    19    1    3 ar 
    20    1    2 ar 
    21    1   20 1  
    22    3   21 1  
    23    4   22 1  
    24    5   23 1  
    25    6   24 1  
    26    8   25 1  
    27   10   26 1  
    28   16   27 1  
    29   17   28 1  
    30   18   29 1  
    31   19   30 1  
# Name:          frag5-677-62/138278
# Creation time: Sat Jun  5 12:51:52 2010


@<TRIPOS>MOLECULE
frag5-677-62/138278
   30    31     1     1     1
SMALL
USER_CHARGES


@<TRIPOS>ATOM
      1 C9         -1.0855   -0.0303    2.3391 C.ar       1 <1>        0.000
      2 C12        -1.3139    0.2999    0.9995 C.ar       1 <1>        0.000
      3 C13        -0.3755   -1.1393    2.8074 C.ar       1 <1>        0.000
      4 C15        -0.6422   -0.5958    0.1478 C.ar       1 <1>        0.000
      5 O1         -2.0162    1.3512    0.6004 O.3        1 <1>        0.000
      6 C16         0.1764   -2.0112    1.8835 C.ar       1 <1>        0.000
      7 C17        -0.0425   -1.8178    0.5236 C.ar       1 <1>        0.000
      8 C26         4.3993   -3.2945   -2.5614 C.ar       1 <1>        0.000
      9 C20         0.3815   -2.8288   -0.4876 C.2        1 <1>        0.000
     10 N3          1.7022   -2.9620   -0.8007 N.am       1 <1>        0.000
     11 O4         -0.4253   -3.5099   -1.0890 O.2        1 <1>        0.000
     12 S1          2.9803   -2.0566   -0.5606 S.o2       1 <1>        0.000
     13 C25         3.7403   -2.1519   -2.0685 C.ar       1 <1>        0.000
     14 O5          2.4587   -0.7171   -0.3836 O.2        1 <1>        0.000
     15 O6          3.7793   -2.7507    0.4173 O.2        1 <1>        0.000
     16 C27         3.5659   -1.1997   -3.0749 C.ar       1 <1>        0.000
     17 C28         5.1246   -3.3383   -3.7499 C.ar       1 <1>        0.000
     18 C30         4.3096   -1.1460   -4.2442 C.ar       1 <1>        0.000
     19 C31         5.0745   -2.2418   -4.5875 C.ar       1 <1>        0.000
     20 H          -1.5011    0.6417    3.0900 H.spc      1 <1>        0.000
     21 H          -0.2586   -1.3143    3.8769 H.spc      1 <1>        0.000
     22 H          -0.5784   -0.3197   -0.9047 H.spc      1 <1>        0.000
     23 H          -2.3762    1.8037    1.3667 H.spc      1 <1>        0.000
     24 H           0.7834   -2.8505    2.2228 H.spc      1 <1>        0.000
     25 H           4.3376   -4.2090   -1.9715 H.spc      1 <1>        0.000
     26 H           1.9120   -3.8294   -1.2948 H.spc      1 <1>        0.000
     27 H           2.7914   -0.4463   -2.9315 H.spc      1 <1>        0.000
     28 H           5.7163   -4.2154   -4.0118 H.spc      1 <1>        0.000
     29 H           4.2903   -0.2589   -4.8772 H.spc      1 <1>        0.000
     30 H           5.6392   -2.2419   -5.5198 H.spc      1 <1>        0.000
@<TRIPOS>BOND
     1    2    5 1  
     2    2    4 ar 
     3    3    6 ar 
     4   17   19 ar 
     5    4    7 ar 
     6    6    7 ar 
     7    9   11 2  
     8   10   12 1  
     9   16   18 ar 
    10   12   15 2  
    11    9   10 am 
    12   13   16 ar 
    13    7    9 1  
    14   12   14 2  
    15   12   13 1  
    16   18   19 ar 
    17    8   17 ar 
    18   13    8 ar 
    19    1    3 ar 
    20    1    2 ar 
    21    1   20 1  
    22    3   21 1  
    23    4   22 1  
    24    5   23 1  
    25    6   24 1  
    26    8   25 1  
    27   10   26 1  
    28   16   27 1  
    29   17   28 1  
    30   18   29 1  
    31   19   30 1  
# Name:          frag5-677-62/138278
# Creation time: Sat Jun  5 12:51:52 2010


@<TRIPOS>MOLECULE
frag5-677-62/138278
   30    31     1     1     1
SMALL
USER_CHARGES


@<TRIPOS>ATOM
      1 C9         -1.2620    0.6779    0.6969 C.ar       1 <1>        0.000
      2 C12         0.1124    0.8457    0.9107 C.ar       1 <1>        0.000
      3 C13        -1.9139   -0.4863    0.2941 C.ar       1 <1>        0.000
      4 C15         0.7770   -0.3646    0.7654 C.ar       1 <1>        0.000
      5 O1          0.6853    1.9883    1.2536 O.3        1 <1>        0.000
      6 C16        -1.1695   -1.6058    0.0740 C.ar       1 <1>        0.000
      7 C17         0.1722   -1.5700    0.3698 C.ar       1 <1>        0.000
      8 C26         2.4222   -2.7830   -2.8197 C.ar       1 <1>        0.000
      9 C20         0.8900   -2.8035    0.2154 C.2        1 <1>        0.000
     10 N3          2.2228   -2.8022    0.4704 N.am       1 <1>        0.000
     11 O4          0.3637   -3.7874   -0.2609 O.2        1 <1>        0.000
     12 S1          3.4069   -3.4641   -0.3237 S.o2       1 <1>        0.000
     13 C25         3.3615   -2.5815   -1.7841 C.ar       1 <1>        0.000
     14 O5          4.5581   -3.0857    0.4646 O.2        1 <1>        0.000
     15 O6          3.0391   -4.8241   -0.6037 O.2        1 <1>        0.000
     16 C27         4.1025   -1.4205   -2.0225 C.ar       1 <1>        0.000
     17 C28         2.4391   -2.1482   -4.0633 C.ar       1 <1>        0.000
     18 C30         4.2220   -0.7824   -3.2541 C.ar       1 <1>        0.000
     19 C31         3.3621   -1.1437   -4.2720 C.ar       1 <1>        0.000
     20 H          -1.8899    1.5531    0.8637 H.spc      1 <1>        0.000
     21 H          -2.9953   -0.5007    0.1582 H.spc      1 <1>        0.000
     22 H           1.8468   -0.3812    0.9735 H.spc      1 <1>        0.000
     23 H           0.0209    2.6804    1.2880 H.spc      1 <1>        0.000
     24 H          -1.6277   -2.5096   -0.3277 H.spc      1 <1>        0.000
     25 H           1.6169   -3.4933   -2.6324 H.spc      1 <1>        0.000
     26 H           2.4997   -2.2916    1.3089 H.spc      1 <1>        0.000
     27 H           4.6290   -0.9793   -1.1762 H.spc      1 <1>        0.000
     28 H           1.7414   -2.4385   -4.8488 H.spc      1 <1>        0.000
     29 H           4.9786   -0.0137   -3.4114 H.spc      1 <1>        0.000
     30 H           3.4120   -0.6378   -5.2362 H.spc      1 <1>        0.000
@<TRIPOS>BOND
     1    2    5 1  
     2    2    4 ar 
     3    3    6 ar 
     4   17   19 ar 
     5    4    7 ar 
     6    6    7 ar 
     7    9   11 2  
     8   10   12 1  
     9   16   18 ar 
    10   12   15 2  
    11    9   10 am 
    12   13   16 ar 
    13    7    9 1  
    14   12   14 2  
    15   12   13 1  
    16   18   19 ar 
    17    8   17 ar 
    18   13    8 ar 
    19    1    3 ar 
    20    1    2 ar 
    21    1   20 1  
    22    3   21 1  
    23    4   22 1  
    24    5   23 1  
    25    6   24 1  
    26    8   25 1  
    27   10   26 1  
    28   16   27 1  
    29   17   28 1  
    30   18   29 1  
    31   19   30 1  
# Name:          frag5-677-62/138278
# Creation time: Sat Jun  5 12:51:52 2010


@<TRIPOS>MOLECULE
frag5-677-62/138278
   30    31     1     1     1
SMALL
USER_CHARGES


@<TRIPOS>ATOM
      1 C9         -1.4893   -0.0553    0.5262 C.ar       1 <1>        0.000
      2 C12        -0.4764    0.1478   -0.4082 C.ar       1 <1>        0.000
      3 C13        -1.4931   -0.9975    1.5630 C.ar       1 <1>        0.000
      4 C15         0.6317   -0.6600   -0.0928 C.ar       1 <1>        0.000
      5 O1         -0.5505    1.0206   -1.4094 O.3        1 <1>        0.000
      6 C16        -0.3957   -1.8207    1.7102 C.ar       1 <1>        0.000
      7 C17         0.7416   -1.5992    0.9719 C.ar       1 <1>        0.000
      8 C26         4.0236   -1.4595   -1.5396 C.ar       1 <1>        0.000
      9 C20         1.9440   -2.4275    1.3025 C.2        1 <1>        0.000
     10 N3          2.5386   -3.1709    0.3429 N.am       1 <1>        0.000
     11 O4          2.3643   -2.4828    2.4398 O.2        1 <1>        0.000
     12 S1          2.2408   -3.6401   -1.1505 S.o2       1 <1>        0.000
     13 C25         3.0654   -2.4024   -2.0024 C.ar       1 <1>        0.000
     14 O5          2.9143   -4.8991   -1.3491 O.2        1 <1>        0.000
     15 O6          0.8384   -3.4928   -1.3688 O.2        1 <1>        0.000
     16 C27         2.6714   -2.1059   -3.2845 C.ar       1 <1>        0.000
     17 C28         4.6849   -0.5204   -2.3478 C.ar       1 <1>        0.000
     18 C30         3.2554   -1.1774   -4.1344 C.ar       1 <1>        0.000
     19 C31         4.2818   -0.3979   -3.6579 C.ar       1 <1>        0.000
     20 H          -2.3683    0.5838    0.4422 H.spc      1 <1>        0.000
     21 H          -2.3445   -1.0785    2.2387 H.spc      1 <1>        0.000
     22 H           1.5050   -0.5549   -0.7365 H.spc      1 <1>        0.000
     23 H          -1.4140    1.4399   -1.4036 H.spc      1 <1>        0.000
     24 H          -0.4312   -2.6508    2.4157 H.spc      1 <1>        0.000
     25 H           4.2633   -1.4660   -0.4763 H.spc      1 <1>        0.000
     26 H           3.4340   -3.5359    0.6676 H.spc      1 <1>        0.000
     27 H           1.8139   -2.6551   -3.6733 H.spc      1 <1>        0.000
     28 H           5.4931    0.0930   -1.9494 H.spc      1 <1>        0.000
     29 H           2.9063   -1.0684   -5.1612 H.spc      1 <1>        0.000
     30 H           4.7759    0.3163   -4.3165 H.spc      1 <1>        0.000
@<TRIPOS>BOND
     1    2    5 1  
     2    2    4 ar 
     3    3    6 ar 
     4   17   19 ar 
     5    4    7 ar 
     6    6    7 ar 
     7    9   11 2  
     8   10   12 1  
     9   16   18 ar 
    10   12   15 2  
    11    9   10 am 
    12   13   16 ar 
    13    7    9 1  
    14   12   14 2  
    15   12   13 1  
    16   18   19 ar 
    17    8   17 ar 
    18   13    8 ar 
    19    1    3 ar 
    20    1    2 ar 
    21    1   20 1  
    22    3   21 1  
    23    4   22 1  
    24    5   23 1  
    25    6   24 1  
    26    8   25 1  
    27   10   26 1  
    28   16   27 1  
    29   17   28 1  
    30   18   29 1  
    31   19   30 1  
# Name:          frag5-677-62/138278
# Creation time: Sat Jun  5 12:51:52 2010


@<TRIPOS>MOLECULE
frag5-677-62/138278
   30    31     1     1     1
SMALL
USER_CHARGES


@<TRIPOS>ATOM
      1 C9         -1.4275    0.5478    0.7063 C.ar       1 <1>        0.000
      2 C12        -0.5088    0.2933    1.7289 C.ar       1 <1>        0.000
      3 C13        -1.5625   -0.1665   -0.4882 C.ar       1 <1>        0.000
      4 C15         0.2082   -0.8805    1.4620 C.ar       1 <1>        0.000
      5 O1         -0.3721    1.0445    2.8184 O.3        1 <1>        0.000
      6 C16        -0.7244   -1.2447   -0.7075 C.ar       1 <1>        0.000
      7 C17         0.1168   -1.6927    0.3010 C.ar       1 <1>        0.000
      8 C26         3.9284   -1.3886   -2.7932 C.ar       1 <1>        0.000
      9 C20         0.8822   -2.9604    0.1623 C.2        1 <1>        0.000
     10 N3          2.2464   -2.9455    0.2177 N.am       1 <1>        0.000
     11 O4          0.3137   -4.0113   -0.1021 O.2        1 <1>        0.000
     12 S1          3.3413   -1.8876   -0.2448 S.o2       1 <1>        0.000
     13 C25         3.4836   -2.3296   -1.8881 C.ar       1 <1>        0.000
     14 O5          2.7181   -0.5822   -0.1668 O.2        1 <1>        0.000
     15 O6          4.5657   -2.1986    0.4307 O.2        1 <1>        0.000
     16 C27         3.1015   -3.5317   -2.5701 C.ar       1 <1>        0.000
     17 C28         4.2399   -1.6008   -4.1247 C.ar       1 <1>        0.000
     18 C30         3.3225   -3.7956   -3.9351 C.ar       1 <1>        0.000
     19 C31         3.9183   -2.8103   -4.6959 C.ar       1 <1>        0.000
     20 H          -2.1067    1.3872    0.8551 H.spc      1 <1>        0.000
     21 H          -2.3099    0.1194   -1.2283 H.spc      1 <1>        0.000
     22 H           0.9121   -1.2052    2.2283 H.spc      1 <1>        0.000
     23 H          -0.9720    1.7922    2.7675 H.spc      1 <1>        0.000
     24 H          -0.7247   -1.7444   -1.6762 H.spc      1 <1>        0.000
     25 H           4.0470   -0.3712   -2.4206 H.spc      1 <1>        0.000
     26 H           2.6448   -3.7832    0.6420 H.spc      1 <1>        0.000
     27 H           2.6000   -4.3026   -1.9850 H.spc      1 <1>        0.000
     28 H           4.7312   -0.8237   -4.7103 H.spc      1 <1>        0.000
     29 H           3.0321   -4.7486   -4.3774 H.spc      1 <1>        0.000
     30 H           4.1340   -2.9904   -5.7491 H.spc      1 <1>        0.000
@<TRIPOS>BOND
     1    2    5 1  
     2    2    4 ar 
     3    3    6 ar 
     4   17   19 ar 
     5    4    7 ar 
     6    6    7 ar 
     7    9   11 2  
     8   10   12 1  
     9   16   18 ar 
    10   12   15 2  
    11    9   10 am 
    12   13   16 ar 
    13    7    9 1  
    14   12   14 2  
    15   12   13 1  
    16   18   19 ar 
    17    8   17 ar 
    18   13    8 ar 
    19    1    3 ar 
    20    1    2 ar 
    21    1   20 1  
    22    3   21 1  
    23    4   22 1  
    24    5   23 1  
    25    6   24 1  
    26    8   25 1  
    27   10   26 1  
    28   16   27 1  
    29   17   28 1  
    30   18   29 1  
    31   19   30 1  
# Name:          frag5-677-62/138278
# Creation time: Sat Jun  5 12:51:52 2010


@<TRIPOS>MOLECULE
frag5-677-62/138278
   30    31     1     1     1
SMALL
USER_CHARGES


@<TRIPOS>ATOM
      1 C9         -1.0636    0.4955   -0.1706 C.ar       1 <1>        0.000
      2 C12        -1.3759   -0.4378    0.8214 C.ar       1 <1>        0.000
      3 C13         0.1796    0.6611   -0.7873 C.ar       1 <1>        0.000
      4 C15        -0.2839   -1.2936    1.0522 C.ar       1 <1>        0.000
      5 O1         -2.5578   -0.5318    1.4149 O.3        1 <1>        0.000
      6 C16         1.2222   -0.1683   -0.4043 C.ar       1 <1>        0.000
      7 C17         1.0386   -1.1067    0.6059 C.ar       1 <1>        0.000
      8 C26         4.2924   -2.1748   -1.9257 C.ar       1 <1>        0.000
      9 C20         2.1572   -1.9209    1.1744 C.2        1 <1>        0.000
     10 N3          2.6252   -3.0012    0.4885 N.am       1 <1>        0.000
     11 O4          2.6405   -1.6579    2.2566 O.2        1 <1>        0.000
     12 S1          2.2579   -3.7646   -0.8370 S.o2       1 <1>        0.000
     13 C25         2.9867   -2.7284   -1.9796 C.ar       1 <1>        0.000
     14 O5          2.9556   -5.0202   -0.7825 O.2        1 <1>        0.000
     15 O6          0.8176   -3.6630   -0.9420 O.2        1 <1>        0.000
     16 C27         2.2274   -2.0676   -2.9376 C.ar       1 <1>        0.000
     17 C28         4.8799   -1.4470   -2.9653 C.ar       1 <1>        0.000
     18 C30         2.7230   -1.3024   -3.9761 C.ar       1 <1>        0.000
     19 C31         4.0689   -1.0110   -3.9947 C.ar       1 <1>        0.000
     20 H          -1.8665    1.1578   -0.4944 H.spc      1 <1>        0.000
     21 H           0.3259    1.4245   -1.5515 H.spc      1 <1>        0.000
     22 H          -0.4813   -2.1928    1.6358 H.spc      1 <1>        0.000
     23 H          -3.1337    0.1645    1.0907 H.spc      1 <1>        0.000
     24 H           2.1908   -0.0847   -0.8972 H.spc      1 <1>        0.000
     25 H           4.8741   -2.3265   -1.0165 H.spc      1 <1>        0.000
     26 H           3.4242   -3.4271    0.9582 H.spc      1 <1>        0.000
     27 H           1.1440   -2.1612   -2.8633 H.spc      1 <1>        0.000
     28 H           5.9481   -1.2299   -2.9632 H.spc      1 <1>        0.000
     29 H           2.0632   -0.9375   -4.7632 H.spc      1 <1>        0.000
     30 H           4.4928   -0.4380   -4.8194 H.spc      1 <1>        0.000
@<TRIPOS>BOND
     1    2    5 1  
     2    2    4 ar 
     3    3    6 ar 
     4   17   19 ar 
     5    4    7 ar 
     6    6    7 ar 
     7    9   11 2  
     8   10   12 1  
     9   16   18 ar 
    10   12   15 2  
    11    9   10 am 
    12   13   16 ar 
    13    7    9 1  
    14   12   14 2  
    15   12   13 1  
    16   18   19 ar 
    17    8   17 ar 
    18   13    8 ar 
    19    1    3 ar 
    20    1    2 ar 
    21    1   20 1  
    22    3   21 1  
    23    4   22 1  
    24    5   23 1  
    25    6   24 1  
    26    8   25 1  
    27   10   26 1  
    28   16   27 1  
    29   17   28 1  
    30   18   29 1  
    31   19   30 1  
# Name:          frag5-677-62/138278
# Creation time: Sat Jun  5 12:51:52 2010


@<TRIPOS>MOLECULE
frag5-677-62/138278
   30    31     1     1     1
SMALL
USER_CHARGES


@<TRIPOS>ATOM
      1 C9         -2.1896   -0.7631    1.4386 C.ar       1 <1>        0.000
      2 C12        -1.5271   -0.1021    0.4042 C.ar       1 <1>        0.000
      3 C13        -1.6608   -1.7571    2.2628 C.ar       1 <1>        0.000
      4 C15        -0.1806   -0.5032    0.3553 C.ar       1 <1>        0.000
      5 O1         -2.0859    0.8287   -0.3588 O.3        1 <1>        0.000
      6 C16        -0.3599   -2.1638    2.0554 C.ar       1 <1>        0.000
      7 C17         0.4375   -1.5218    1.1279 C.ar       1 <1>        0.000
      8 C26         3.5326   -1.2172   -3.3086 C.ar       1 <1>        0.000
      9 C20         1.8802   -1.8501    1.0841 C.2        1 <1>        0.000
     10 N3          2.5079   -1.9916   -0.1089 N.am       1 <1>        0.000
     11 O4          2.5221   -2.0989    2.0896 O.2        1 <1>        0.000
     12 S1          2.0299   -2.5365   -1.5240 S.o2       1 <1>        0.000
     13 C25         3.4184   -2.3020   -2.4457 C.ar       1 <1>        0.000
     14 O5          1.8024   -3.9429   -1.3124 O.2        1 <1>        0.000
     15 O6          1.0039   -1.6304   -1.9935 O.2        1 <1>        0.000
     16 C27         4.6528   -2.9456   -2.2587 C.ar       1 <1>        0.000
     17 C28         4.5846   -1.0036   -4.1814 C.ar       1 <1>        0.000
     18 C30         5.7327   -2.8187   -3.1299 C.ar       1 <1>        0.000
     19 C31         5.6901   -1.8212   -4.0852 C.ar       1 <1>        0.000
     20 H          -3.2245   -0.4740    1.6214 H.spc      1 <1>        0.000
     21 H          -2.2636   -2.2027    3.0541 H.spc      1 <1>        0.000
     22 H           0.4583    0.0250   -0.3525 H.spc      1 <1>        0.000
     23 H          -3.0141    0.9142   -0.1293 H.spc      1 <1>        0.000
     24 H           0.0429   -2.9991    2.6282 H.spc      1 <1>        0.000
     25 H           2.7314   -0.4783   -3.2963 H.spc      1 <1>        0.000
     26 H           3.4815   -1.6878   -0.0963 H.spc      1 <1>        0.000
     27 H           4.7728   -3.5811   -1.3813 H.spc      1 <1>        0.000
     28 H           4.5403   -0.2090   -4.9262 H.spc      1 <1>        0.000
     29 H           6.5892   -3.4891   -3.0597 H.spc      1 <1>        0.000
     30 H           6.5317   -1.6807   -4.7635 H.spc      1 <1>        0.000
@<TRIPOS>BOND
     1    2    5 1  
     2    2    4 ar 
     3    3    6 ar 
     4   17   19 ar 
     5    4    7 ar 
     6    6    7 ar 
     7    9   11 2  
     8   10   12 1  
     9   16   18 ar 
    10   12   15 2  
    11    9   10 am 
    12   13   16 ar 
    13    7    9 1  
    14   12   14 2  
    15   12   13 1  
    16   18   19 ar 
    17    8   17 ar 
    18   13    8 ar 
    19    1    3 ar 
    20    1    2 ar 
    21    1   20 1  
    22    3   21 1  
    23    4   22 1  
    24    5   23 1  
    25    6   24 1  
    26    8   25 1  
    27   10   26 1  
    28   16   27 1  
    29   17   28 1  
    30   18   29 1  
    31   19   30 1  
# Name:          frag5-677-62/138278
# Creation time: Sat Jun  5 12:51:52 2010


@<TRIPOS>MOLECULE
frag5-677-62/138278
   30    31     1     1     1
SMALL
USER_CHARGES


@<TRIPOS>ATOM
      1 C9         -0.6600    0.1507    2.0841 C.ar       1 <1>        0.000
      2 C12        -0.4612    0.6836    0.8058 C.ar       1 <1>        0.000
      3 C13        -0.5185   -1.1907    2.4477 C.ar       1 <1>        0.000
      4 C15         0.0325   -0.2897   -0.0751 C.ar       1 <1>        0.000
      5 O1         -0.6724    1.9530    0.4933 O.3        1 <1>        0.000
      6 C16        -0.1195   -2.0948    1.4828 C.ar       1 <1>        0.000
      7 C17         0.0732   -1.6721    0.1706 C.ar       1 <1>        0.000
      8 C26         3.4617   -2.9899   -3.1072 C.ar       1 <1>        0.000
      9 C20         0.3187   -2.6562   -0.9152 C.2        1 <1>        0.000
     10 N3          1.3512   -3.5468   -0.7882 N.am       1 <1>        0.000
     11 O4         -0.2939   -2.6206   -1.9622 O.2        1 <1>        0.000
     12 S1          2.8657   -3.3347   -0.3905 S.o2       1 <1>        0.000
     13 C25         3.4419   -2.4976   -1.7705 C.ar       1 <1>        0.000
     14 O5          2.8200   -2.4489    0.7493 O.2        1 <1>        0.000
     15 O6          3.4731   -4.6416   -0.3867 O.2        1 <1>        0.000
     16 C27         3.7559   -1.1383   -1.7504 C.ar       1 <1>        0.000
     17 C28         4.0331   -2.3246   -4.1990 C.ar       1 <1>        0.000
     18 C30         4.3885   -0.4423   -2.7698 C.ar       1 <1>        0.000
     19 C31         4.5014   -1.0395   -4.0078 C.ar       1 <1>        0.000
     20 H          -0.9526    0.8473    2.8697 H.spc      1 <1>        0.000
     21 H          -0.7182   -1.5161    3.4686 H.spc      1 <1>        0.000
     22 H           0.4182    0.0568   -1.0339 H.spc      1 <1>        0.000
     23 H          -1.0112    2.4184    1.2615 H.spc      1 <1>        0.000
     24 H           0.0445   -3.1391    1.7488 H.spc      1 <1>        0.000
     25 H           2.9968   -3.9579   -3.2943 H.spc      1 <1>        0.000
     26 H           1.0987   -4.5154   -0.9844 H.spc      1 <1>        0.000
     27 H           3.4808   -0.5758   -0.8582 H.spc      1 <1>        0.000
     28 H           4.1063   -2.8079   -5.1733 H.spc      1 <1>        0.000
     29 H           4.7884    0.5567   -2.5959 H.spc      1 <1>        0.000
     30 H           4.9600   -0.4975   -4.8349 H.spc      1 <1>        0.000
@<TRIPOS>BOND
     1    2    5 1  
     2    2    4 ar 
     3    3    6 ar 
     4   17   19 ar 
     5    4    7 ar 
     6    6    7 ar 
     7    9   11 2  
     8   10   12 1  
     9   16   18 ar 
    10   12   15 2  
    11    9   10 am 
    12   13   16 ar 
    13    7    9 1  
    14   12   14 2  
    15   12   13 1  
    16   18   19 ar 
    17    8   17 ar 
    18   13    8 ar 
    19    1    3 ar 
    20    1    2 ar 
    21    1   20 1  
    22    3   21 1  
    23    4   22 1  
    24    5   23 1  
    25    6   24 1  
    26    8   25 1  
    27   10   26 1  
    28   16   27 1  
    29   17   28 1  
    30   18   29 1  
    31   19   30 1  
# Name:          frag5-677-62/138278
# Creation time: Sat Jun  5 12:51:52 2010


@<TRIPOS>MOLECULE
frag5-677-62/138278
   30    31     1     1     1
SMALL
USER_CHARGES


@<TRIPOS>ATOM
      1 C9         -1.6083    0.3433    0.4973 C.ar       1 <1>        0.000
      2 C12        -0.9309    0.0911    1.6944 C.ar       1 <1>        0.000
      3 C13        -1.3643   -0.2653   -0.7360 C.ar       1 <1>        0.000
      4 C15        -0.0186   -0.9595    1.5424 C.ar       1 <1>        0.000
      5 O1         -1.1397    0.7377    2.8381 O.3        1 <1>        0.000
      6 C16        -0.3655   -1.2305   -0.8047 C.ar       1 <1>        0.000
      7 C17         0.2931   -1.6561    0.3527 C.ar       1 <1>        0.000
      8 C26         4.2094   -3.3701   -2.2864 C.ar       1 <1>        0.000
      9 C20         1.2424   -2.7852    0.3983 C.2        1 <1>        0.000
     10 N3          2.5861   -2.5515    0.3718 N.am       1 <1>        0.000
     11 O4          0.8394   -3.9395    0.3761 O.2        1 <1>        0.000
     12 S1          3.4759   -1.4722   -0.4017 S.o2       1 <1>        0.000
     13 C25         3.5232   -2.1799   -1.9484 C.ar       1 <1>        0.000
     14 O5          2.6647   -0.2802   -0.4226 O.2        1 <1>        0.000
     15 O6          4.7866   -1.5310    0.1780 O.2        1 <1>        0.000
     16 C27         2.7232   -1.7687   -3.0095 C.ar       1 <1>        0.000
     17 C28         4.3528   -3.8829   -3.5846 C.ar       1 <1>        0.000
     18 C30         2.8564   -2.1790   -4.3355 C.ar       1 <1>        0.000
     19 C31         3.6655   -3.2617   -4.6089 C.ar       1 <1>        0.000
     20 H          -2.4042    1.0873    0.5298 H.spc      1 <1>        0.000
     21 H          -1.9406    0.0086   -1.6198 H.spc      1 <1>        0.000
     22 H           0.5103   -1.2756    2.4415 H.spc      1 <1>        0.000
     23 H          -1.8062    1.4155    2.7041 H.spc      1 <1>        0.000
     24 H          -0.0937   -1.6590   -1.7694 H.spc      1 <1>        0.000
     25 H           4.6636   -3.9346   -1.4721 H.spc      1 <1>        0.000
     26 H           3.1267   -3.1875    0.9580 H.spc      1 <1>        0.000
     27 H           1.9223   -1.0643   -2.7848 H.spc      1 <1>        0.000
     28 H           4.9884   -4.7468   -3.7791 H.spc      1 <1>        0.000
     29 H           2.3336   -1.6565   -5.1366 H.spc      1 <1>        0.000
     30 H           3.7624   -3.6265   -5.6314 H.spc      1 <1>        0.000
@<TRIPOS>BOND
     1    2    5 1  
     2    2    4 ar 
     3    3    6 ar 
     4   17   19 ar 
     5    4    7 ar 
     6    6    7 ar 
     7    9   11 2  
     8   10   12 1  
     9   16   18 ar 
    10   12   15 2  
    11    9   10 am 
    12   13   16 ar 
    13    7    9 1  
    14   12   14 2  
    15   12   13 1  
    16   18   19 ar 
    17    8   17 ar 
    18   13    8 ar 
    19    1    3 ar 
    20    1    2 ar 
    21    1   20 1  
    22    3   21 1  
    23    4   22 1  
    24    5   23 1  
    25    6   24 1  
    26    8   25 1  
    27   10   26 1  
    28   16   27 1  
    29   17   28 1  
    30   18   29 1  
    31   19   30 1  
# Name:          frag5-677-62/138278
# Creation time: Sat Jun  5 12:51:52 2010


@<TRIPOS>MOLECULE
frag5-677-62/138278
   30    31     1     1     1
SMALL
USER_CHARGES


@<TRIPOS>ATOM
      1 C9         -1.7246    0.1187    1.0324 C.ar       1 <1>        0.000
      2 C12        -0.7122    0.7252    0.2733 C.ar       1 <1>        0.000
      3 C13        -1.7208   -1.1817    1.5478 C.ar       1 <1>        0.000
      4 C15         0.3982   -0.1020    0.1854 C.ar       1 <1>        0.000
      5 O1         -0.7737    1.9321   -0.2633 O.3        1 <1>        0.000
      6 C16        -0.6380   -1.9772    1.3036 C.ar       1 <1>        0.000
      7 C17         0.4436   -1.4006    0.6909 C.ar       1 <1>        0.000
      8 C26         2.4913   -1.9189   -2.9396 C.ar       1 <1>        0.000
      9 C20         1.6133   -2.1889    0.5108 C.2        1 <1>        0.000
     10 N3          1.4793   -3.2832   -0.3038 N.am       1 <1>        0.000
     11 O4          2.6760   -1.8413    0.9650 O.2        1 <1>        0.000
     12 S1          2.6068   -4.0332   -1.1109 S.o2       1 <1>        0.000
     13 C25         3.2196   -2.7242   -2.0258 C.ar       1 <1>        0.000
     14 O5          3.5335   -4.4817   -0.1140 O.2        1 <1>        0.000
     15 O6          1.9196   -4.9254   -2.0206 O.2        1 <1>        0.000
     16 C27         4.4711   -2.1724   -1.7829 C.ar       1 <1>        0.000
     17 C28         3.0403   -0.9010   -3.7309 C.ar       1 <1>        0.000
     18 C30         5.1019   -1.2186   -2.5696 C.ar       1 <1>        0.000
     19 C31         4.3660   -0.5666   -3.5369 C.ar       1 <1>        0.000
     20 H          -2.6062    0.7243    1.2424 H.spc      1 <1>        0.000
     21 H          -2.5636   -1.5519    2.1315 H.spc      1 <1>        0.000
     22 H           1.2887    0.2868   -0.3086 H.spc      1 <1>        0.000
     23 H          -1.6321    2.3201   -0.0781 H.spc      1 <1>        0.000
     24 H          -0.6342   -3.0302    1.5852 H.spc      1 <1>        0.000
     25 H           1.4217   -2.1067   -3.0332 H.spc      1 <1>        0.000
     26 H           0.5354   -3.6577   -0.3993 H.spc      1 <1>        0.000
     27 H           5.0041   -2.5186   -0.8974 H.spc      1 <1>        0.000
     28 H           2.4372   -0.3870   -4.4794 H.spc      1 <1>        0.000
     29 H           6.1578   -0.9894   -2.4258 H.spc      1 <1>        0.000
     30 H           4.8291    0.2097   -4.1459 H.spc      1 <1>        0.000
@<TRIPOS>BOND
     1    2    5 1  
     2    2    4 ar 
     3    3    6 ar 
     4   17   19 ar 
     5    4    7 ar 
     6    6    7 ar 
     7    9   11 2  
     8   10   12 1  
     9   16   18 ar 
    10   12   15 2  
    11    9   10 am 
    12   13   16 ar 
    13    7    9 1  
    14   12   14 2  
    15   12   13 1  
    16   18   19 ar 
    17    8   17 ar 
    18   13    8 ar 
    19    1    3 ar 
    20    1    2 ar 
    21    1   20 1  
    22    3   21 1  
    23    4   22 1  
    24    5   23 1  
    25    6   24 1  
    26    8   25 1  
    27   10   26 1  
    28   16   27 1  
    29   17   28 1  
    30   18   29 1  
    31   19   30 1  
# Name:          frag5-677-62/138278
# Creation time: Sat Jun  5 12:51:52 2010


@<TRIPOS>MOLECULE
frag5-677-62/138278
   30    31     1     1     1
SMALL
USER_CHARGES


@<TRIPOS>ATOM
      1 C9         -1.6362    0.1869    0.3994 C.ar       1 <1>        0.000
      2 C12        -0.6500    0.3846    1.3678 C.ar       1 <1>        0.000
      3 C13        -1.6971   -0.8691   -0.5173 C.ar       1 <1>        0.000
      4 C15         0.2294   -0.7168    1.4003 C.ar       1 <1>        0.000
      5 O1         -0.5934    1.4386    2.1732 O.3        1 <1>        0.000
      6 C16        -0.7086   -1.8356   -0.4834 C.ar       1 <1>        0.000
      7 C17         0.2286   -1.8387    0.5364 C.ar       1 <1>        0.000
      8 C26         4.4254   -3.0297   -2.4918 C.ar       1 <1>        0.000
      9 C20         1.1812   -2.9894    0.6561 C.2        1 <1>        0.000
     10 N3          2.4495   -2.8738    0.1519 N.am       1 <1>        0.000
     11 O4          0.8370   -4.0233    1.1959 O.2        1 <1>        0.000
     12 S1          3.3636   -1.6825   -0.3692 S.o2       1 <1>        0.000
     13 C25         3.4899   -2.1084   -2.0050 C.ar       1 <1>        0.000
     14 O5          2.5837   -0.4734   -0.2625 O.2        1 <1>        0.000
     15 O6          4.6481   -1.8226    0.2690 O.2        1 <1>        0.000
     16 C27         2.5239   -1.8140   -2.9755 C.ar       1 <1>        0.000
     17 C28         4.6412   -3.3037   -3.8346 C.ar       1 <1>        0.000
     18 C30         2.7067   -1.9982   -4.3386 C.ar       1 <1>        0.000
     19 C31         3.7685   -2.7720   -4.7612 C.ar       1 <1>        0.000
     20 H          -2.4358    0.9262    0.3528 H.spc      1 <1>        0.000
     21 H          -2.5077   -0.9285   -1.2436 H.spc      1 <1>        0.000
     22 H           0.9947   -0.7032    2.1764 H.spc      1 <1>        0.000
     23 H          -1.3004    2.0486    1.9503 H.spc      1 <1>        0.000
     24 H          -0.6669   -2.5975   -1.2618 H.spc      1 <1>        0.000
     25 H           5.0280   -3.5711   -1.7625 H.spc      1 <1>        0.000
     26 H           2.9247   -3.7747    0.0974 H.spc      1 <1>        0.000
     27 H           1.5673   -1.4146   -2.6384 H.spc      1 <1>        0.000
     28 H           5.4801   -3.9242   -4.1498 H.spc      1 <1>        0.000
     29 H           2.0274   -1.5423   -5.0589 H.spc      1 <1>        0.000
     30 H           3.9171   -2.9625   -5.8241 H.spc      1 <1>        0.000
@<TRIPOS>BOND
     1    2    5 1  
     2    2    4 ar 
     3    3    6 ar 
     4   17   19 ar 
     5    4    7 ar 
     6    6    7 ar 
     7    9   11 2  
     8   10   12 1  
     9   16   18 ar 
    10   12   15 2  
    11    9   10 am 
    12   13   16 ar 
    13    7    9 1  
    14   12   14 2  
    15   12   13 1  
    16   18   19 ar 
    17    8   17 ar 
    18   13    8 ar 
    19    1    3 ar 
    20    1    2 ar 
    21    1   20 1  
    22    3   21 1  
    23    4   22 1  
    24    5   23 1  
    25    6   24 1  
    26    8   25 1  
    27   10   26 1  
    28   16   27 1  
    29   17   28 1  
    30   18   29 1  
    31   19   30 1  
# Name:          frag5-677-62/138278
# Creation time: Sat Jun  5 12:51:52 2010


@<TRIPOS>MOLECULE
frag5-677-62/138278
   30    31     1     1     1
SMALL
USER_CHARGES


@<TRIPOS>ATOM
      1 C9         -2.0003    0.1600    0.8306 C.ar       1 <1>        0.000
      2 C12        -0.9431    0.5961    1.6412 C.ar       1 <1>        0.000
      3 C13        -1.9570   -0.8300   -0.1539 C.ar       1 <1>        0.000
      4 C15         0.1792   -0.1682    1.4260 C.ar       1 <1>        0.000
      5 O1         -1.0175    1.5613    2.5383 O.3        1 <1>        0.000
      6 C16        -0.7735   -1.4637   -0.3702 C.ar       1 <1>        0.000
      7 C17         0.3075   -1.0907    0.4037 C.ar       1 <1>        0.000
      8 C26         2.6199   -2.3514   -3.1714 C.ar       1 <1>        0.000
      9 C20         1.5784   -1.7236    0.2597 C.2        1 <1>        0.000
     10 N3          1.5794   -2.9319   -0.3654 N.am       1 <1>        0.000
     11 O4          2.6078   -1.1981    0.6446 O.2        1 <1>        0.000
     12 S1          2.7742   -3.8399   -0.7930 S.o2       1 <1>        0.000
     13 C25         3.3672   -2.8923   -2.0872 C.ar       1 <1>        0.000
     14 O5          3.6724   -3.8460    0.3295 O.2        1 <1>        0.000
     15 O6          2.2026   -5.0469   -1.3499 O.2        1 <1>        0.000
     16 C27         4.6491   -2.3654   -2.0748 C.ar       1 <1>        0.000
     17 C28         3.1638   -1.6405   -4.2473 C.ar       1 <1>        0.000
     18 C30         5.2702   -1.7281   -3.1329 C.ar       1 <1>        0.000
     19 C31         4.5109   -1.3415   -4.2164 C.ar       1 <1>        0.000
     20 H          -2.9628    0.6474    0.9857 H.spc      1 <1>        0.000
     21 H          -2.8451   -1.0868   -0.7313 H.spc      1 <1>        0.000
     22 H           1.0221   -0.0388    2.1048 H.spc      1 <1>        0.000
     23 H          -1.8925    1.9552    2.5111 H.spc      1 <1>        0.000
     24 H          -0.6812   -2.2404   -1.1294 H.spc      1 <1>        0.000
     25 H           1.5405   -2.5026   -3.1630 H.spc      1 <1>        0.000
     26 H           0.6556   -3.3018   -0.5894 H.spc      1 <1>        0.000
     27 H           5.2174   -2.4619   -1.1497 H.spc      1 <1>        0.000
     28 H           2.5407   -1.3315   -5.0866 H.spc      1 <1>        0.000
     29 H           6.3426   -1.5346   -3.1107 H.spc      1 <1>        0.000
     30 H           4.9718   -0.8026   -5.0442 H.spc      1 <1>        0.000
@<TRIPOS>BOND
     1    2    5 1  
     2    2    4 ar 
     3    3    6 ar 
     4   17   19 ar 
     5    4    7 ar 
     6    6    7 ar 
     7    9   11 2  
     8   10   12 1  
     9   16   18 ar 
    10   12   15 2  
    11    9   10 am 
    12   13   16 ar 
    13    7    9 1  
    14   12   14 2  
    15   12   13 1  
    16   18   19 ar 
    17    8   17 ar 
    18   13    8 ar 
    19    1    3 ar 
    20    1    2 ar 
    21    1   20 1  
    22    3   21 1  
    23    4   22 1  
    24    5   23 1  
    25    6   24 1  
    26    8   25 1  
    27   10   26 1  
    28   16   27 1  
    29   17   28 1  
    30   18   29 1  
    31   19   30 1  
# Name:          frag5-677-62/138278
# Creation time: Sat Jun  5 12:51:52 2010


@<TRIPOS>MOLECULE
frag5-677-62/138278
   30    31     1     1     1
SMALL
USER_CHARGES


@<TRIPOS>ATOM
      1 C9         -2.0298   -0.2263    1.2542 C.ar       1 <1>        0.000
      2 C12        -0.8186    0.4575    1.1942 C.ar       1 <1>        0.000
      3 C13        -2.2227   -1.5954    1.0707 C.ar       1 <1>        0.000
      4 C15         0.2537   -0.4561    1.0553 C.ar       1 <1>        0.000
      5 O1         -0.7017    1.7843    1.2958 O.3        1 <1>        0.000
      6 C16        -1.1156   -2.3850    0.8214 C.ar       1 <1>        0.000
      7 C17         0.1637   -1.8695    0.8804 C.ar       1 <1>        0.000
      8 C26         4.8929   -2.3418   -2.3298 C.ar       1 <1>        0.000
      9 C20         1.2700   -2.8303    0.6968 C.2        1 <1>        0.000
     10 N3          2.1994   -2.6291   -0.2589 N.am       1 <1>        0.000
     11 O4          1.3540   -3.8251    1.4087 O.2        1 <1>        0.000
     12 S1          2.7585   -1.3401   -1.0177 S.o2       1 <1>        0.000
     13 C25         3.5477   -2.0353   -2.3330 C.ar       1 <1>        0.000
     14 O5          1.6192   -0.6138   -1.4739 O.2        1 <1>        0.000
     15 O6          3.7264   -0.7689   -0.1157 O.2        1 <1>        0.000
     16 C27         2.8832   -2.5697   -3.4278 C.ar       1 <1>        0.000
     17 C28         5.5994   -2.7968   -3.4359 C.ar       1 <1>        0.000
     18 C30         3.5185   -2.9858   -4.5952 C.ar       1 <1>        0.000
     19 C31         4.8931   -3.1138   -4.5788 C.ar       1 <1>        0.000
     20 H          -2.9179    0.3690    1.4662 H.spc      1 <1>        0.000
     21 H          -3.2203   -2.0315    1.1225 H.spc      1 <1>        0.000
     22 H           1.2581   -0.0338    1.0852 H.spc      1 <1>        0.000
     23 H          -1.5742    2.1758    1.3800 H.spc      1 <1>        0.000
     24 H          -1.2558   -3.4370    0.5730 H.spc      1 <1>        0.000
     25 H           5.4391   -2.2184   -1.3946 H.spc      1 <1>        0.000
     26 H           2.6451   -3.4936   -0.5659 H.spc      1 <1>        0.000
     27 H           1.7993   -2.6698   -3.3706 H.spc      1 <1>        0.000
     28 H           6.6839   -2.9009   -3.4022 H.spc      1 <1>        0.000
     29 H           2.9463   -3.2044   -5.4968 H.spc      1 <1>        0.000
     30 H           5.4196   -3.4644   -5.4665 H.spc      1 <1>        0.000
@<TRIPOS>BOND
     1    2    5 1  
     2    2    4 ar 
     3    3    6 ar 
     4   17   19 ar 
     5    4    7 ar 
     6    6    7 ar 
     7    9   11 2  
     8   10   12 1  
     9   16   18 ar 
    10   12   15 2  
    11    9   10 am 
    12   13   16 ar 
    13    7    9 1  
    14   12   14 2  
    15   12   13 1  
    16   18   19 ar 
    17    8   17 ar 
    18   13    8 ar 
    19    1    3 ar 
    20    1    2 ar 
    21    1   20 1  
    22    3   21 1  
    23    4   22 1  
    24    5   23 1  
    25    6   24 1  
    26    8   25 1  
    27   10   26 1  
    28   16   27 1  
    29   17   28 1  
    30   18   29 1  
    31   19   30 1  
# Name:          frag5-677-62/138278
# Creation time: Sat Jun  5 12:51:52 2010


@<TRIPOS>MOLECULE
frag5-677-62/138278
   30    31     1     1     1
SMALL
USER_CHARGES


@<TRIPOS>ATOM
      1 C9         -0.7810    0.5403    2.1010 C.ar       1 <1>        0.000
      2 C12        -0.9992    0.7484    0.7345 C.ar       1 <1>        0.000
      3 C13        -0.0968   -0.5293    2.6871 C.ar       1 <1>        0.000
      4 C15        -0.3564   -0.2153   -0.0218 C.ar       1 <1>        0.000
      5 O1         -1.6636    1.7777    0.2366 O.3        1 <1>        0.000
      6 C16         0.4238   -1.4901    1.8688 C.ar       1 <1>        0.000
      7 C17         0.1946   -1.3672    0.5188 C.ar       1 <1>        0.000
      8 C26         4.4581   -1.8312   -1.6922 C.ar       1 <1>        0.000
      9 C20         0.6760   -2.3585   -0.3957 C.2        1 <1>        0.000
     10 N3          1.8547   -2.9498   -0.0635 N.am       1 <1>        0.000
     11 O4          0.1008   -2.6174   -1.4203 O.2        1 <1>        0.000
     12 S1          2.7927   -3.8880   -0.8947 S.o2       1 <1>        0.000
     13 C25         3.4463   -2.7558   -2.0014 C.ar       1 <1>        0.000
     14 O5          3.7785   -4.2906    0.0667 O.2        1 <1>        0.000
     15 O6          1.9337   -4.8000   -1.6091 O.2        1 <1>        0.000
     16 C27         2.8567   -2.4389   -3.2360 C.ar       1 <1>        0.000
     17 C28         5.1307   -1.0597   -2.6380 C.ar       1 <1>        0.000
     18 C30         3.4405   -1.6468   -4.2193 C.ar       1 <1>        0.000
     19 C31         4.6013   -0.9688   -3.9104 C.ar       1 <1>        0.000
     20 H          -1.1868    1.2905    2.7797 H.spc      1 <1>        0.000
     21 H           0.0178   -0.5942    3.7691 H.spc      1 <1>        0.000
     22 H          -0.2791   -0.0612   -1.0981 H.spc      1 <1>        0.000
     23 H          -2.0203    2.3048    0.9553 H.spc      1 <1>        0.000
     24 H           0.9997   -2.3236    2.2708 H.spc      1 <1>        0.000
     25 H           4.7348   -1.7095   -0.6450 H.spc      1 <1>        0.000
     26 H           2.1810   -2.7492    0.8818 H.spc      1 <1>        0.000
     27 H           1.8657   -2.8447   -3.4393 H.spc      1 <1>        0.000
     28 H           6.0533   -0.5400   -2.3795 H.spc      1 <1>        0.000
     29 H           2.9918   -1.5640   -5.2092 H.spc      1 <1>        0.000
     30 H           5.0991   -0.3634   -4.6679 H.spc      1 <1>        0.000
@<TRIPOS>BOND
     1    2    5 1  
     2    2    4 ar 
     3    3    6 ar 
     4   17   19 ar 
     5    4    7 ar 
     6    6    7 ar 
     7    9   11 2  
     8   10   12 1  
     9   16   18 ar 
    10   12   15 2  
    11    9   10 am 
    12   13   16 ar 
    13    7    9 1  
    14   12   14 2  
    15   12   13 1  
    16   18   19 ar 
    17    8   17 ar 
    18   13    8 ar 
    19    1    3 ar 
    20    1    2 ar 
    21    1   20 1  
    22    3   21 1  
    23    4   22 1  
    24    5   23 1  
    25    6   24 1  
    26    8   25 1  
    27   10   26 1  
    28   16   27 1  
    29   17   28 1  
    30   18   29 1  
    31   19   30 1  
# Name:          frag5-677-62/138278
# Creation time: Sat Jun  5 12:51:52 2010


@<TRIPOS>MOLECULE
frag5-677-62/138278
   30    31     1     1     1
SMALL
USER_CHARGES


@<TRIPOS>ATOM
      1 C9         -2.1759   -1.1627    1.6121 C.ar       1 <1>        0.000
      2 C12        -1.1152   -1.5515    2.4293 C.ar       1 <1>        0.000
      3 C13        -2.0764   -0.5661    0.3521 C.ar       1 <1>        0.000
      4 C15         0.1134   -1.3700    1.7678 C.ar       1 <1>        0.000
      5 O1         -1.2543   -2.0716    3.6481 O.3        1 <1>        0.000
      6 C16        -0.8103   -0.3412   -0.1715 C.ar       1 <1>        0.000
      7 C17         0.3229   -0.6460    0.5738 C.ar       1 <1>        0.000
      8 C26         4.7560   -2.2066   -2.0144 C.ar       1 <1>        0.000
      9 C20         1.6809   -0.2442    0.1429 C.2        1 <1>        0.000
     10 N3          2.2928   -0.9353   -0.8313 N.am       1 <1>        0.000
     11 O4          2.2974    0.6653    0.6732 O.2        1 <1>        0.000
     12 S1          1.9939   -2.3120   -1.5607 S.o2       1 <1>        0.000
     13 C25         3.4381   -2.5374   -2.4219 C.ar       1 <1>        0.000
     14 O5          1.8861   -3.2883   -0.5281 O.2        1 <1>        0.000
     15 O6          0.9173   -2.0099   -2.4844 O.2        1 <1>        0.000
     16 C27         3.3923   -2.8516   -3.7569 C.ar       1 <1>        0.000
     17 C28         5.9074   -2.5278   -2.7442 C.ar       1 <1>        0.000
     18 C30         4.4807   -3.1676   -4.5500 C.ar       1 <1>        0.000
     19 C31         5.7441   -3.0162   -4.0251 C.ar       1 <1>        0.000
     20 H          -3.1813   -1.3416    1.9933 H.spc      1 <1>        0.000
     21 H          -2.9699   -0.2846   -0.2052 H.spc      1 <1>        0.000
     22 H           0.9892   -1.8338    2.2216 H.spc      1 <1>        0.000
     23 H          -2.1852   -2.0922    3.8817 H.spc      1 <1>        0.000
     24 H          -0.7043    0.0767   -1.1726 H.spc      1 <1>        0.000
     25 H           4.8803   -1.6688   -1.0745 H.spc      1 <1>        0.000
     26 H           3.1340   -0.4747   -1.1787 H.spc      1 <1>        0.000
     27 H           2.4124   -2.8522   -4.2342 H.spc      1 <1>        0.000
     28 H           6.9005   -2.3964   -2.3147 H.spc      1 <1>        0.000
     29 H           4.3408   -3.5288   -5.5689 H.spc      1 <1>        0.000
     30 H           6.6168   -3.2823   -4.6215 H.spc      1 <1>        0.000
@<TRIPOS>BOND
     1    2    5 1  
     2    2    4 ar 
     3    3    6 ar 
     4   17   19 ar 
     5    4    7 ar 
     6    6    7 ar 
     7    9   11 2  
     8   10   12 1  
     9   16   18 ar 
    10   12   15 2  
    11    9   10 am 
    12   13   16 ar 
    13    7    9 1  
    14   12   14 2  
    15   12   13 1  
    16   18   19 ar 
    17    8   17 ar 
    18   13    8 ar 
    19    1    3 ar 
    20    1    2 ar 
    21    1   20 1  
    22    3   21 1  
    23    4   22 1  
    24    5   23 1  
    25    6   24 1  
    26    8   25 1  
    27   10   26 1  
    28   16   27 1  
    29   17   28 1  
    30   18   29 1  
    31   19   30 1  
# Name:          frag5-677-62/138278
# Creation time: Sat Jun  5 12:51:52 2010


@<TRIPOS>MOLECULE
frag5-677-62/138278
   30    31     1     1     1
SMALL
USER_CHARGES


@<TRIPOS>ATOM
      1 C9         -1.5627   -0.2401    0.1933 C.ar       1 <1>        0.000
      2 C12        -0.4151    0.3031   -0.3837 C.ar       1 <1>        0.000
      3 C13        -1.6303   -1.3995    0.9724 C.ar       1 <1>        0.000
      4 C15         0.7201   -0.4256    0.0243 C.ar       1 <1>        0.000
      5 O1         -0.4080    1.3948   -1.1385 O.3        1 <1>        0.000
      6 C16        -0.4693   -2.1170    1.1982 C.ar       1 <1>        0.000
      7 C17         0.7535   -1.6086    0.7962 C.ar       1 <1>        0.000
      8 C26         4.3568   -2.0803   -1.8965 C.ar       1 <1>        0.000
      9 C20         2.0086   -2.2933    1.2150 C.2        1 <1>        0.000
     10 N3          2.5184   -3.2916    0.4270 N.am       1 <1>        0.000
     11 O4          2.5825   -1.9647    2.2361 O.2        1 <1>        0.000
     12 S1          2.3270   -3.8008   -1.0627 S.o2       1 <1>        0.000
     13 C25         3.0085   -2.4864   -1.9239 C.ar       1 <1>        0.000
     14 O5          3.1597   -4.9668   -1.2067 O.2        1 <1>        0.000
     15 O6          0.9009   -3.8207   -1.2957 O.2        1 <1>        0.000
     16 C27         2.2410   -1.4791   -2.5198 C.ar       1 <1>        0.000
     17 C28         4.9183   -1.1220   -2.7460 C.ar       1 <1>        0.000
     18 C30         2.7105   -0.4455   -3.3200 C.ar       1 <1>        0.000
     19 C31         4.0709   -0.2970   -3.4582 C.ar       1 <1>        0.000
     20 H          -2.4986    0.2910    0.0201 H.spc      1 <1>        0.000
     21 H          -2.5793   -1.7314    1.3935 H.spc      1 <1>        0.000
     22 H           1.6852   -0.0304   -0.2927 H.spc      1 <1>        0.000
     23 H          -1.3096    1.6966   -1.2712 H.spc      1 <1>        0.000
     24 H          -0.5178   -3.0862    1.6945 H.spc      1 <1>        0.000
     25 H           5.0102   -2.5470   -1.1594 H.spc      1 <1>        0.000
     26 H           3.2014   -3.8564    0.9319 H.spc      1 <1>        0.000
     27 H           1.1667   -1.5087   -2.3376 H.spc      1 <1>        0.000
     28 H           5.9999   -1.0285   -2.8436 H.spc      1 <1>        0.000
     29 H           2.0196    0.2297   -3.8248 H.spc      1 <1>        0.000
     30 H           4.4762    0.4650   -4.1239 H.spc      1 <1>        0.000
@<TRIPOS>BOND
     1    2    5 1  
     2    2    4 ar 
     3    3    6 ar 
     4   17   19 ar 
     5    4    7 ar 
     6    6    7 ar 
     7    9   11 2  
     8   10   12 1  
     9   16   18 ar 
    10   12   15 2  
    11    9   10 am 
    12   13   16 ar 
    13    7    9 1  
    14   12   14 2  
    15   12   13 1  
    16   18   19 ar 
    17    8   17 ar 
    18   13    8 ar 
    19    1    3 ar 
    20    1    2 ar 
    21    1   20 1  
    22    3   21 1  
    23    4   22 1  
    24    5   23 1  
    25    6   24 1  
    26    8   25 1  
    27   10   26 1  
    28   16   27 1  
    29   17   28 1  
    30   18   29 1  
    31   19   30 1  
# Name:          frag5-677-62/138278
# Creation time: Sat Jun  5 12:51:52 2010


@<TRIPOS>MOLECULE
frag5-677-62/138278
   30    31     1     1     1
SMALL
USER_CHARGES


@<TRIPOS>ATOM
      1 C9         -1.6818    0.4632    1.5150 C.ar       1 <1>        0.000
      2 C12        -1.4682   -0.8638    1.8985 C.ar       1 <1>        0.000
      3 C13        -0.9436    1.2031    0.5835 C.ar       1 <1>        0.000
      4 C15        -0.4637   -1.4283    1.1271 C.ar       1 <1>        0.000
      5 O1         -2.1625   -1.5050    2.8260 O.3        1 <1>        0.000
      6 C16         0.1000    0.6048   -0.0461 C.ar       1 <1>        0.000
      7 C17         0.3402   -0.7050    0.2465 C.ar       1 <1>        0.000
      8 C26         2.8879   -2.4418   -3.2899 C.ar       1 <1>        0.000
      9 C20         1.4248   -1.3125   -0.4588 C.2        1 <1>        0.000
     10 N3          1.3712   -2.6689   -0.6299 N.am       1 <1>        0.000
     11 O4          2.3696   -0.6405   -0.8088 O.2        1 <1>        0.000
     12 S1          2.5483   -3.6863   -0.8100 S.o2       1 <1>        0.000
     13 C25         3.4200   -2.9113   -2.0633 C.ar       1 <1>        0.000
     14 O5          3.2560   -3.6354    0.4405 O.2        1 <1>        0.000
     15 O6          1.9772   -4.9008   -1.3441 O.2        1 <1>        0.000
     16 C27         4.6997   -2.4187   -1.8613 C.ar       1 <1>        0.000
     17 C28         3.6324   -1.8346   -4.3056 C.ar       1 <1>        0.000
     18 C30         5.5166   -1.8845   -2.8412 C.ar       1 <1>        0.000
     19 C31         4.9671   -1.5747   -4.0673 C.ar       1 <1>        0.000
     20 H          -2.5145    0.9786    1.9937 H.spc      1 <1>        0.000
     21 H          -1.2018    2.2399    0.3678 H.spc      1 <1>        0.000
     22 H          -0.2922   -2.5012    1.2142 H.spc      1 <1>        0.000
     23 H          -2.7982   -0.9038    3.2210 H.spc      1 <1>        0.000
     24 H           0.7210    1.1498   -0.7571 H.spc      1 <1>        0.000
     25 H           1.8172   -2.5633   -3.4539 H.spc      1 <1>        0.000
     26 H           0.4350   -3.0736   -0.6418 H.spc      1 <1>        0.000
     27 H           5.0950   -2.4553   -0.8462 H.spc      1 <1>        0.000
     28 H           3.1721   -1.5738   -5.2586 H.spc      1 <1>        0.000
     29 H           6.5753   -1.7116   -2.6478 H.spc      1 <1>        0.000
     30 H           5.5844   -1.1262   -4.8457 H.spc      1 <1>        0.000
@<TRIPOS>BOND
     1    2    5 1  
     2    2    4 ar 
     3    3    6 ar 
     4   17   19 ar 
     5    4    7 ar 
     6    6    7 ar 
     7    9   11 2  
     8   10   12 1  
     9   16   18 ar 
    10   12   15 2  
    11    9   10 am 
    12   13   16 ar 
    13    7    9 1  
    14   12   14 2  
    15   12   13 1  
    16   18   19 ar 
    17    8   17 ar 
    18   13    8 ar 
    19    1    3 ar 
    20    1    2 ar 
    21    1   20 1  
    22    3   21 1  
    23    4   22 1  
    24    5   23 1  
    25    6   24 1  
    26    8   25 1  
    27   10   26 1  
    28   16   27 1  
    29   17   28 1  
    30   18   29 1  
    31   19   30 1  
# Name:          frag5-677-62/138278
# Creation time: Sat Jun  5 12:51:52 2010


@<TRIPOS>MOLECULE
frag5-677-62/138278
   30    31     1     1     1
SMALL
USER_CHARGES


@<TRIPOS>ATOM
      1 C9         -1.6328   -0.2149    0.3443 C.ar       1 <1>        0.000
      2 C12        -0.4862    0.5725    0.2277 C.ar       1 <1>        0.000
      3 C13        -1.6725   -1.5909    0.5896 C.ar       1 <1>        0.000
      4 C15         0.6578   -0.1865    0.5157 C.ar       1 <1>        0.000
      5 O1         -0.5023    1.8638   -0.0760 O.3        1 <1>        0.000
      6 C16        -0.4764   -2.2618    0.7801 C.ar       1 <1>        0.000
      7 C17         0.7203   -1.5543    0.8410 C.ar       1 <1>        0.000
      8 C26         2.8042   -2.4671   -3.3317 C.ar       1 <1>        0.000
      9 C20         2.0177   -2.1944    1.2194 C.2        1 <1>        0.000
     10 N3          2.5277   -3.1792    0.4139 N.am       1 <1>        0.000
     11 O4          2.6448   -1.8276    2.1966 O.2        1 <1>        0.000
     12 S1          2.2655   -3.7292   -1.0504 S.o2       1 <1>        0.000
     13 C25         3.0603   -2.5284   -1.9705 C.ar       1 <1>        0.000
     14 O5          2.9577   -4.9810   -1.1632 O.2        1 <1>        0.000
     15 O6          0.8476   -3.6269   -1.3364 O.2        1 <1>        0.000
     16 C27         3.9341   -1.4691   -1.5873 C.ar       1 <1>        0.000
     17 C28         3.3399   -1.5782   -4.2412 C.ar       1 <1>        0.000
     18 C30         4.5547   -0.5635   -2.4613 C.ar       1 <1>        0.000
     19 C31         4.2292   -0.6242   -3.7994 C.ar       1 <1>        0.000
     20 H          -2.5911    0.2925    0.2333 H.spc      1 <1>        0.000
     21 H          -2.6229   -2.1230    0.6299 H.spc      1 <1>        0.000
     22 H           1.6089    0.3449    0.4838 H.spc      1 <1>        0.000
     23 H          -1.4076    2.1441   -0.2290 H.spc      1 <1>        0.000
     24 H          -0.4722   -3.3470    0.8826 H.spc      1 <1>        0.000
     25 H           2.1026   -3.2018   -3.7269 H.spc      1 <1>        0.000
     26 H           3.2739   -3.6953    0.8799 H.spc      1 <1>        0.000
     27 H           4.1378   -1.3525   -0.5229 H.spc      1 <1>        0.000
     28 H           3.0631   -1.6305   -5.2942 H.spc      1 <1>        0.000
     29 H           5.2741    0.1676   -2.0924 H.spc      1 <1>        0.000
     30 H           4.6733    0.0791   -4.5039 H.spc      1 <1>        0.000
@<TRIPOS>BOND
     1    2    5 1  
     2    2    4 ar 
     3    3    6 ar 
     4   17   19 ar 
     5    4    7 ar 
     6    6    7 ar 
     7    9   11 2  
     8   10   12 1  
     9   16   18 ar 
    10   12   15 2  
    11    9   10 am 
    12   13   16 ar 
    13    7    9 1  
    14   12   14 2  
    15   12   13 1  
    16   18   19 ar 
    17    8   17 ar 
    18   13    8 ar 
    19    1    3 ar 
    20    1    2 ar 
    21    1   20 1  
    22    3   21 1  
    23    4   22 1  
    24    5   23 1  
    25    6   24 1  
    26    8   25 1  
    27   10   26 1  
    28   16   27 1  
    29   17   28 1  
    30   18   29 1  
    31   19   30 1  
# Name:          frag5-677-62/138278
# Creation time: Sat Jun  5 12:51:52 2010


@<TRIPOS>MOLECULE
frag5-677-62/138278
   30    31     1     1     1
SMALL
USER_CHARGES


@<TRIPOS>ATOM
      1 C9         -0.9439   -1.0960    2.8639 C.ar       1 <1>        0.000
      2 C12        -0.6183    0.1535    2.3281 C.ar       1 <1>        0.000
      3 C13        -0.8782   -2.3243    2.2036 C.ar       1 <1>        0.000
      4 C15        -0.0964    0.0164    1.0376 C.ar       1 <1>        0.000
      5 O1         -0.7383    1.3066    2.9846 O.3        1 <1>        0.000
      6 C16        -0.4361   -2.3358    0.8841 C.ar       1 <1>        0.000
      7 C17        -0.1462   -1.1352    0.2268 C.ar       1 <1>        0.000
      8 C26         4.8265   -2.3142   -1.9352 C.ar       1 <1>        0.000
      9 C20         0.1956   -1.0093   -1.2098 C.2        1 <1>        0.000
     10 N3          1.2568   -1.6718   -1.7040 N.am       1 <1>        0.000
     11 O4         -0.4421   -0.3042   -1.9733 O.2        1 <1>        0.000
     12 S1          2.3394   -2.6602   -1.0956 S.o2       1 <1>        0.000
     13 C25         3.5355   -2.6100   -2.2905 C.ar       1 <1>        0.000
     14 O5          2.7757   -2.0026    0.0962 O.2        1 <1>        0.000
     15 O6          1.7522   -3.9806   -1.0915 O.2        1 <1>        0.000
     16 C27         3.3636   -2.5902   -3.6951 C.ar       1 <1>        0.000
     17 C28         5.9233   -2.4171   -2.7741 C.ar       1 <1>        0.000
     18 C30         4.4166   -2.6137   -4.6182 C.ar       1 <1>        0.000
     19 C31         5.7056   -2.5519   -4.1268 C.ar       1 <1>        0.000
     20 H          -1.2826   -1.1129    3.8998 H.spc      1 <1>        0.000
     21 H          -1.1649   -3.2476    2.7070 H.spc      1 <1>        0.000
     22 H           0.3999    0.8903    0.6156 H.spc      1 <1>        0.000
     23 H          -1.1222    1.1429    3.8491 H.spc      1 <1>        0.000
     24 H          -0.3152   -3.2841    0.3605 H.spc      1 <1>        0.000
     25 H           5.0026   -1.9722   -0.9153 H.spc      1 <1>        0.000
     26 H           1.3984   -1.4992   -2.6993 H.spc      1 <1>        0.000
     27 H           2.3458   -2.5543   -4.0836 H.spc      1 <1>        0.000
     28 H           6.9363   -2.3919   -2.3725 H.spc      1 <1>        0.000
     29 H           4.2250   -2.6786   -5.6893 H.spc      1 <1>        0.000
     30 H           6.5521   -2.6099   -4.8110 H.spc      1 <1>        0.000
@<TRIPOS>BOND
     1    2    5 1  
     2    2    4 ar 
     3    3    6 ar 
     4   17   19 ar 
     5    4    7 ar 
     6    6    7 ar 
     7    9   11 2  
     8   10   12 1  
     9   16   18 ar 
    10   12   15 2  
    11    9   10 am 
    12   13   16 ar 
    13    7    9 1  
    14   12   14 2  
    15   12   13 1  
    16   18   19 ar 
    17    8   17 ar 
    18   13    8 ar 
    19    1    3 ar 
    20    1    2 ar 
    21    1   20 1  
    22    3   21 1  
    23    4   22 1  
    24    5   23 1  
    25    6   24 1  
    26    8   25 1  
    27   10   26 1  
    28   16   27 1  
    29   17   28 1  
    30   18   29 1  
    31   19   30 1  
# Name:          frag5-677-62/138278
# Creation time: Sat Jun  5 12:51:52 2010


@<TRIPOS>MOLECULE
frag5-677-62/138278
   30    31     1     1     1
SMALL
USER_CHARGES


@<TRIPOS>ATOM
      1 C9         -2.1774   -0.7219    0.9709 C.ar       1 <1>        0.000
      2 C12        -1.3338    0.3898    0.9455 C.ar       1 <1>        0.000
      3 C13        -1.8077   -2.0563    0.8167 C.ar       1 <1>        0.000
      4 C15        -0.0045   -0.0061    0.8417 C.ar       1 <1>        0.000
      5 O1         -1.7293    1.6551    1.0511 O.3        1 <1>        0.000
      6 C16        -0.4631   -2.3354    0.6395 C.ar       1 <1>        0.000
      7 C17         0.4875   -1.3058    0.7131 C.ar       1 <1>        0.000
      8 C26         3.3096   -1.2251   -2.4466 C.ar       1 <1>        0.000
      9 C20         1.9412   -1.5060    0.6802 C.2        1 <1>        0.000
     10 N3          2.3789   -2.6996    0.2381 N.am       1 <1>        0.000
     11 O4          2.7358   -0.6022    0.9179 O.2        1 <1>        0.000
     12 S1          2.2288   -3.4609   -1.1596 S.o2       1 <1>        0.000
     13 C25         3.3343   -2.6019   -2.1387 C.ar       1 <1>        0.000
     14 O5          2.7066   -4.7831   -0.8676 O.2        1 <1>        0.000
     15 O6          0.9328   -3.2025   -1.7151 O.2        1 <1>        0.000
     16 C27         4.4996   -3.1795   -2.6082 C.ar       1 <1>        0.000
     17 C28         4.1805   -0.5700   -3.3304 C.ar       1 <1>        0.000
     18 C30         5.3629   -2.6282   -3.5490 C.ar       1 <1>        0.000
     19 C31         5.2089   -1.3014   -3.8887 C.ar       1 <1>        0.000
     20 H          -3.2379   -0.5252    1.1280 H.spc      1 <1>        0.000
     21 H          -2.5513   -2.8531    0.8349 H.spc      1 <1>        0.000
     22 H           0.7389    0.7908    0.8633 H.spc      1 <1>        0.000
     23 H          -2.6870    1.6860    1.1093 H.spc      1 <1>        0.000
     24 H          -0.1420   -3.3582    0.4422 H.spc      1 <1>        0.000
     25 H           2.5487   -0.6184   -1.9557 H.spc      1 <1>        0.000
     26 H           2.9123   -3.2222    0.9329 H.spc      1 <1>        0.000
     27 H           4.7659   -4.1561   -2.2040 H.spc      1 <1>        0.000
     28 H           4.0486    0.4854   -3.5689 H.spc      1 <1>        0.000
     29 H           6.1450   -3.2329   -4.0081 H.spc      1 <1>        0.000
     30 H           5.8952   -0.8327   -4.5940 H.spc      1 <1>        0.000
@<TRIPOS>BOND
     1    2    5 1  
     2    2    4 ar 
     3    3    6 ar 
     4   17   19 ar 
     5    4    7 ar 
     6    6    7 ar 
     7    9   11 2  
     8   10   12 1  
     9   16   18 ar 
    10   12   15 2  
    11    9   10 am 
    12   13   16 ar 
    13    7    9 1  
    14   12   14 2  
    15   12   13 1  
    16   18   19 ar 
    17    8   17 ar 
    18   13    8 ar 
    19    1    3 ar 
    20    1    2 ar 
    21    1   20 1  
    22    3   21 1  
    23    4   22 1  
    24    5   23 1  
    25    6   24 1  
    26    8   25 1  
    27   10   26 1  
    28   16   27 1  
    29   17   28 1  
    30   18   29 1  
    31   19   30 1  
# Name:          frag5-677-62/138278
# Creation time: Sat Jun  5 12:51:52 2010


@<TRIPOS>MOLECULE
frag5-677-62/138278
   30    31     1     1     1
SMALL
USER_CHARGES


@<TRIPOS>ATOM
      1 C9         -1.7118    0.5669    0.5868 C.ar       1 <1>        0.000
      2 C12        -1.0229    0.4155    1.7960 C.ar       1 <1>        0.000
      3 C13        -1.3734    0.0033   -0.6483 C.ar       1 <1>        0.000
      4 C15         0.0051   -0.4944    1.6654 C.ar       1 <1>        0.000
      5 O1         -1.3364    1.0189    2.9270 O.3        1 <1>        0.000
      6 C16        -0.2775   -0.8092   -0.7120 C.ar       1 <1>        0.000
      7 C17         0.4340   -1.0072    0.4554 C.ar       1 <1>        0.000
      8 C26         4.0922   -1.7367   -2.0148 C.ar       1 <1>        0.000
      9 C20         1.5773   -1.8430    0.4922 C.2        1 <1>        0.000
     10 N3          1.5809   -2.9090   -0.3477 N.am       1 <1>        0.000
     11 O4          2.5294   -1.5670    1.2062 O.2        1 <1>        0.000
     12 S1          2.7754   -3.8386   -0.7845 S.o2       1 <1>        0.000
     13 C25         3.3355   -2.9185   -2.1066 C.ar       1 <1>        0.000
     14 O5          3.7345   -3.8132    0.2912 O.2        1 <1>        0.000
     15 O6          2.1562   -5.0477   -1.2640 O.2        1 <1>        0.000
     16 C27         2.8492   -3.0791   -3.4154 C.ar       1 <1>        0.000
     17 C28         4.7137   -1.1165   -3.0971 C.ar       1 <1>        0.000
     18 C30         3.3870   -2.4725   -4.5461 C.ar       1 <1>        0.000
     19 C31         4.3429   -1.4929   -4.3731 C.ar       1 <1>        0.000
     20 H          -2.6062    1.1895    0.6099 H.spc      1 <1>        0.000
     21 H          -1.9696    0.2076   -1.5376 H.spc      1 <1>        0.000
     22 H           0.5101   -0.8296    2.5713 H.spc      1 <1>        0.000
     23 H          -2.0815    1.6060    2.7793 H.spc      1 <1>        0.000
     24 H           0.0237   -1.2825   -1.6466 H.spc      1 <1>        0.000
     25 H           4.1996   -1.2756   -1.0330 H.spc      1 <1>        0.000
     26 H           0.6763   -3.1429   -0.7567 H.spc      1 <1>        0.000
     27 H           1.9849   -3.7283   -3.5553 H.spc      1 <1>        0.000
     28 H           5.4748   -0.3521   -2.9402 H.spc      1 <1>        0.000
     29 H           3.0610   -2.7642   -5.5445 H.spc      1 <1>        0.000
     30 H           4.8034   -1.0182   -5.2395 H.spc      1 <1>        0.000
@<TRIPOS>BOND
     1    2    5 1  
     2    2    4 ar 
     3    3    6 ar 
     4   17   19 ar 
     5    4    7 ar 
     6    6    7 ar 
     7    9   11 2  
     8   10   12 1  
     9   16   18 ar 
    10   12   15 2  
    11    9   10 am 
    12   13   16 ar 
    13    7    9 1  
    14   12   14 2  
    15   12   13 1  
    16   18   19 ar 
    17    8   17 ar 
    18   13    8 ar 
    19    1    3 ar 
    20    1    2 ar 
    21    1   20 1  
    22    3   21 1  
    23    4   22 1  
    24    5   23 1  
    25    6   24 1  
    26    8   25 1  
    27   10   26 1  
    28   16   27 1  
    29   17   28 1  
    30   18   29 1  
    31   19   30 1  
# Name:          frag5-677-62/138278
# Creation time: Sat Jun  5 12:51:52 2010


@<TRIPOS>MOLECULE
frag5-677-62/138278
   30    31     1     1     1
SMALL
USER_CHARGES


@<TRIPOS>ATOM
      1 C9         -1.4514    0.3483    1.3769 C.ar       1 <1>        0.000
      2 C12        -0.9783    0.4478    0.0616 C.ar       1 <1>        0.000
      3 C13        -1.0210   -0.5525    2.3586 C.ar       1 <1>        0.000
      4 C15         0.0783   -0.4280   -0.1479 C.ar       1 <1>        0.000
      5 O1         -1.4452    1.3157   -0.8214 O.3        1 <1>        0.000
      6 C16        -0.0452   -1.4454    2.0458 C.ar       1 <1>        0.000
      7 C17         0.5097   -1.3566    0.8032 C.ar       1 <1>        0.000
      8 C26         2.9474   -2.3146   -3.4125 C.ar       1 <1>        0.000
      9 C20         1.5446   -2.2834    0.5238 C.2        1 <1>        0.000
     10 N3          1.3451   -3.1360   -0.5183 N.am       1 <1>        0.000
     11 O4          2.5856   -2.2423    1.1568 O.2        1 <1>        0.000
     12 S1          2.4182   -3.9778   -1.3018 S.o2       1 <1>        0.000
     13 C25         3.2322   -2.6967   -2.0974 C.ar       1 <1>        0.000
     14 O5          3.2666   -4.5927   -0.3270 O.2        1 <1>        0.000
     15 O6          1.6554   -4.7293   -2.2830 O.2        1 <1>        0.000
     16 C27         4.0727   -1.7398   -1.4864 C.ar       1 <1>        0.000
     17 C28         3.6429   -1.3638   -4.1481 C.ar       1 <1>        0.000
     18 C30         4.8347   -0.7908   -2.1634 C.ar       1 <1>        0.000
     19 C31         4.5989   -0.6029   -3.5084 C.ar       1 <1>        0.000
     20 H          -2.2374    1.0458    1.6663 H.spc      1 <1>        0.000
     21 H          -1.4607   -0.5379    3.3559 H.spc      1 <1>        0.000
     22 H           0.5989   -0.3893   -1.1048 H.spc      1 <1>        0.000
     23 H          -2.1765    1.8024   -0.4342 H.spc      1 <1>        0.000
     24 H           0.2808   -2.2021    2.7594 H.spc      1 <1>        0.000
     25 H           2.1067   -2.8057   -3.9025 H.spc      1 <1>        0.000
     26 H           0.3797   -3.2422   -0.8299 H.spc      1 <1>        0.000
     27 H           4.1294   -1.7446   -0.3979 H.spc      1 <1>        0.000
     28 H           3.4374   -1.2219   -5.2091 H.spc      1 <1>        0.000
     29 H           5.5977   -0.2117   -1.6432 H.spc      1 <1>        0.000
     30 H           5.1657    0.1440   -4.0642 H.spc      1 <1>        0.000
@<TRIPOS>BOND
     1    2    5 1  
     2    2    4 ar 
     3    3    6 ar 
     4   17   19 ar 
     5    4    7 ar 
     6    6    7 ar 
     7    9   11 2  
     8   10   12 1  
     9   16   18 ar 
    10   12   15 2  
    11    9   10 am 
    12   13   16 ar 
    13    7    9 1  
    14   12   14 2  
    15   12   13 1  
    16   18   19 ar 
    17    8   17 ar 
    18   13    8 ar 
    19    1    3 ar 
    20    1    2 ar 
    21    1   20 1  
    22    3   21 1  
    23    4   22 1  
    24    5   23 1  
    25    6   24 1  
    26    8   25 1  
    27   10   26 1  
    28   16   27 1  
    29   17   28 1  
    30   18   29 1  
    31   19   30 1  
# Name:          frag5-677-62/138278
# Creation time: Sat Jun  5 12:51:52 2010


@<TRIPOS>MOLECULE
frag5-677-62/138278
   30    31     1     1     1
SMALL
USER_CHARGES


@<TRIPOS>ATOM
      1 C9         -2.1432   -0.0523    1.3501 C.ar       1 <1>        0.000
      2 C12        -1.0130    0.3541    2.0560 C.ar       1 <1>        0.000
      3 C13        -2.1717   -0.8865    0.2260 C.ar       1 <1>        0.000
      4 C15         0.1307   -0.2543    1.5666 C.ar       1 <1>        0.000
      5 O1         -1.0412    1.1611    3.1155 O.3        1 <1>        0.000
      6 C16        -0.9803   -1.3655   -0.2482 C.ar       1 <1>        0.000
      7 C17         0.1642   -0.9444    0.3705 C.ar       1 <1>        0.000
      8 C26         3.0725   -2.8532   -3.5264 C.ar       1 <1>        0.000
      9 C20         1.4617   -1.3792   -0.1217 C.2        1 <1>        0.000
     10 N3          1.4736   -2.5430   -0.7929 N.am       1 <1>        0.000
     11 O4          2.4782   -0.7789    0.1503 O.2        1 <1>        0.000
     12 S1          2.6165   -3.6135   -0.9053 S.o2       1 <1>        0.000
     13 C25         3.5028   -2.8825   -2.1913 C.ar       1 <1>        0.000
     14 O5          3.3325   -3.5343    0.3271 O.2        1 <1>        0.000
     15 O6          2.0027   -4.8046   -1.4071 O.2        1 <1>        0.000
     16 C27         4.6007   -2.0639   -1.9812 C.ar       1 <1>        0.000
     17 C28         3.8352   -2.3620   -4.5887 C.ar       1 <1>        0.000
     18 C30         5.4373   -1.6004   -2.9889 C.ar       1 <1>        0.000
     19 C31         5.0320   -1.7375   -4.2995 C.ar       1 <1>        0.000
     20 H          -3.1036    0.3170    1.7097 H.spc      1 <1>        0.000
     21 H          -3.1137   -1.1465   -0.2567 H.spc      1 <1>        0.000
     22 H           1.0472   -0.1854    2.1526 H.spc      1 <1>        0.000
     23 H          -1.9410    1.4610    3.2641 H.spc      1 <1>        0.000
     24 H          -0.9451   -2.0580   -1.0892 H.spc      1 <1>        0.000
     25 H           2.0778   -3.2390   -3.7494 H.spc      1 <1>        0.000
     26 H           0.6176   -2.7625   -1.3023 H.spc      1 <1>        0.000
     27 H           4.8228   -1.7636   -0.9572 H.spc      1 <1>        0.000
     28 H           3.4945   -2.4689   -5.6185 H.spc      1 <1>        0.000
     29 H           6.3945   -1.1378   -2.7482 H.spc      1 <1>        0.000
     30 H           5.6558   -1.3532   -5.1065 H.spc      1 <1>        0.000
@<TRIPOS>BOND
     1    2    5 1  
     2    2    4 ar 
     3    3    6 ar 
     4   17   19 ar 
     5    4    7 ar 
     6    6    7 ar 
     7    9   11 2  
     8   10   12 1  
     9   16   18 ar 
    10   12   15 2  
    11    9   10 am 
    12   13   16 ar 
    13    7    9 1  
    14   12   14 2  
    15   12   13 1  
    16   18   19 ar 
    17    8   17 ar 
    18   13    8 ar 
    19    1    3 ar 
    20    1    2 ar 
    21    1   20 1  
    22    3   21 1  
    23    4   22 1  
    24    5   23 1  
    25    6   24 1  
    26    8   25 1  
    27   10   26 1  
    28   16   27 1  
    29   17   28 1  
    30   18   29 1  
    31   19   30 1  
# Name:          frag5-677-62/138278
# Creation time: Sat Jun  5 12:51:52 2010


@<TRIPOS>MOLECULE
frag5-677-62/138278
   30    31     1     1     1
SMALL
USER_CHARGES


@<TRIPOS>ATOM
      1 C9         -2.2278   -0.6658    1.1384 C.ar       1 <1>        0.000
      2 C12        -1.3585    0.3269    1.5910 C.ar       1 <1>        0.000
      3 C13        -1.8745   -1.8652    0.5244 C.ar       1 <1>        0.000
      4 C15        -0.0351   -0.0929    1.4673 C.ar       1 <1>        0.000
      5 O1         -1.7075    1.5001    2.1019 O.3        1 <1>        0.000
      6 C16        -0.5212   -2.1321    0.3670 C.ar       1 <1>        0.000
      7 C17         0.4538   -1.2579    0.8811 C.ar       1 <1>        0.000
      8 C26         3.8047   -3.5193   -3.2609 C.ar       1 <1>        0.000
      9 C20         1.9334   -1.4458    0.8753 C.2        1 <1>        0.000
     10 N3          2.4518   -2.2562   -0.0659 N.am       1 <1>        0.000
     11 O4          2.6842   -0.8729    1.6466 O.2        1 <1>        0.000
     12 S1          1.9939   -2.7877   -1.4846 S.o2       1 <1>        0.000
     13 C25         3.3740   -2.5262   -2.4197 C.ar       1 <1>        0.000
     14 O5          1.7625   -4.1893   -1.2622 O.2        1 <1>        0.000
     15 O6          0.9801   -1.9306   -2.0379 O.2        1 <1>        0.000
     16 C27         4.2992   -1.4659   -2.3475 C.ar       1 <1>        0.000
     17 C28         4.7967   -3.3894   -4.2096 C.ar       1 <1>        0.000
     18 C30         5.3799   -1.2979   -3.2204 C.ar       1 <1>        0.000
     19 C31         5.6019   -2.2728   -4.1734 C.ar       1 <1>        0.000
     20 H          -3.2932   -0.4842    1.2798 H.spc      1 <1>        0.000
     21 H          -2.6328   -2.5684    0.1801 H.spc      1 <1>        0.000
     22 H           0.7156    0.5786    1.8840 H.spc      1 <1>        0.000
     23 H          -2.6640    1.5808    2.0910 H.spc      1 <1>        0.000
     24 H          -0.2095   -3.0323   -0.1627 H.spc      1 <1>        0.000
     25 H           3.3227   -4.4929   -3.1723 H.spc      1 <1>        0.000
     26 H           3.3673   -2.6177    0.2016 H.spc      1 <1>        0.000
     27 H           4.1639   -0.7264   -1.5582 H.spc      1 <1>        0.000
     28 H           4.9406   -4.1546   -4.9724 H.spc      1 <1>        0.000
     29 H           6.0272   -0.4237   -3.1504 H.spc      1 <1>        0.000
     30 H           6.4115   -2.1587   -4.8942 H.spc      1 <1>        0.000
@<TRIPOS>BOND
     1    2    5 1  
     2    2    4 ar 
     3    3    6 ar 
     4   17   19 ar 
     5    4    7 ar 
     6    6    7 ar 
     7    9   11 2  
     8   10   12 1  
     9   16   18 ar 
    10   12   15 2  
    11    9   10 am 
    12   13   16 ar 
    13    7    9 1  
    14   12   14 2  
    15   12   13 1  
    16   18   19 ar 
    17    8   17 ar 
    18   13    8 ar 
    19    1    3 ar 
    20    1    2 ar 
    21    1   20 1  
    22    3   21 1  
    23    4   22 1  
    24    5   23 1  
    25    6   24 1  
    26    8   25 1  
    27   10   26 1  
    28   16   27 1  
    29   17   28 1  
    30   18   29 1  
    31   19   30 1  
# Name:          frag5-677-62/138278
# Creation time: Sat Jun  5 12:51:52 2010


@<TRIPOS>MOLECULE
frag5-677-62/138278
   30    31     1     1     1
SMALL
USER_CHARGES


@<TRIPOS>ATOM
      1 C9         -2.1218   -0.3679    1.3312 C.ar       1 <1>        0.000
      2 C12        -1.8705   -1.7296    1.1178 C.ar       1 <1>        0.000
      3 C13        -1.1723    0.6515    1.3796 C.ar       1 <1>        0.000
      4 C15        -0.5073   -1.9421    0.8263 C.ar       1 <1>        0.000
      5 O1         -2.8091   -2.6720    1.1466 O.3        1 <1>        0.000
      6 C16         0.1553    0.3183    1.1951 C.ar       1 <1>        0.000
      7 C17         0.5400   -0.9978    1.0044 C.ar       1 <1>        0.000
      8 C26         3.5032   -1.6052   -3.6135 C.ar       1 <1>        0.000
      9 C20         1.9930   -1.2828    0.9671 C.2        1 <1>        0.000
     10 N3          2.5674   -1.7062   -0.1747 N.am       1 <1>        0.000
     11 O4          2.6963   -1.1707    1.9513 O.2        1 <1>        0.000
     12 S1          2.0212   -2.3333   -1.5198 S.o2       1 <1>        0.000
     13 C25         3.4172   -2.3667   -2.4689 C.ar       1 <1>        0.000
     14 O5          1.6394   -3.6639   -1.1647 O.2        1 <1>        0.000
     15 O6          1.0933   -1.3500   -2.0497 O.2        1 <1>        0.000
     16 C27         4.6634   -2.9242   -2.1158 C.ar       1 <1>        0.000
     17 C28         4.5522   -1.6265   -4.5169 C.ar       1 <1>        0.000
     18 C30         5.7504   -3.0230   -2.9904 C.ar       1 <1>        0.000
     19 C31         5.6801   -2.3487   -4.1942 C.ar       1 <1>        0.000
     20 H          -3.1626   -0.0769    1.4734 H.spc      1 <1>        0.000
     21 H          -1.4698    1.6847    1.5584 H.spc      1 <1>        0.000
     22 H          -0.2318   -2.9188    0.4284 H.spc      1 <1>        0.000
     23 H          -3.6539   -2.2740    1.3693 H.spc      1 <1>        0.000
     24 H           0.9115    1.1033    1.1997 H.spc      1 <1>        0.000
     25 H           2.6754   -0.9286   -3.8260 H.spc      1 <1>        0.000
     26 H           3.5817   -1.5984   -0.1713 H.spc      1 <1>        0.000
     27 H           4.7870   -3.3007   -1.1004 H.spc      1 <1>        0.000
     28 H           4.4872   -1.0849   -5.4606 H.spc      1 <1>        0.000
     29 H           6.6277   -3.6150   -2.7297 H.spc      1 <1>        0.000
     30 H           6.5184   -2.3882   -4.8897 H.spc      1 <1>        0.000
@<TRIPOS>BOND
     1    2    5 1  
     2    2    4 ar 
     3    3    6 ar 
     4   17   19 ar 
     5    4    7 ar 
     6    6    7 ar 
     7    9   11 2  
     8   10   12 1  
     9   16   18 ar 
    10   12   15 2  
    11    9   10 am 
    12   13   16 ar 
    13    7    9 1  
    14   12   14 2  
    15   12   13 1  
    16   18   19 ar 
    17    8   17 ar 
    18   13    8 ar 
    19    1    3 ar 
    20    1    2 ar 
    21    1   20 1  
    22    3   21 1  
    23    4   22 1  
    24    5   23 1  
    25    6   24 1  
    26    8   25 1  
    27   10   26 1  
    28   16   27 1  
    29   17   28 1  
    30   18   29 1  
    31   19   30 1  
# Name:          frag5-677-62/138278
# Creation time: Sat Jun  5 12:51:52 2010


@<TRIPOS>MOLECULE
frag5-677-62/138278
   30    31     1     1     1
SMALL
USER_CHARGES


@<TRIPOS>ATOM
      1 C9         -1.3178    0.5547    1.2716 C.ar       1 <1>        0.000
      2 C12        -0.2030    0.8376    0.4699 C.ar       1 <1>        0.000
      3 C13        -1.7475   -0.7026    1.7105 C.ar       1 <1>        0.000
      4 C15         0.5254   -0.3188    0.2404 C.ar       1 <1>        0.000
      5 O1          0.1333    2.0467    0.0528 O.3        1 <1>        0.000
      6 C16        -1.0349   -1.7987    1.3434 C.ar       1 <1>        0.000
      7 C17         0.0834   -1.6048    0.5811 C.ar       1 <1>        0.000
      8 C26         2.4892   -2.2823   -2.9617 C.ar       1 <1>        0.000
      9 C20         0.8004   -2.7935    0.2497 C.2        1 <1>        0.000
     10 N3          2.1538   -2.7217    0.2066 N.am       1 <1>        0.000
     11 O4          0.2073   -3.8044   -0.0491 O.2        1 <1>        0.000
     12 S1          3.2135   -3.5665   -0.5973 S.o2       1 <1>        0.000
     13 C25         3.4394   -2.5511   -1.9490 C.ar       1 <1>        0.000
     14 O5          4.3665   -3.5535    0.2647 O.2        1 <1>        0.000
     15 O6          2.5979   -4.7783   -1.0848 O.2        1 <1>        0.000
     16 C27         4.5319   -1.6940   -2.0727 C.ar       1 <1>        0.000
     17 C28         2.7333   -1.5339   -4.1154 C.ar       1 <1>        0.000
     18 C30         4.8716   -0.9858   -3.2156 C.ar       1 <1>        0.000
     19 C31         3.9476   -0.8900   -4.2341 C.ar       1 <1>        0.000
     20 H          -1.9162    1.4090    1.5882 H.spc      1 <1>        0.000
     21 H          -2.6360   -0.8002    2.3343 H.spc      1 <1>        0.000
     22 H           1.5019   -0.2225   -0.2342 H.spc      1 <1>        0.000
     23 H          -0.5310    2.6785    0.3376 H.spc      1 <1>        0.000
     24 H          -1.3440   -2.7991    1.6462 H.spc      1 <1>        0.000
     25 H           1.4874   -2.6915   -2.8314 H.spc      1 <1>        0.000
     26 H           2.5560   -1.9940    0.7975 H.spc      1 <1>        0.000
     27 H           5.1719   -1.5703   -1.1991 H.spc      1 <1>        0.000
     28 H           1.9829   -1.4604   -4.9026 H.spc      1 <1>        0.000
     29 H           5.8500   -0.5142   -3.3068 H.spc      1 <1>        0.000
     30 H           4.1750   -0.3090   -5.1279 H.spc      1 <1>        0.000
@<TRIPOS>BOND
     1    2    5 1  
     2    2    4 ar 
     3    3    6 ar 
     4   17   19 ar 
     5    4    7 ar 
     6    6    7 ar 
     7    9   11 2  
     8   10   12 1  
     9   16   18 ar 
    10   12   15 2  
    11    9   10 am 
    12   13   16 ar 
    13    7    9 1  
    14   12   14 2  
    15   12   13 1  
    16   18   19 ar 
    17    8   17 ar 
    18   13    8 ar 
    19    1    3 ar 
    20    1    2 ar 
    21    1   20 1  
    22    3   21 1  
    23    4   22 1  
    24    5   23 1  
    25    6   24 1  
    26    8   25 1  
    27   10   26 1  
    28   16   27 1  
    29   17   28 1  
    30   18   29 1  
    31   19   30 1  
# Name:          frag5-677-62/138278
# Creation time: Sat Jun  5 12:51:52 2010


@<TRIPOS>MOLECULE
frag5-677-62/138278
   30    31     1     1     1
SMALL
USER_CHARGES


@<TRIPOS>ATOM
      1 C9         -1.9548   -0.0186    1.0442 C.ar       1 <1>        0.000
      2 C12        -0.7104    0.4920    1.4159 C.ar       1 <1>        0.000
      3 C13        -2.2085   -1.2804    0.4988 C.ar       1 <1>        0.000
      4 C15         0.2857   -0.4957    1.2917 C.ar       1 <1>        0.000
      5 O1         -0.5101    1.7377    1.8600 O.3        1 <1>        0.000
      6 C16        -1.1358   -2.1319    0.3030 C.ar       1 <1>        0.000
      7 C17         0.1218   -1.8165    0.7804 C.ar       1 <1>        0.000
      8 C26         4.6055   -1.6133   -2.8403 C.ar       1 <1>        0.000
      9 C20         1.1793   -2.8490    0.6795 C.2        1 <1>        0.000
     10 N3          2.2355   -2.6504   -0.1310 N.am       1 <1>        0.000
     11 O4          1.1019   -3.9023    1.2956 O.2        1 <1>        0.000
     12 S1          2.8185   -1.3967   -0.9228 S.o2       1 <1>        0.000
     13 C25         3.4900   -2.1603   -2.2724 C.ar       1 <1>        0.000
     14 O5          1.7330   -0.5877   -1.3591 O.2        1 <1>        0.000
     15 O6          3.8669   -0.8822   -0.0748 O.2        1 <1>        0.000
     16 C27         3.1309   -3.3905   -2.8687 C.ar       1 <1>        0.000
     17 C28         5.2472   -2.0733   -3.9749 C.ar       1 <1>        0.000
     18 C30         3.7087   -3.8995   -4.0396 C.ar       1 <1>        0.000
     19 C31         4.7861   -3.2222   -4.5747 C.ar       1 <1>        0.000
     20 H          -2.8161    0.6324    1.1943 H.spc      1 <1>        0.000
     21 H          -3.2216   -1.5845    0.2355 H.spc      1 <1>        0.000
     22 H           1.2878   -0.2215    1.6213 H.spc      1 <1>        0.000
     23 H          -1.3419    2.2169    1.8515 H.spc      1 <1>        0.000
     24 H          -1.2853   -3.0670   -0.2368 H.spc      1 <1>        0.000
     25 H           5.0281   -0.7339   -2.3544 H.spc      1 <1>        0.000
     26 H           2.7892   -3.4957   -0.2700 H.spc      1 <1>        0.000
     27 H           2.3532   -3.9823   -2.3859 H.spc      1 <1>        0.000
     28 H           6.1018   -1.5362   -4.3863 H.spc      1 <1>        0.000
     29 H           3.3199   -4.8013   -4.5127 H.spc      1 <1>        0.000
     30 H           5.2725   -3.5987   -5.4746 H.spc      1 <1>        0.000
@<TRIPOS>BOND
     1    2    5 1  
     2    2    4 ar 
     3    3    6 ar 
     4   17   19 ar 
     5    4    7 ar 
     6    6    7 ar 
     7    9   11 2  
     8   10   12 1  
     9   16   18 ar 
    10   12   15 2  
    11    9   10 am 
    12   13   16 ar 
    13    7    9 1  
    14   12   14 2  
    15   12   13 1  
    16   18   19 ar 
    17    8   17 ar 
    18   13    8 ar 
    19    1    3 ar 
    20    1    2 ar 
    21    1   20 1  
    22    3   21 1  
    23    4   22 1  
    24    5   23 1  
    25    6   24 1  
    26    8   25 1  
    27   10   26 1  
    28   16   27 1  
    29   17   28 1  
    30   18   29 1  
    31   19   30 1  
# Name:          frag5-677-62/138278
# Creation time: Sat Jun  5 12:51:52 2010


@<TRIPOS>MOLECULE
frag5-677-62/138278
   30    31     1     1     1
SMALL
USER_CHARGES


@<TRIPOS>ATOM
      1 C9         -1.9074   -0.2642    0.5947 C.ar       1 <1>        0.000
      2 C12        -0.9337    0.6207    1.0534 C.ar       1 <1>        0.000
      3 C13        -1.7018   -1.5773    0.1797 C.ar       1 <1>        0.000
      4 C15         0.2942   -0.0226    1.1422 C.ar       1 <1>        0.000
      5 O1         -1.1452    1.8830    1.3879 O.3        1 <1>        0.000
      6 C16        -0.4744   -2.1507    0.4119 C.ar       1 <1>        0.000
      7 C17         0.5835   -1.3581    0.8532 C.ar       1 <1>        0.000
      8 C26         3.4636   -3.0885   -3.4238 C.ar       1 <1>        0.000
      9 C20         1.9719   -1.8277    1.0502 C.2        1 <1>        0.000
     10 N3          2.4289   -2.8809    0.3076 N.am       1 <1>        0.000
     11 O4          2.7551   -1.2570    1.8061 O.2        1 <1>        0.000
     12 S1          2.2071   -3.5653   -1.1277 S.o2       1 <1>        0.000
     13 C25         3.2081   -2.6352   -2.1398 C.ar       1 <1>        0.000
     14 O5          2.7100   -4.9204   -1.0135 O.2        1 <1>        0.000
     15 O6          0.8857   -3.3113   -1.6434 O.2        1 <1>        0.000
     16 C27         3.8819   -1.4082   -1.9133 C.ar       1 <1>        0.000
     17 C28         4.1403   -2.4234   -4.4239 C.ar       1 <1>        0.000
     18 C30         4.6585   -0.7179   -2.8589 C.ar       1 <1>        0.000
     19 C31         4.7650   -1.2360   -4.1318 C.ar       1 <1>        0.000
     20 H          -2.9311    0.1083    0.5570 H.spc      1 <1>        0.000
     21 H          -2.4946   -2.1367   -0.3170 H.spc      1 <1>        0.000
     22 H           1.1325    0.5880    1.4776 H.spc      1 <1>        0.000
     23 H          -2.0683    2.1015    1.2406 H.spc      1 <1>        0.000
     24 H          -0.3293   -3.2191    0.2518 H.spc      1 <1>        0.000
     25 H           3.0878   -4.0814   -3.6707 H.spc      1 <1>        0.000
     26 H           3.1358   -3.3957    0.8327 H.spc      1 <1>        0.000
     27 H           3.7896   -0.9633   -0.9225 H.spc      1 <1>        0.000
     28 H           4.1789   -2.8345   -5.4327 H.spc      1 <1>        0.000
     29 H           5.1665    0.2086   -2.5914 H.spc      1 <1>        0.000
     30 H           5.3373   -0.7103   -4.8961 H.spc      1 <1>        0.000
@<TRIPOS>BOND
     1    2    5 1  
     2    2    4 ar 
     3    3    6 ar 
     4   17   19 ar 
     5    4    7 ar 
     6    6    7 ar 
     7    9   11 2  
     8   10   12 1  
     9   16   18 ar 
    10   12   15 2  
    11    9   10 am 
    12   13   16 ar 
    13    7    9 1  
    14   12   14 2  
    15   12   13 1  
    16   18   19 ar 
    17    8   17 ar 
    18   13    8 ar 
    19    1    3 ar 
    20    1    2 ar 
    21    1   20 1  
    22    3   21 1  
    23    4   22 1  
    24    5   23 1  
    25    6   24 1  
    26    8   25 1  
    27   10   26 1  
    28   16   27 1  
    29   17   28 1  
    30   18   29 1  
    31   19   30 1  
# Name:          frag5-677-62/138278
# Creation time: Sat Jun  5 12:51:52 2010


@<TRIPOS>MOLECULE
frag5-677-62/138278
   30    31     1     1     1
SMALL
USER_CHARGES


@<TRIPOS>ATOM
      1 C9         -1.8419    0.0019    0.5056 C.ar       1 <1>        0.000
      2 C12        -1.7108   -1.1990    1.2077 C.ar       1 <1>        0.000
      3 C13        -0.8111    0.7225   -0.1040 C.ar       1 <1>        0.000
      4 C15        -0.3825   -1.6657    1.1440 C.ar       1 <1>        0.000
      5 O1         -2.7195   -1.8344    1.7911 O.3        1 <1>        0.000
      6 C16         0.4799    0.2282   -0.0167 C.ar       1 <1>        0.000
      7 C17         0.7406   -0.9232    0.7070 C.ar       1 <1>        0.000
      8 C26         4.5695   -2.9757   -2.3457 C.ar       1 <1>        0.000
      9 C20         2.1390   -1.3856    0.9455 C.2        1 <1>        0.000
     10 N3          2.5954   -2.4787    0.2795 N.am       1 <1>        0.000
     11 O4          2.8754   -0.7907    1.6983 O.2        1 <1>        0.000
     12 S1          2.1858   -3.2850   -1.0194 S.o2       1 <1>        0.000
     13 C25         3.2375   -2.5935   -2.1761 C.ar       1 <1>        0.000
     14 O5          2.5649   -4.6353   -0.7106 O.2        1 <1>        0.000
     15 O6          0.8486   -2.8776   -1.3641 O.2        1 <1>        0.000
     16 C27         2.9784   -1.3993   -2.8670 C.ar       1 <1>        0.000
     17 C28         5.3649   -2.5915   -3.4229 C.ar       1 <1>        0.000
     18 C30         3.7399   -0.9166   -3.9309 C.ar       1 <1>        0.000
     19 C31         4.9373   -1.5417   -4.2106 C.ar       1 <1>        0.000
     20 H          -2.8464    0.4174    0.4255 H.spc      1 <1>        0.000
     21 H          -1.0182    1.6513   -0.6355 H.spc      1 <1>        0.000
     22 H          -0.2035   -2.6933    1.4605 H.spc      1 <1>        0.000
     23 H          -3.5204   -1.3130    1.6998 H.spc      1 <1>        0.000
     24 H           1.2948    0.7483   -0.5203 H.spc      1 <1>        0.000
     25 H           5.0163   -3.6166   -1.5856 H.spc      1 <1>        0.000
     26 H           3.4133   -2.8844    0.7342 H.spc      1 <1>        0.000
     27 H           2.1205   -0.8068   -2.5491 H.spc      1 <1>        0.000
     28 H           6.3010   -3.1067   -3.6382 H.spc      1 <1>        0.000
     29 H           3.3984   -0.0689   -4.5249 H.spc      1 <1>        0.000
     30 H           5.5445   -1.2074   -5.0518 H.spc      1 <1>        0.000
@<TRIPOS>BOND
     1    2    5 1  
     2    2    4 ar 
     3    3    6 ar 
     4   17   19 ar 
     5    4    7 ar 
     6    6    7 ar 
     7    9   11 2  
     8   10   12 1  
     9   16   18 ar 
    10   12   15 2  
    11    9   10 am 
    12   13   16 ar 
    13    7    9 1  
    14   12   14 2  
    15   12   13 1  
    16   18   19 ar 
    17    8   17 ar 
    18   13    8 ar 
    19    1    3 ar 
    20    1    2 ar 
    21    1   20 1  
    22    3   21 1  
    23    4   22 1  
    24    5   23 1  
    25    6   24 1  
    26    8   25 1  
    27   10   26 1  
    28   16   27 1  
    29   17   28 1  
    30   18   29 1  
    31   19   30 1  
# Name:          frag5-677-62/138278
# Creation time: Sat Jun  5 12:51:52 2010


@<TRIPOS>MOLECULE
frag5-677-62/138278
   30    31     1     1     1
SMALL
USER_CHARGES


@<TRIPOS>ATOM
      1 C9         -2.0688   -0.0945    0.9913 C.ar       1 <1>        0.000
      2 C12        -1.7157   -1.1738    1.8011 C.ar       1 <1>        0.000
      3 C13        -1.2272    0.6024    0.1196 C.ar       1 <1>        0.000
      4 C15        -0.3925   -1.5706    1.5420 C.ar       1 <1>        0.000
      5 O1         -2.5373   -1.7765    2.6549 O.3        1 <1>        0.000
      6 C16         0.0957    0.2000    0.0262 C.ar       1 <1>        0.000
      7 C17         0.5703   -0.8428    0.8149 C.ar       1 <1>        0.000
      8 C26         4.4136   -1.5428   -2.4113 C.ar       1 <1>        0.000
      9 C20         2.0167   -1.1980    0.8914 C.2        1 <1>        0.000
     10 N3          2.5617   -1.9068   -0.1153 N.am       1 <1>        0.000
     11 O4          2.7151   -0.9049    1.8424 O.2        1 <1>        0.000
     12 S1          2.0072   -2.6127   -1.4190 S.o2       1 <1>        0.000
     13 C25         3.3611   -2.5017   -2.4321 C.ar       1 <1>        0.000
     14 O5          1.7695   -3.9605   -0.9912 O.2        1 <1>        0.000
     15 O6          0.9859   -1.7839   -2.0172 O.2        1 <1>        0.000
     16 C27         3.6007   -3.5055   -3.3304 C.ar       1 <1>        0.000
     17 C28         5.4914   -1.5280   -3.3085 C.ar       1 <1>        0.000
     18 C30         4.5903   -3.5110   -4.2912 C.ar       1 <1>        0.000
     19 C31         5.5536   -2.5293   -4.2566 C.ar       1 <1>        0.000
     20 H          -3.1052    0.2391    1.0434 H.spc      1 <1>        0.000
     21 H          -1.6010    1.4392   -0.4704 H.spc      1 <1>        0.000
     22 H          -0.0808   -2.5352    1.9425 H.spc      1 <1>        0.000
     23 H          -3.3834   -1.3229    2.6574 H.spc      1 <1>        0.000
     24 H           0.7677    0.7033   -0.6689 H.spc      1 <1>        0.000
     25 H           4.3792   -0.7675   -1.6459 H.spc      1 <1>        0.000
     26 H           3.5709   -2.0143   -0.0138 H.spc      1 <1>        0.000
     27 H           2.9511   -4.3795   -3.2825 H.spc      1 <1>        0.000
     28 H           6.2547   -0.7515   -3.2588 H.spc      1 <1>        0.000
     29 H           4.6088   -4.2794   -5.0641 H.spc      1 <1>        0.000
     30 H           6.3686   -2.5423   -4.9803 H.spc      1 <1>        0.000
@<TRIPOS>BOND
     1    2    5 1  
     2    2    4 ar 
     3    3    6 ar 
     4   17   19 ar 
     5    4    7 ar 
     6    6    7 ar 
     7    9   11 2  
     8   10   12 1  
     9   16   18 ar 
    10   12   15 2  
    11    9   10 am 
    12   13   16 ar 
    13    7    9 1  
    14   12   14 2  
    15   12   13 1  
    16   18   19 ar 
    17    8   17 ar 
    18   13    8 ar 
    19    1    3 ar 
    20    1    2 ar 
    21    1   20 1  
    22    3   21 1  
    23    4   22 1  
    24    5   23 1  
    25    6   24 1  
    26    8   25 1  
    27   10   26 1  
    28   16   27 1  
    29   17   28 1  
    30   18   29 1  
    31   19   30 1  
# Name:          frag5-677-62/138278
# Creation time: Sat Jun  5 12:51:52 2010


@<TRIPOS>MOLECULE
frag5-677-62/138278
   30    31     1     1     1
SMALL
USER_CHARGES


@<TRIPOS>ATOM
      1 C9         -0.4004    0.6897    0.7290 C.ar       1 <1>        0.000
      2 C12        -0.4765    0.2190   -0.5811 C.ar       1 <1>        0.000
      3 C13         0.0266   -0.0406    1.8440 C.ar       1 <1>        0.000
      4 C15         0.0323   -1.0797   -0.6848 C.ar       1 <1>        0.000
      5 O1         -0.9346    0.9458   -1.6050 O.3        1 <1>        0.000
      6 C16         0.4169   -1.3576    1.6549 C.ar       1 <1>        0.000
      7 C17         0.3571   -1.9337    0.3935 C.ar       1 <1>        0.000
      8 C26         3.4344   -2.6423   -2.8928 C.ar       1 <1>        0.000
      9 C20         0.5965   -3.3922    0.1461 C.2        1 <1>        0.000
     10 N3          1.7710   -3.7836   -0.4277 N.am       1 <1>        0.000
     11 O4         -0.1807   -4.2236    0.5369 O.2        1 <1>        0.000
     12 S1          3.2705   -3.2947   -0.2332 S.o2       1 <1>        0.000
     13 C25         3.3262   -2.2198   -1.5629 C.ar       1 <1>        0.000
     14 O5          3.2699   -2.5808    1.0071 O.2        1 <1>        0.000
     15 O6          4.1174   -4.4116   -0.5102 O.2        1 <1>        0.000
     16 C27         2.9898   -0.8780   -1.4717 C.ar       1 <1>        0.000
     17 C28         3.5819   -1.7790   -3.9786 C.ar       1 <1>        0.000
     18 C30         3.1519    0.0450   -2.4949 C.ar       1 <1>        0.000
     19 C31         3.4412   -0.4232   -3.7578 C.ar       1 <1>        0.000
     20 H          -0.7016    1.7230    0.9010 H.spc      1 <1>        0.000
     21 H           0.0517    0.4138    2.8345 H.spc      1 <1>        0.000
     22 H           0.1932   -1.4691   -1.6901 H.spc      1 <1>        0.000
     23 H          -1.2289    1.8008   -1.2827 H.spc      1 <1>        0.000
     24 H           0.7728   -1.9441    2.5019 H.spc      1 <1>        0.000
     25 H           3.4013   -3.7133   -3.0927 H.spc      1 <1>        0.000
     26 H           1.6666   -4.5328   -1.1119 H.spc      1 <1>        0.000
     27 H           2.5687   -0.5235   -0.5309 H.spc      1 <1>        0.000
     28 H           3.8022   -2.1642   -4.9742 H.spc      1 <1>        0.000
     29 H           3.0528    1.1136   -2.3043 H.spc      1 <1>        0.000
     30 H           3.5592    0.2778   -4.5841 H.spc      1 <1>        0.000
@<TRIPOS>BOND
     1    2    5 1  
     2    2    4 ar 
     3    3    6 ar 
     4   17   19 ar 
     5    4    7 ar 
     6    6    7 ar 
     7    9   11 2  
     8   10   12 1  
     9   16   18 ar 
    10   12   15 2  
    11    9   10 am 
    12   13   16 ar 
    13    7    9 1  
    14   12   14 2  
    15   12   13 1  
    16   18   19 ar 
    17    8   17 ar 
    18   13    8 ar 
    19    1    3 ar 
    20    1    2 ar 
    21    1   20 1  
    22    3   21 1  
    23    4   22 1  
    24    5   23 1  
    25    6   24 1  
    26    8   25 1  
    27   10   26 1  
    28   16   27 1  
    29   17   28 1  
    30   18   29 1  
    31   19   30 1  
# Name:          frag5-677-62/138278
# Creation time: Sat Jun  5 12:51:52 2010


@<TRIPOS>MOLECULE
frag5-677-62/138278
   30    31     1     1     1
SMALL
USER_CHARGES


@<TRIPOS>ATOM
      1 C9         -1.8267    0.5084    0.8968 C.ar       1 <1>        0.000
      2 C12        -0.7637    0.4578    1.8081 C.ar       1 <1>        0.000
      3 C13        -1.9910   -0.2549   -0.2708 C.ar       1 <1>        0.000
      4 C15         0.0948   -0.5651    1.4727 C.ar       1 <1>        0.000
      5 O1         -0.6238    1.2433    2.8623 O.3        1 <1>        0.000
      6 C16        -1.0376   -1.1730   -0.5842 C.ar       1 <1>        0.000
      7 C17        -0.0478   -1.3727    0.3408 C.ar       1 <1>        0.000
      8 C26         2.9109   -1.5789   -2.7713 C.ar       1 <1>        0.000
      9 C20         0.9140   -2.3705    0.0611 C.2        1 <1>        0.000
     10 N3          2.2176   -1.9979    0.0902 N.am       1 <1>        0.000
     11 O4          0.5510   -3.4945   -0.2391 O.2        1 <1>        0.000
     12 S1          3.5407   -2.7788   -0.2648 S.o2       1 <1>        0.000
     13 C25         3.6385   -2.4827   -1.9399 C.ar       1 <1>        0.000
     14 O5          4.5994   -2.0678    0.4267 O.2        1 <1>        0.000
     15 O6          3.3098   -4.1830   -0.0609 O.2        1 <1>        0.000
     16 C27         4.4461   -3.2929   -2.7182 C.ar       1 <1>        0.000
     17 C28         3.1355   -1.3716   -4.1405 C.ar       1 <1>        0.000
     18 C30         4.6864   -3.1749   -4.0741 C.ar       1 <1>        0.000
     19 C31         4.0372   -2.1912   -4.7842 C.ar       1 <1>        0.000
     20 H          -2.6185    1.2235    1.1199 H.spc      1 <1>        0.000
     21 H          -2.8622   -0.1148   -0.9108 H.spc      1 <1>        0.000
     22 H           0.9406   -0.7576    2.1328 H.spc      1 <1>        0.000
     23 H          -1.3434    1.8784    2.8845 H.spc      1 <1>        0.000
     24 H          -1.0603   -1.7227   -1.5252 H.spc      1 <1>        0.000
     25 H           2.1139   -1.0013   -2.3031 H.spc      1 <1>        0.000
     26 H           2.3700   -1.0374    0.3978 H.spc      1 <1>        0.000
     27 H           4.9476   -4.1140   -2.2060 H.spc      1 <1>        0.000
     28 H           2.6109   -0.5835   -4.6807 H.spc      1 <1>        0.000
     29 H           5.3801   -3.8512   -4.5737 H.spc      1 <1>        0.000
     30 H           4.2347   -2.0611   -5.8482 H.spc      1 <1>        0.000
@<TRIPOS>BOND
     1    2    5 1  
     2    2    4 ar 
     3    3    6 ar 
     4   17   19 ar 
     5    4    7 ar 
     6    6    7 ar 
     7    9   11 2  
     8   10   12 1  
     9   16   18 ar 
    10   12   15 2  
    11    9   10 am 
    12   13   16 ar 
    13    7    9 1  
    14   12   14 2  
    15   12   13 1  
    16   18   19 ar 
    17    8   17 ar 
    18   13    8 ar 
    19    1    3 ar 
    20    1    2 ar 
    21    1   20 1  
    22    3   21 1  
    23    4   22 1  
    24    5   23 1  
    25    6   24 1  
    26    8   25 1  
    27   10   26 1  
    28   16   27 1  
    29   17   28 1  
    30   18   29 1  
    31   19   30 1  
# Name:          frag5-677-62/138278
# Creation time: Sat Jun  5 12:51:52 2010


@<TRIPOS>MOLECULE
frag5-677-62/138278
   30    31     1     1     1
SMALL
USER_CHARGES


@<TRIPOS>ATOM
      1 C9         -1.6588    0.2159    0.5414 C.ar       1 <1>        0.000
      2 C12        -0.6087    0.2282    1.4662 C.ar       1 <1>        0.000
      3 C13        -1.7902   -0.6427   -0.5508 C.ar       1 <1>        0.000
      4 C15         0.2734   -0.8328    1.2283 C.ar       1 <1>        0.000
      5 O1         -0.4900    1.1058    2.4549 O.3        1 <1>        0.000
      6 C16        -0.8063   -1.5829   -0.7686 C.ar       1 <1>        0.000
      7 C17         0.2121   -1.7472    0.1526 C.ar       1 <1>        0.000
      8 C26         2.8514   -1.3596   -2.6200 C.ar       1 <1>        0.000
      9 C20         1.1253   -2.8877    0.0173 C.2        1 <1>        0.000
     10 N3          2.4079   -2.7730    0.4780 N.am       1 <1>        0.000
     11 O4          0.8219   -3.8640   -0.6407 O.2        1 <1>        0.000
     12 S1          3.5993   -1.8587   -0.0335 S.o2       1 <1>        0.000
     13 C25         3.5408   -2.1738   -1.7157 C.ar       1 <1>        0.000
     14 O5          3.1741   -0.5166    0.2477 O.2        1 <1>        0.000
     15 O6          4.8104   -2.4513    0.4935 O.2        1 <1>        0.000
     16 C27         3.9126   -3.3833   -2.3464 C.ar       1 <1>        0.000
     17 C28         2.9347   -1.4525   -4.0062 C.ar       1 <1>        0.000
     18 C30         3.9809   -3.5808   -3.7305 C.ar       1 <1>        0.000
     19 C31         3.5006   -2.5840   -4.5566 C.ar       1 <1>        0.000
     20 H          -2.4520    0.9489    0.6886 H.spc      1 <1>        0.000
     21 H          -2.6507   -0.5714   -1.2160 H.spc      1 <1>        0.000
     22 H           1.0863   -0.9664    1.9421 H.spc      1 <1>        0.000
     23 H          -1.2129    1.7359    2.4104 H.spc      1 <1>        0.000
     24 H          -0.8308   -2.1979   -1.6682 H.spc      1 <1>        0.000
     25 H           2.1974   -0.5918   -2.2066 H.spc      1 <1>        0.000
     26 H           2.6338   -3.3682    1.2749 H.spc      1 <1>        0.000
     27 H           4.1657   -4.2275   -1.7051 H.spc      1 <1>        0.000
     28 H           2.5615   -0.6499   -4.6423 H.spc      1 <1>        0.000
     29 H           4.4019   -4.4968   -4.1450 H.spc      1 <1>        0.000
     30 H           3.5683   -2.6907   -5.6393 H.spc      1 <1>        0.000
@<TRIPOS>BOND
     1    2    5 1  
     2    2    4 ar 
     3    3    6 ar 
     4   17   19 ar 
     5    4    7 ar 
     6    6    7 ar 
     7    9   11 2  
     8   10   12 1  
     9   16   18 ar 
    10   12   15 2  
    11    9   10 am 
    12   13   16 ar 
    13    7    9 1  
    14   12   14 2  
    15   12   13 1  
    16   18   19 ar 
    17    8   17 ar 
    18   13    8 ar 
    19    1    3 ar 
    20    1    2 ar 
    21    1   20 1  
    22    3   21 1  
    23    4   22 1  
    24    5   23 1  
    25    6   24 1  
    26    8   25 1  
    27   10   26 1  
    28   16   27 1  
    29   17   28 1  
    30   18   29 1  
    31   19   30 1  
# Name:          frag5-677-62/138278
# Creation time: Sat Jun  5 12:51:52 2010


@<TRIPOS>MOLECULE
frag5-677-62/138278
   30    31     1     1     1
SMALL
USER_CHARGES


@<TRIPOS>ATOM
      1 C9         -1.2743    0.7775    1.6707 C.ar       1 <1>        0.000
      2 C12        -1.7268   -0.5440    1.7033 C.ar       1 <1>        0.000
      3 C13        -0.1290    1.2724    1.0171 C.ar       1 <1>        0.000
      4 C15        -0.9558   -1.3304    0.8755 C.ar       1 <1>        0.000
      5 O1         -2.7749   -0.9789    2.3874 O.3        1 <1>        0.000
      6 C16         0.6491    0.3977    0.3194 C.ar       1 <1>        0.000
      7 C17         0.1688   -0.8750    0.1900 C.ar       1 <1>        0.000
      8 C26         3.5676   -1.3336   -2.3538 C.ar       1 <1>        0.000
      9 C20         0.8946   -1.8257   -0.5633 C.2        1 <1>        0.000
     10 N3          2.0408   -2.2757    0.0102 N.am       1 <1>        0.000
     11 O4          0.4943   -2.1981   -1.6478 O.2        1 <1>        0.000
     12 S1          3.0317   -3.4084   -0.4782 S.o2       1 <1>        0.000
     13 C25         3.6450   -2.6850   -1.8923 C.ar       1 <1>        0.000
     14 O5          4.0740   -3.4691    0.5368 O.2        1 <1>        0.000
     15 O6          2.2305   -4.5465   -0.8201 O.2        1 <1>        0.000
     16 C27         4.1850   -3.4874   -2.8821 C.ar       1 <1>        0.000
     17 C28         4.1548   -0.8329   -3.5203 C.ar       1 <1>        0.000
     18 C30         4.7586   -3.0699   -4.0670 C.ar       1 <1>        0.000
     19 C31         4.7576   -1.7280   -4.3749 C.ar       1 <1>        0.000
     20 H          -1.8755    1.5079    2.2122 H.spc      1 <1>        0.000
     21 H           0.1290    2.3302    1.0681 H.spc      1 <1>        0.000
     22 H          -1.2434   -2.3741    0.7488 H.spc      1 <1>        0.000
     23 H          -3.1504   -0.2531    2.8911 H.spc      1 <1>        0.000
     24 H           1.6039    0.6974   -0.1125 H.spc      1 <1>        0.000
     25 H           3.0008   -0.6316   -1.7423 H.spc      1 <1>        0.000
     26 H           2.3006   -1.8164    0.8831 H.spc      1 <1>        0.000
     27 H           4.1544   -4.5630   -2.7081 H.spc      1 <1>        0.000
     28 H           4.1357    0.2334   -3.7458 H.spc      1 <1>        0.000
     29 H           5.2060   -3.7929   -4.7491 H.spc      1 <1>        0.000
     30 H           5.2319   -1.3760   -5.2910 H.spc      1 <1>        0.000
@<TRIPOS>BOND
     1    2    5 1  
     2    2    4 ar 
     3    3    6 ar 
     4   17   19 ar 
     5    4    7 ar 
     6    6    7 ar 
     7    9   11 2  
     8   10   12 1  
     9   16   18 ar 
    10   12   15 2  
    11    9   10 am 
    12   13   16 ar 
    13    7    9 1  
    14   12   14 2  
    15   12   13 1  
    16   18   19 ar 
    17    8   17 ar 
    18   13    8 ar 
    19    1    3 ar 
    20    1    2 ar 
    21    1   20 1  
    22    3   21 1  
    23    4   22 1  
    24    5   23 1  
    25    6   24 1  
    26    8   25 1  
    27   10   26 1  
    28   16   27 1  
    29   17   28 1  
    30   18   29 1  
    31   19   30 1  
# Name:          frag5-677-62/138278
# Creation time: Sat Jun  5 12:51:52 2010


@<TRIPOS>MOLECULE
frag5-677-62/138278
   30    31     1     1     1
SMALL
USER_CHARGES


@<TRIPOS>ATOM
      1 C9         -1.7153    0.3299    1.7307 C.ar       1 <1>        0.000
      2 C12        -1.9845   -0.9083    1.1355 C.ar       1 <1>        0.000
      3 C13        -0.4837    0.9827    1.8131 C.ar       1 <1>        0.000
      4 C15        -0.8402   -1.3997    0.5275 C.ar       1 <1>        0.000
      5 O1         -3.1675   -1.5014    1.0972 O.3        1 <1>        0.000
      6 C16         0.6100    0.3820    1.2681 C.ar       1 <1>        0.000
      7 C17         0.4286   -0.8072    0.6181 C.ar       1 <1>        0.000
      8 C26         4.7322   -3.0455   -2.1658 C.ar       1 <1>        0.000
      9 C20         1.5868   -1.3811    0.0172 C.2        1 <1>        0.000
     10 N3          1.3541   -2.3685   -0.8891 N.am       1 <1>        0.000
     11 O4          2.7058   -1.0659    0.3519 O.2        1 <1>        0.000
     12 S1          2.2770   -3.5693   -1.2811 S.o2       1 <1>        0.000
     13 C25         3.3963   -2.7288   -2.2418 C.ar       1 <1>        0.000
     14 O5          2.8579   -4.0219   -0.0476 O.2        1 <1>        0.000
     15 O6          1.4963   -4.4468   -2.1215 O.2        1 <1>        0.000
     16 C27         3.1967   -1.5618   -3.0317 C.ar       1 <1>        0.000
     17 C28         5.7272   -2.5625   -2.9961 C.ar       1 <1>        0.000
     18 C30         4.1716   -0.9648   -3.8434 C.ar       1 <1>        0.000
     19 C31         5.4424   -1.5020   -3.8303 C.ar       1 <1>        0.000
     20 H          -2.5646    0.8433    2.1815 H.spc      1 <1>        0.000
     21 H          -0.3996    1.9526    2.3033 H.spc      1 <1>        0.000
     22 H          -0.9323   -2.3112   -0.0631 H.spc      1 <1>        0.000
     23 H          -3.8037   -0.9760    1.5880 H.spc      1 <1>        0.000
     24 H           1.5984    0.8346    1.3474 H.spc      1 <1>        0.000
     25 H           5.0339   -3.7392   -1.3811 H.spc      1 <1>        0.000
     26 H           0.4600   -2.3195   -1.3775 H.spc      1 <1>        0.000
     27 H           2.2112   -1.0969   -3.0035 H.spc      1 <1>        0.000
     28 H           6.7199   -3.0126   -2.9912 H.spc      1 <1>        0.000
     29 H           3.9328   -0.1025   -4.4659 H.spc      1 <1>        0.000
     30 H           6.2177   -1.0900   -4.4763 H.spc      1 <1>        0.000
@<TRIPOS>BOND
     1    2    5 1  
     2    2    4 ar 
     3    3    6 ar 
     4   17   19 ar 
     5    4    7 ar 
     6    6    7 ar 
     7    9   11 2  
     8   10   12 1  
     9   16   18 ar 
    10   12   15 2  
    11    9   10 am 
    12   13   16 ar 
    13    7    9 1  
    14   12   14 2  
    15   12   13 1  
    16   18   19 ar 
    17    8   17 ar 
    18   13    8 ar 
    19    1    3 ar 
    20    1    2 ar 
    21    1   20 1  
    22    3   21 1  
    23    4   22 1  
    24    5   23 1  
    25    6   24 1  
    26    8   25 1  
    27   10   26 1  
    28   16   27 1  
    29   17   28 1  
    30   18   29 1  
    31   19   30 1  
# Name:          frag5-677-62/138278
# Creation time: Sat Jun  5 12:51:52 2010


@<TRIPOS>MOLECULE
frag5-677-62/138278
   30    31     1     1     1
SMALL
USER_CHARGES


@<TRIPOS>ATOM
      1 C9         -1.6736    0.3295    1.4301 C.ar       1 <1>        0.000
      2 C12        -0.4341    0.8206    1.0114 C.ar       1 <1>        0.000
      3 C13        -2.1286   -0.9957    1.3689 C.ar       1 <1>        0.000
      4 C15         0.3680   -0.2235    0.5936 C.ar       1 <1>        0.000
      5 O1         -0.0465    2.0848    1.0694 O.3        1 <1>        0.000
      6 C16        -1.3049   -1.9417    0.8531 C.ar       1 <1>        0.000
      7 C17        -0.0836   -1.5281    0.4191 C.ar       1 <1>        0.000
      8 C26         2.6515   -1.7904   -2.7709 C.ar       1 <1>        0.000
      9 C20         0.7609   -2.5634   -0.0936 C.2        1 <1>        0.000
     10 N3          2.0923   -2.4233    0.0945 N.am       1 <1>        0.000
     11 O4          0.2884   -3.5016   -0.6906 O.2        1 <1>        0.000
     12 S1          3.2773   -3.2892   -0.4330 S.o2       1 <1>        0.000
     13 C25         3.5494   -2.5169   -1.9447 C.ar       1 <1>        0.000
     14 O5          4.3448   -2.9780    0.4953 O.2        1 <1>        0.000
     15 O6          2.8517   -4.6234   -0.6988 O.2        1 <1>        0.000
     16 C27         4.8275   -2.4690   -2.4468 C.ar       1 <1>        0.000
     17 C28         2.9745   -1.2121   -4.0060 C.ar       1 <1>        0.000
     18 C30         5.2036   -1.9884   -3.6838 C.ar       1 <1>        0.000
     19 C31         4.2726   -1.3312   -4.4562 C.ar       1 <1>        0.000
     20 H          -2.3650    1.0589    1.8520 H.spc      1 <1>        0.000
     21 H          -3.1232   -1.2598    1.7283 H.spc      1 <1>        0.000
     22 H           1.4176   -0.0129    0.3883 H.spc      1 <1>        0.000
     23 H          -0.7721    2.6265    1.3882 H.spc      1 <1>        0.000
     24 H          -1.6079   -2.9868    0.7891 H.spc      1 <1>        0.000
     25 H           1.6278   -1.6730   -2.4156 H.spc      1 <1>        0.000
     26 H           2.3642   -1.6272    0.6713 H.spc      1 <1>        0.000
     27 H           5.6224   -2.8481   -1.8044 H.spc      1 <1>        0.000
     28 H           2.2227   -0.6843   -4.5928 H.spc      1 <1>        0.000
     29 H           6.2228   -2.1269   -4.0444 H.spc      1 <1>        0.000
     30 H           4.5599   -0.9073   -5.4184 H.spc      1 <1>        0.000
@<TRIPOS>BOND
     1    2    5 1  
     2    2    4 ar 
     3    3    6 ar 
     4   17   19 ar 
     5    4    7 ar 
     6    6    7 ar 
     7    9   11 2  
     8   10   12 1  
     9   16   18 ar 
    10   12   15 2  
    11    9   10 am 
    12   13   16 ar 
    13    7    9 1  
    14   12   14 2  
    15   12   13 1  
    16   18   19 ar 
    17    8   17 ar 
    18   13    8 ar 
    19    1    3 ar 
    20    1    2 ar 
    21    1   20 1  
    22    3   21 1  
    23    4   22 1  
    24    5   23 1  
    25    6   24 1  
    26    8   25 1  
    27   10   26 1  
    28   16   27 1  
    29   17   28 1  
    30   18   29 1  
    31   19   30 1  
# Name:          frag5-677-62/138278
# Creation time: Sat Jun  5 12:51:52 2010


@<TRIPOS>MOLECULE
frag5-677-62/138278
   30    31     1     1     1
SMALL
USER_CHARGES


@<TRIPOS>ATOM
      1 C9         -1.7866   -0.0056    1.9083 C.ar       1 <1>        0.000
      2 C12        -1.4336    0.4152    0.6210 C.ar       1 <1>        0.000
      3 C13        -1.1627   -1.0059    2.6674 C.ar       1 <1>        0.000
      4 C15        -0.2956   -0.2414    0.1892 C.ar       1 <1>        0.000
      5 O1         -2.0652    1.3545   -0.0612 O.3        1 <1>        0.000
      6 C16        -0.1007   -1.6693    2.1275 C.ar       1 <1>        0.000
      7 C17         0.3669   -1.2208    0.9162 C.ar       1 <1>        0.000
      8 C26         3.3253   -2.3705   -3.6818 C.ar       1 <1>        0.000
      9 C20         1.5213   -1.8415    0.3625 C.2        1 <1>        0.000
     10 N3          1.4074   -2.3773   -0.8817 N.am       1 <1>        0.000
     11 O4          2.5344   -1.9649    1.0360 O.2        1 <1>        0.000
     12 S1          2.2090   -3.5776   -1.5148 S.o2       1 <1>        0.000
     13 C25         3.4185   -2.6954   -2.3253 C.ar       1 <1>        0.000
     14 O5          2.7804   -4.3360   -0.4354 O.2        1 <1>        0.000
     15 O6          1.3152   -4.1687   -2.4886 O.2        1 <1>        0.000
     16 C27         4.4746   -1.9934   -1.7160 C.ar       1 <1>        0.000
     17 C28         4.3176   -1.7572   -4.4298 C.ar       1 <1>        0.000
     18 C30         5.5320   -1.4072   -2.4059 C.ar       1 <1>        0.000
     19 C31         5.4332   -1.2778   -3.7769 C.ar       1 <1>        0.000
     20 H          -2.6364    0.4975    2.3696 H.spc      1 <1>        0.000
     21 H          -1.5193   -1.2482    3.6685 H.spc      1 <1>        0.000
     22 H           0.1079    0.0281   -0.7869 H.spc      1 <1>        0.000
     23 H          -2.8242    1.6582    0.4420 H.spc      1 <1>        0.000
     24 H           0.3572   -2.5184    2.6349 H.spc      1 <1>        0.000
     25 H           2.3956   -2.6201   -4.1932 H.spc      1 <1>        0.000
     26 H           0.7095   -1.9444   -1.4867 H.spc      1 <1>        0.000
     27 H           4.4641   -1.9024   -0.6299 H.spc      1 <1>        0.000
     28 H           4.2183   -1.6560   -5.5105 H.spc      1 <1>        0.000
     29 H           6.4181   -1.0582   -1.8756 H.spc      1 <1>        0.000
     30 H           6.2337   -0.7987   -4.3406 H.spc      1 <1>        0.000
@<TRIPOS>BOND
     1    2    5 1  
     2    2    4 ar 
     3    3    6 ar 
     4   17   19 ar 
     5    4    7 ar 
     6    6    7 ar 
     7    9   11 2  
     8   10   12 1  
     9   16   18 ar 
    10   12   15 2  
    11    9   10 am 
    12   13   16 ar 
    13    7    9 1  
    14   12   14 2  
    15   12   13 1  
    16   18   19 ar 
    17    8   17 ar 
    18   13    8 ar 
    19    1    3 ar 
    20    1    2 ar 
    21    1   20 1  
    22    3   21 1  
    23    4   22 1  
    24    5   23 1  
    25    6   24 1  
    26    8   25 1  
    27   10   26 1  
    28   16   27 1  
    29   17   28 1  
    30   18   29 1  
    31   19   30 1  
# Name:          frag5-677-62/138278
# Creation time: Sat Jun  5 12:51:52 2010


@<TRIPOS>MOLECULE
frag5-677-62/138278
   30    31     1     1     1
SMALL
USER_CHARGES


@<TRIPOS>ATOM
      1 C9         -0.9279    0.3633    2.4488 C.ar       1 <1>        0.000
      2 C12        -1.5092    0.4907    1.1834 C.ar       1 <1>        0.000
      3 C13         0.1234   -0.4806    2.8120 C.ar       1 <1>        0.000
      4 C15        -0.8307   -0.2646    0.2516 C.ar       1 <1>        0.000
      5 O1         -2.5398    1.2630    0.8910 O.3        1 <1>        0.000
      6 C16         0.6733   -1.2741    1.8448 C.ar       1 <1>        0.000
      7 C17         0.1633   -1.1724    0.5619 C.ar       1 <1>        0.000
      8 C26         3.0511   -2.1731   -3.3277 C.ar       1 <1>        0.000
      9 C20         0.6830   -1.9378   -0.5316 C.2        1 <1>        0.000
     10 N3          1.9013   -2.4875   -0.3158 N.am       1 <1>        0.000
     11 O4          0.0627   -2.1406   -1.5414 O.2        1 <1>        0.000
     12 S1          2.6424   -3.6605   -1.0409 S.o2       1 <1>        0.000
     13 C25         3.5588   -2.7868   -2.1685 C.ar       1 <1>        0.000
     14 O5          3.4631   -4.1957    0.0104 O.2        1 <1>        0.000
     15 O6          1.6608   -4.4385   -1.7534 O.2        1 <1>        0.000
     16 C27         4.8792   -2.4087   -1.9362 C.ar       1 <1>        0.000
     17 C28         3.8286   -1.5594   -4.3092 C.ar       1 <1>        0.000
     18 C30         5.7260   -1.8619   -2.8906 C.ar       1 <1>        0.000
     19 C31         5.1821   -1.4155   -4.0778 C.ar       1 <1>        0.000
     20 H          -1.3407    0.9916    3.2380 H.spc      1 <1>        0.000
     21 H           0.4945   -0.5058    3.8366 H.spc      1 <1>        0.000
     22 H          -1.0954   -0.1375   -0.7981 H.spc      1 <1>        0.000
     23 H          -2.8531    1.6928    1.6902 H.spc      1 <1>        0.000
     24 H           1.4855   -1.9634    2.0756 H.spc      1 <1>        0.000
     25 H           1.9703   -2.1775   -3.4693 H.spc      1 <1>        0.000
     26 H           2.4260   -2.0652    0.4502 H.spc      1 <1>        0.000
     27 H           5.2766   -2.5527   -0.9315 H.spc      1 <1>        0.000
     28 H           3.3791   -1.2023   -5.2358 H.spc      1 <1>        0.000
     29 H           6.7977   -1.7867   -2.7063 H.spc      1 <1>        0.000
     30 H           5.8191   -0.9508   -4.8304 H.spc      1 <1>        0.000
@<TRIPOS>BOND
     1    2    5 1  
     2    2    4 ar 
     3    3    6 ar 
     4   17   19 ar 
     5    4    7 ar 
     6    6    7 ar 
     7    9   11 2  
     8   10   12 1  
     9   16   18 ar 
    10   12   15 2  
    11    9   10 am 
    12   13   16 ar 
    13    7    9 1  
    14   12   14 2  
    15   12   13 1  
    16   18   19 ar 
    17    8   17 ar 
    18   13    8 ar 
    19    1    3 ar 
    20    1    2 ar 
    21    1   20 1  
    22    3   21 1  
    23    4   22 1  
    24    5   23 1  
    25    6   24 1  
    26    8   25 1  
    27   10   26 1  
    28   16   27 1  
    29   17   28 1  
    30   18   29 1  
    31   19   30 1  
# Name:          frag5-677-62/138278
# Creation time: Sat Jun  5 12:51:53 2010


@<TRIPOS>MOLECULE
frag5-677-62/138278
   30    31     1     1     1
SMALL
USER_CHARGES


@<TRIPOS>ATOM
      1 C9         -1.4464    0.3704    0.2934 C.ar       1 <1>        0.000
      2 C12        -1.5321   -0.6635    1.2325 C.ar       1 <1>        0.000
      3 C13        -0.3153    0.7340   -0.4456 C.ar       1 <1>        0.000
      4 C15        -0.3332   -1.3870    1.2601 C.ar       1 <1>        0.000
      5 O1         -2.6202   -0.9457    1.9360 O.3        1 <1>        0.000
      6 C16         0.8528    0.0144   -0.2601 C.ar       1 <1>        0.000
      7 C17         0.9011   -0.9851    0.7070 C.ar       1 <1>        0.000
      8 C26         4.1505   -1.6975   -1.8737 C.ar       1 <1>        0.000
      9 C20         2.1627   -1.6956    1.0856 C.2        1 <1>        0.000
     10 N3          2.5532   -2.7809    0.3542 N.am       1 <1>        0.000
     11 O4          2.8493   -1.3281    2.0189 O.2        1 <1>        0.000
     12 S1          2.1117   -3.4875   -0.9831 S.o2       1 <1>        0.000
     13 C25         3.1144   -2.6617   -2.0912 C.ar       1 <1>        0.000
     14 O5          2.5205   -4.8647   -0.8636 O.2        1 <1>        0.000
     15 O6          0.7436   -3.1102   -1.2696 O.2        1 <1>        0.000
     16 C27         2.8871   -2.8295   -3.4403 C.ar       1 <1>        0.000
     17 C28         4.9472   -1.1262   -2.8793 C.ar       1 <1>        0.000
     18 C30         3.5972   -2.2687   -4.4790 C.ar       1 <1>        0.000
     19 C31         4.6471   -1.4276   -4.1912 C.ar       1 <1>        0.000
     20 H          -2.3524    0.9512    0.1201 H.spc      1 <1>        0.000
     21 H          -0.3529    1.5643   -1.1508 H.spc      1 <1>        0.000
     22 H          -0.3559   -2.3563    1.7581 H.spc      1 <1>        0.000
     23 H          -3.3033   -0.3004    1.7394 H.spc      1 <1>        0.000
     24 H           1.7309    0.2298   -0.8689 H.spc      1 <1>        0.000
     25 H           4.3354   -1.3821   -0.8468 H.spc      1 <1>        0.000
     26 H           3.3401   -3.2621    0.7896 H.spc      1 <1>        0.000
     27 H           2.0543   -3.4768   -3.7154 H.spc      1 <1>        0.000
     28 H           5.7772   -0.4649   -2.6306 H.spc      1 <1>        0.000
     29 H           3.3313   -2.4880   -5.5131 H.spc      1 <1>        0.000
     30 H           5.2410   -1.0000   -4.9990 H.spc      1 <1>        0.000
@<TRIPOS>BOND
     1    2    5 1  
     2    2    4 ar 
     3    3    6 ar 
     4   17   19 ar 
     5    4    7 ar 
     6    6    7 ar 
     7    9   11 2  
     8   10   12 1  
     9   16   18 ar 
    10   12   15 2  
    11    9   10 am 
    12   13   16 ar 
    13    7    9 1  
    14   12   14 2  
    15   12   13 1  
    16   18   19 ar 
    17    8   17 ar 
    18   13    8 ar 
    19    1    3 ar 
    20    1    2 ar 
    21    1   20 1  
    22    3   21 1  
    23    4   22 1  
    24    5   23 1  
    25    6   24 1  
    26    8   25 1  
    27   10   26 1  
    28   16   27 1  
    29   17   28 1  
    30   18   29 1  
    31   19   30 1  
# Name:          frag5-677-62/138278
# Creation time: Sat Jun  5 12:51:53 2010


@<TRIPOS>MOLECULE
frag5-677-62/138278
   30    31     1     1     1
SMALL
USER_CHARGES


@<TRIPOS>ATOM
      1 C9         -1.8100   -0.3458    0.6225 C.ar       1 <1>        0.000
      2 C12        -0.7378    0.3429    0.0515 C.ar       1 <1>        0.000
      3 C13        -1.7589   -1.5992    1.2390 C.ar       1 <1>        0.000
      4 C15         0.4702   -0.3414    0.2921 C.ar       1 <1>        0.000
      5 O1         -0.8508    1.4986   -0.5903 O.3        1 <1>        0.000
      6 C16        -0.5324   -2.2358    1.3365 C.ar       1 <1>        0.000
      7 C17         0.6294   -1.5793    0.9512 C.ar       1 <1>        0.000
      8 C26         4.4972   -1.9960   -1.8520 C.ar       1 <1>        0.000
      9 C20         1.9707   -2.1701    1.2285 C.2        1 <1>        0.000
     10 N3          2.5658   -2.9375    0.2777 N.am       1 <1>        0.000
     11 O4          2.5177   -2.0243    2.3016 O.2        1 <1>        0.000
     12 S1          2.2312   -3.4990   -1.1592 S.o2       1 <1>        0.000
     13 C25         3.1867   -2.4656   -2.1182 C.ar       1 <1>        0.000
     14 O5          2.7461   -4.8379   -1.1921 O.2        1 <1>        0.000
     15 O6          0.8383   -3.1956   -1.4019 O.2        1 <1>        0.000
     16 C27         2.6168   -1.7485   -3.1528 C.ar       1 <1>        0.000
     17 C28         5.2689   -1.2635   -2.7610 C.ar       1 <1>        0.000
     18 C30         3.2997   -0.9856   -4.0798 C.ar       1 <1>        0.000
     19 C31         4.6427   -0.7573   -3.8824 C.ar       1 <1>        0.000
     20 H          -2.7837    0.1427    0.5836 H.spc      1 <1>        0.000
     21 H          -2.6622   -2.0645    1.6335 H.spc      1 <1>        0.000
     22 H           1.3802    0.1370   -0.0700 H.spc      1 <1>        0.000
     23 H          -1.7751    1.7559   -0.6234 H.spc      1 <1>        0.000
     24 H          -0.4789   -3.2558    1.7170 H.spc      1 <1>        0.000
     25 H           4.9315   -2.2195   -0.8776 H.spc      1 <1>        0.000
     26 H           3.4937   -3.2358    0.5785 H.spc      1 <1>        0.000
     27 H           1.5315   -1.7885   -3.2456 H.spc      1 <1>        0.000
     28 H           6.3324   -1.0976   -2.5888 H.spc      1 <1>        0.000
     29 H           2.7864   -0.5734   -4.9486 H.spc      1 <1>        0.000
     30 H           5.2108   -0.1779   -4.6102 H.spc      1 <1>        0.000
@<TRIPOS>BOND
     1    2    5 1  
     2    2    4 ar 
     3    3    6 ar 
     4   17   19 ar 
     5    4    7 ar 
     6    6    7 ar 
     7    9   11 2  
     8   10   12 1  
     9   16   18 ar 
    10   12   15 2  
    11    9   10 am 
    12   13   16 ar 
    13    7    9 1  
    14   12   14 2  
    15   12   13 1  
    16   18   19 ar 
    17    8   17 ar 
    18   13    8 ar 
    19    1    3 ar 
    20    1    2 ar 
    21    1   20 1  
    22    3   21 1  
    23    4   22 1  
    24    5   23 1  
    25    6   24 1  
    26    8   25 1  
    27   10   26 1  
    28   16   27 1  
    29   17   28 1  
    30   18   29 1  
    31   19   30 1  
# Name:          frag5-677-62/138278
# Creation time: Sat Jun  5 12:51:53 2010


@<TRIPOS>MOLECULE
frag5-677-62/138278
   30    31     1     1     1
SMALL
USER_CHARGES


@<TRIPOS>ATOM
      1 C9         -2.1735   -0.8795    1.7750 C.ar       1 <1>        0.000
      2 C12        -1.7573   -0.3542    0.5521 C.ar       1 <1>        0.000
      3 C13        -1.4211   -1.6895    2.6298 C.ar       1 <1>        0.000
      4 C15        -0.4089   -0.6681    0.3332 C.ar       1 <1>        0.000
      5 O1         -2.4967    0.4017   -0.2485 O.3        1 <1>        0.000
      6 C16        -0.1401   -2.0246    2.2674 C.ar       1 <1>        0.000
      7 C17         0.4288   -1.4758    1.1434 C.ar       1 <1>        0.000
      8 C26         3.8909   -1.3701   -3.5170 C.ar       1 <1>        0.000
      9 C20         1.8686   -1.7404    0.9301 C.2        1 <1>        0.000
     10 N3          2.4105   -1.5060   -0.2894 N.am       1 <1>        0.000
     11 O4          2.5748   -2.2619    1.7759 O.2        1 <1>        0.000
     12 S1          1.9491   -1.9202   -1.7496 S.o2       1 <1>        0.000
     13 C25         3.4401   -2.2018   -2.5000 C.ar       1 <1>        0.000
     14 O5          1.2490   -3.1758   -1.6193 O.2        1 <1>        0.000
     15 O6          1.3475   -0.7434   -2.3335 O.2        1 <1>        0.000
     16 C27         4.4630   -3.0766   -2.0734 C.ar       1 <1>        0.000
     17 C28         5.0382   -1.5517   -4.2622 C.ar       1 <1>        0.000
     18 C30         5.6217   -3.3467   -2.8036 C.ar       1 <1>        0.000
     19 C31         5.9068   -2.5562   -3.8996 C.ar       1 <1>        0.000
     20 H          -3.1859   -0.6340    2.0959 H.spc      1 <1>        0.000
     21 H          -1.8440   -2.0490    3.5679 H.spc      1 <1>        0.000
     22 H           0.0473   -0.2433   -0.5609 H.spc      1 <1>        0.000
     23 H          -3.3845    0.4725    0.1099 H.spc      1 <1>        0.000
     24 H           0.4285   -2.7294    2.8742 H.spc      1 <1>        0.000
     25 H           3.2836   -0.4948   -3.7474 H.spc      1 <1>        0.000
     26 H           3.2739   -0.9635   -0.2639 H.spc      1 <1>        0.000
     27 H           4.3399   -3.5735   -1.1111 H.spc      1 <1>        0.000
     28 H           5.2520   -0.9134   -5.1195 H.spc      1 <1>        0.000
     29 H           6.2855   -4.1619   -2.5157 H.spc      1 <1>        0.000
     30 H           6.8164   -2.7271   -4.4754 H.spc      1 <1>        0.000
@<TRIPOS>BOND
     1    2    5 1  
     2    2    4 ar 
     3    3    6 ar 
     4   17   19 ar 
     5    4    7 ar 
     6    6    7 ar 
     7    9   11 2  
     8   10   12 1  
     9   16   18 ar 
    10   12   15 2  
    11    9   10 am 
    12   13   16 ar 
    13    7    9 1  
    14   12   14 2  
    15   12   13 1  
    16   18   19 ar 
    17    8   17 ar 
    18   13    8 ar 
    19    1    3 ar 
    20    1    2 ar 
    21    1   20 1  
    22    3   21 1  
    23    4   22 1  
    24    5   23 1  
    25    6   24 1  
    26    8   25 1  
    27   10   26 1  
    28   16   27 1  
    29   17   28 1  
    30   18   29 1  
    31   19   30 1  
# Name:          frag5-677-62/138278
# Creation time: Sat Jun  5 12:51:53 2010


@<TRIPOS>MOLECULE
frag5-677-62/138278
   30    31     1     1     1
SMALL
USER_CHARGES


@<TRIPOS>ATOM
      1 C9         -1.8994    0.3283    1.0963 C.ar       1 <1>        0.000
      2 C12        -1.0980   -0.2486    2.0905 C.ar       1 <1>        0.000
      3 C13        -1.6399    0.3533   -0.2790 C.ar       1 <1>        0.000
      4 C15        -0.0288   -0.9299    1.5275 C.ar       1 <1>        0.000
      5 O1         -1.3580   -0.1978    3.3858 O.3        1 <1>        0.000
      6 C16        -0.5051   -0.2459   -0.7424 C.ar       1 <1>        0.000
      7 C17         0.3194   -0.8168    0.1868 C.ar       1 <1>        0.000
      8 C26         4.6037   -2.2329   -1.9249 C.ar       1 <1>        0.000
      9 C20         1.5159   -1.4096   -0.2767 C.2        1 <1>        0.000
     10 N3          1.5166   -2.7758   -0.3716 N.am       1 <1>        0.000
     11 O4          2.4685   -0.7206   -0.5514 O.2        1 <1>        0.000
     12 S1          2.7350   -3.7278   -0.6550 S.o2       1 <1>        0.000
     13 C25         3.4081   -2.9398   -2.0125 C.ar       1 <1>        0.000
     14 O5          3.5503   -3.5876    0.5201 O.2        1 <1>        0.000
     15 O6          2.1689   -4.9844   -1.0951 O.2        1 <1>        0.000
     16 C27         2.7382   -2.6335   -3.2264 C.ar       1 <1>        0.000
     17 C28         5.2942   -1.7015   -3.0003 C.ar       1 <1>        0.000
     18 C30         3.3498   -2.0567   -4.3435 C.ar       1 <1>        0.000
     19 C31         4.6519   -1.6133   -4.2176 C.ar       1 <1>        0.000
     20 H          -2.8205    0.8073    1.4283 H.spc      1 <1>        0.000
     21 H          -2.3308    0.8418   -0.9661 H.spc      1 <1>        0.000
     22 H           0.5654   -1.5838    2.1658 H.spc      1 <1>        0.000
     23 H          -2.1458    0.3308    3.5324 H.spc      1 <1>        0.000
     24 H          -0.2666   -0.2684   -1.8057 H.spc      1 <1>        0.000
     25 H           5.0294   -2.0864   -0.9322 H.spc      1 <1>        0.000
     26 H           0.6139   -3.2327   -0.2422 H.spc      1 <1>        0.000
     27 H           1.6748   -2.8637   -3.2918 H.spc      1 <1>        0.000
     28 H           6.3232   -1.3601   -2.8876 H.spc      1 <1>        0.000
     29 H           2.8139   -1.9596   -5.2877 H.spc      1 <1>        0.000
     30 H           5.1712   -1.1941   -5.0794 H.spc      1 <1>        0.000
@<TRIPOS>BOND
     1    2    5 1  
     2    2    4 ar 
     3    3    6 ar 
     4   17   19 ar 
     5    4    7 ar 
     6    6    7 ar 
     7    9   11 2  
     8   10   12 1  
     9   16   18 ar 
    10   12   15 2  
    11    9   10 am 
    12   13   16 ar 
    13    7    9 1  
    14   12   14 2  
    15   12   13 1  
    16   18   19 ar 
    17    8   17 ar 
    18   13    8 ar 
    19    1    3 ar 
    20    1    2 ar 
    21    1   20 1  
    22    3   21 1  
    23    4   22 1  
    24    5   23 1  
    25    6   24 1  
    26    8   25 1  
    27   10   26 1  
    28   16   27 1  
    29   17   28 1  
    30   18   29 1  
    31   19   30 1  
# Name:          frag5-677-62/138278
# Creation time: Sat Jun  5 12:51:53 2010


@<TRIPOS>MOLECULE
frag5-677-62/138278
   30    31     1     1     1
SMALL
USER_CHARGES


@<TRIPOS>ATOM
      1 C9         -1.9112   -0.4846    0.4474 C.ar       1 <1>        0.000
      2 C12        -0.8581    0.2360   -0.1002 C.ar       1 <1>        0.000
      3 C13        -1.8250   -1.7230    1.1007 C.ar       1 <1>        0.000
      4 C15         0.3623   -0.3796    0.2264 C.ar       1 <1>        0.000
      5 O1         -0.9919    1.3676   -0.7872 O.3        1 <1>        0.000
      6 C16        -0.5757   -2.3000    1.2638 C.ar       1 <1>        0.000
      7 C17         0.5589   -1.5852    0.9427 C.ar       1 <1>        0.000
      8 C26         3.4569   -0.9744   -1.8040 C.ar       1 <1>        0.000
      9 C20         1.9119   -2.1120    1.2918 C.2        1 <1>        0.000
     10 N3          2.5659   -2.8680    0.3794 N.am       1 <1>        0.000
     11 O4          2.4116   -1.8867    2.3728 O.2        1 <1>        0.000
     12 S1          2.2900   -3.4525   -1.0837 S.o2       1 <1>        0.000
     13 C25         3.1906   -2.3457   -2.0328 C.ar       1 <1>        0.000
     14 O5          2.9062   -4.7453   -1.0883 O.2        1 <1>        0.000
     15 O6          0.9119   -3.2565   -1.4223 O.2        1 <1>        0.000
     16 C27         3.9141   -2.8048   -3.1013 C.ar       1 <1>        0.000
     17 C28         4.1664   -0.1230   -2.6663 C.ar       1 <1>        0.000
     18 C30         4.5803   -2.0237   -4.0360 C.ar       1 <1>        0.000
     19 C31         4.7262   -0.6793   -3.7917 C.ar       1 <1>        0.000
     20 H          -2.9044   -0.0438    0.3610 H.spc      1 <1>        0.000
     21 H          -2.7210   -2.2205    1.4719 H.spc      1 <1>        0.000
     22 H           1.2639    0.1312   -0.1115 H.spc      1 <1>        0.000
     23 H          -1.9243    1.5775   -0.8774 H.spc      1 <1>        0.000
     24 H          -0.4900   -3.3174    1.6454 H.spc      1 <1>        0.000
     25 H           3.0783   -0.5417   -0.8780 H.spc      1 <1>        0.000
     26 H           3.4888   -3.1399    0.7180 H.spc      1 <1>        0.000
     27 H           3.9724   -3.8856   -3.2300 H.spc      1 <1>        0.000
     28 H           4.2695    0.9405   -2.4510 H.spc      1 <1>        0.000
     29 H           4.9803   -2.4688   -4.9470 H.spc      1 <1>        0.000
     30 H           5.2849   -0.0552   -4.4891 H.spc      1 <1>        0.000
@<TRIPOS>BOND
     1    2    5 1  
     2    2    4 ar 
     3    3    6 ar 
     4   17   19 ar 
     5    4    7 ar 
     6    6    7 ar 
     7    9   11 2  
     8   10   12 1  
     9   16   18 ar 
    10   12   15 2  
    11    9   10 am 
    12   13   16 ar 
    13    7    9 1  
    14   12   14 2  
    15   12   13 1  
    16   18   19 ar 
    17    8   17 ar 
    18   13    8 ar 
    19    1    3 ar 
    20    1    2 ar 
    21    1   20 1  
    22    3   21 1  
    23    4   22 1  
    24    5   23 1  
    25    6   24 1  
    26    8   25 1  
    27   10   26 1  
    28   16   27 1  
    29   17   28 1  
    30   18   29 1  
    31   19   30 1  
# Name:          frag5-677-62/138278
# Creation time: Sat Jun  5 12:51:53 2010


@<TRIPOS>MOLECULE
frag5-677-62/138278
   30    31     1     1     1
SMALL
USER_CHARGES


@<TRIPOS>ATOM
      1 C9         -0.8308    0.2958    1.5722 C.ar       1 <1>        0.000
      2 C12        -0.0517    0.6114    0.4513 C.ar       1 <1>        0.000
      3 C13        -1.1495   -0.9837    2.0272 C.ar       1 <1>        0.000
      4 C15         0.4716   -0.5589   -0.1305 C.ar       1 <1>        0.000
      5 O1          0.1922    1.8537    0.0444 O.3        1 <1>        0.000
      6 C16        -0.6570   -2.0683    1.3330 C.ar       1 <1>        0.000
      7 C17         0.0868   -1.8920    0.1776 C.ar       1 <1>        0.000
      8 C26         2.8330   -2.6973   -2.9692 C.ar       1 <1>        0.000
      9 C20         0.4532   -3.1185   -0.5767 C.2        1 <1>        0.000
     10 N3          1.6825   -3.6882   -0.4096 N.am       1 <1>        0.000
     11 O4         -0.3122   -3.6005   -1.3954 O.2        1 <1>        0.000
     12 S1          3.1170   -3.0723   -0.1563 S.o2       1 <1>        0.000
     13 C25         3.3647   -2.3400   -1.6825 C.ar       1 <1>        0.000
     14 O5          2.9191   -2.0755    0.8744 O.2        1 <1>        0.000
     15 O6          4.0544   -4.1505   -0.0251 O.2        1 <1>        0.000
     16 C27         4.0807   -1.1642   -1.7735 C.ar       1 <1>        0.000
     17 C28         3.1208   -2.0405   -4.1802 C.ar       1 <1>        0.000
     18 C30         4.4621   -0.5101   -2.9325 C.ar       1 <1>        0.000
     19 C31         3.9544   -0.9413   -4.1378 C.ar       1 <1>        0.000
     20 H          -1.2274    1.1335    2.1458 H.spc      1 <1>        0.000
     21 H          -1.7730   -1.1227    2.9104 H.spc      1 <1>        0.000
     22 H           1.2444   -0.4306   -0.8884 H.spc      1 <1>        0.000
     23 H          -0.2821    2.4718    0.6053 H.spc      1 <1>        0.000
     24 H          -0.8552   -3.0763    1.6975 H.spc      1 <1>        0.000
     25 H           2.1510   -3.5466   -3.0104 H.spc      1 <1>        0.000
     26 H           1.6742   -4.7071   -0.4573 H.spc      1 <1>        0.000
     27 H           4.3777   -0.7009   -0.8326 H.spc      1 <1>        0.000
     28 H           2.6984   -2.3892   -5.1226 H.spc      1 <1>        0.000
     29 H           5.1527    0.3322   -2.8917 H.spc      1 <1>        0.000
     30 H           4.2106   -0.4151   -5.0573 H.spc      1 <1>        0.000
@<TRIPOS>BOND
     1    2    5 1  
     2    2    4 ar 
     3    3    6 ar 
     4   17   19 ar 
     5    4    7 ar 
     6    6    7 ar 
     7    9   11 2  
     8   10   12 1  
     9   16   18 ar 
    10   12   15 2  
    11    9   10 am 
    12   13   16 ar 
    13    7    9 1  
    14   12   14 2  
    15   12   13 1  
    16   18   19 ar 
    17    8   17 ar 
    18   13    8 ar 
    19    1    3 ar 
    20    1    2 ar 
    21    1   20 1  
    22    3   21 1  
    23    4   22 1  
    24    5   23 1  
    25    6   24 1  
    26    8   25 1  
    27   10   26 1  
    28   16   27 1  
    29   17   28 1  
    30   18   29 1  
    31   19   30 1  
# Name:          frag5-677-62/138278
# Creation time: Sat Jun  5 12:51:53 2010


@<TRIPOS>MOLECULE
frag5-677-62/138278
   30    31     1     1     1
SMALL
USER_CHARGES


@<TRIPOS>ATOM
      1 C9         -0.1073    0.9799    1.7261 C.ar       1 <1>        0.000
      2 C12        -1.1093    0.5304    0.8674 C.ar       1 <1>        0.000
      3 C13         1.1519    0.4102    1.9190 C.ar       1 <1>        0.000
      4 C15        -0.6765   -0.5405    0.1092 C.ar       1 <1>        0.000
      5 O1         -2.3069    1.0886    0.7276 O.3        1 <1>        0.000
      6 C16         1.4595   -0.7304    1.2054 C.ar       1 <1>        0.000
      7 C17         0.5114   -1.2272    0.3145 C.ar       1 <1>        0.000
      8 C26         2.7886   -2.7946   -3.1546 C.ar       1 <1>        0.000
      9 C20         0.6818   -2.4306   -0.4582 C.2        1 <1>        0.000
     10 N3          1.5814   -3.3226    0.0065 N.am       1 <1>        0.000
     11 O4          0.1808   -2.5765   -1.5451 O.2        1 <1>        0.000
     12 S1          2.7618   -4.0608   -0.7434 S.o2       1 <1>        0.000
     13 C25         3.2610   -2.8510   -1.8373 C.ar       1 <1>        0.000
     14 O5          3.7546   -4.2349    0.2859 O.2        1 <1>        0.000
     15 O6          2.1266   -5.1360   -1.4486 O.2        1 <1>        0.000
     16 C27         3.9639   -1.6795   -1.5144 C.ar       1 <1>        0.000
     17 C28         3.2129   -1.9006   -4.1345 C.ar       1 <1>        0.000
     18 C30         4.4781   -0.7740   -2.4491 C.ar       1 <1>        0.000
     19 C31         4.0770   -0.8910   -3.7655 C.ar       1 <1>        0.000
     20 H          -0.3316    1.8727    2.3098 H.spc      1 <1>        0.000
     21 H           1.8692    0.8517    2.6108 H.spc      1 <1>        0.000
     22 H          -1.3152   -0.8700   -0.7103 H.spc      1 <1>        0.000
     23 H          -2.3962    1.8124    1.3519 H.spc      1 <1>        0.000
     24 H           2.4197   -1.2295    1.3358 H.spc      1 <1>        0.000
     25 H           2.0207   -3.5144   -3.4380 H.spc      1 <1>        0.000
     26 H           1.4851   -3.5570    0.9945 H.spc      1 <1>        0.000
     27 H           4.1206   -1.4592   -0.4585 H.spc      1 <1>        0.000
     28 H           2.8713   -1.9962   -5.1652 H.spc      1 <1>        0.000
     29 H           5.1780    0.0046   -2.1457 H.spc      1 <1>        0.000
     30 H           4.4430   -0.1861   -4.5120 H.spc      1 <1>        0.000
@<TRIPOS>BOND
     1    2    5 1  
     2    2    4 ar 
     3    3    6 ar 
     4   17   19 ar 
     5    4    7 ar 
     6    6    7 ar 
     7    9   11 2  
     8   10   12 1  
     9   16   18 ar 
    10   12   15 2  
    11    9   10 am 
    12   13   16 ar 
    13    7    9 1  
    14   12   14 2  
    15   12   13 1  
    16   18   19 ar 
    17    8   17 ar 
    18   13    8 ar 
    19    1    3 ar 
    20    1    2 ar 
    21    1   20 1  
    22    3   21 1  
    23    4   22 1  
    24    5   23 1  
    25    6   24 1  
    26    8   25 1  
    27   10   26 1  
    28   16   27 1  
    29   17   28 1  
    30   18   29 1  
    31   19   30 1  
# Name:          frag5-677-62/138278
# Creation time: Sat Jun  5 12:51:53 2010


@<TRIPOS>MOLECULE
frag5-677-62/138278
   30    31     1     1     1
SMALL
USER_CHARGES


@<TRIPOS>ATOM
      1 C9         -1.5051    0.4482    0.4758 C.ar       1 <1>        0.000
      2 C12        -0.7608    0.3233    1.6499 C.ar       1 <1>        0.000
      3 C13        -1.4057   -0.3636   -0.6603 C.ar       1 <1>        0.000
      4 C15         0.0678   -0.8127    1.5821 C.ar       1 <1>        0.000
      5 O1         -0.8786    1.1357    2.6930 O.3        1 <1>        0.000
      6 C16        -0.4797   -1.3927   -0.6588 C.ar       1 <1>        0.000
      7 C17         0.1912   -1.7206    0.5118 C.ar       1 <1>        0.000
      8 C26         4.6881   -2.2808   -2.6536 C.ar       1 <1>        0.000
      9 C20         1.0649   -2.9289    0.6076 C.2        1 <1>        0.000
     10 N3          2.3224   -2.8763    0.0845 N.am       1 <1>        0.000
     11 O4          0.6659   -3.9488    1.1438 O.2        1 <1>        0.000
     12 S1          3.2788   -1.7282   -0.4507 S.o2       1 <1>        0.000
     13 C25         3.4358   -2.2133   -2.0715 C.ar       1 <1>        0.000
     14 O5          2.5764   -0.4728   -0.4283 O.2        1 <1>        0.000
     15 O6          4.5406   -1.8902    0.2399 O.2        1 <1>        0.000
     16 C27         2.4595   -2.7927   -2.9211 C.ar       1 <1>        0.000
     17 C28         4.9583   -2.5794   -3.9701 C.ar       1 <1>        0.000
     18 C30         2.6474   -3.0720   -4.2757 C.ar       1 <1>        0.000
     19 C31         3.9242   -2.9754   -4.7874 C.ar       1 <1>        0.000
     20 H          -2.2351    1.2569    0.4400 H.spc      1 <1>        0.000
     21 H          -2.0433   -0.1893   -1.5270 H.spc      1 <1>        0.000
     22 H           0.6847   -1.0129    2.4581 H.spc      1 <1>        0.000
     23 H          -1.5057    1.8323    2.4854 H.spc      1 <1>        0.000
     24 H          -0.2774   -1.9454   -1.5762 H.spc      1 <1>        0.000
     25 H           5.5431   -2.0783   -2.0086 H.spc      1 <1>        0.000
     26 H           2.7535   -3.7986    0.0217 H.spc      1 <1>        0.000
     27 H           1.4914   -3.0379   -2.4844 H.spc      1 <1>        0.000
     28 H           5.9739   -2.5035   -4.3585 H.spc      1 <1>        0.000
     29 H           1.8090   -3.3582   -4.9107 H.spc      1 <1>        0.000
     30 H           4.1136   -3.2116   -5.8345 H.spc      1 <1>        0.000
@<TRIPOS>BOND
     1    2    5 1  
     2    2    4 ar 
     3    3    6 ar 
     4   17   19 ar 
     5    4    7 ar 
     6    6    7 ar 
     7    9   11 2  
     8   10   12 1  
     9   16   18 ar 
    10   12   15 2  
    11    9   10 am 
    12   13   16 ar 
    13    7    9 1  
    14   12   14 2  
    15   12   13 1  
    16   18   19 ar 
    17    8   17 ar 
    18   13    8 ar 
    19    1    3 ar 
    20    1    2 ar 
    21    1   20 1  
    22    3   21 1  
    23    4   22 1  
    24    5   23 1  
    25    6   24 1  
    26    8   25 1  
    27   10   26 1  
    28   16   27 1  
    29   17   28 1  
    30   18   29 1  
    31   19   30 1  
# Name:          frag5-677-62/138278
# Creation time: Sat Jun  5 12:51:53 2010


@<TRIPOS>MOLECULE
frag5-677-62/138278
   30    31     1     1     1
SMALL
USER_CHARGES


@<TRIPOS>ATOM
      1 C9         -1.8997   -0.0424    1.4524 C.ar       1 <1>        0.000
      2 C12        -1.9106   -1.3067    0.8667 C.ar       1 <1>        0.000
      3 C13        -0.7743    0.6985    1.8179 C.ar       1 <1>        0.000
      4 C15        -0.5991   -1.7085    0.5522 C.ar       1 <1>        0.000
      5 O1         -3.0236   -1.9901    0.6196 O.3        1 <1>        0.000
      6 C16         0.4695    0.1712    1.5578 C.ar       1 <1>        0.000
      7 C17         0.5983   -1.0818    1.0108 C.ar       1 <1>        0.000
      8 C26         4.5347   -1.7239   -1.9185 C.ar       1 <1>        0.000
      9 C20         1.9693   -1.6535    0.9145 C.2        1 <1>        0.000
     10 N3          2.2342   -2.4889   -0.1086 N.am       1 <1>        0.000
     11 O4          2.8716   -1.3368    1.6682 O.2        1 <1>        0.000
     12 S1          1.8254   -2.5046   -1.6387 S.o2       1 <1>        0.000
     13 C25         3.3437   -2.3438   -2.3948 C.ar       1 <1>        0.000
     14 O5          1.2840   -3.8230   -1.8067 O.2        1 <1>        0.000
     15 O6          1.1075   -1.2952   -1.9635 O.2        1 <1>        0.000
     16 C27         3.5551   -2.9757   -3.5970 C.ar       1 <1>        0.000
     17 C28         5.7386   -1.6399   -2.6401 C.ar       1 <1>        0.000
     18 C30         4.6811   -2.8731   -4.3904 C.ar       1 <1>        0.000
     19 C31         5.7856   -2.2228   -3.8910 C.ar       1 <1>        0.000
     20 H          -2.8700    0.4154    1.6451 H.spc      1 <1>        0.000
     21 H          -0.8786    1.6715    2.2979 H.spc      1 <1>        0.000
     22 H          -0.4879   -2.5752   -0.0994 H.spc      1 <1>        0.000
     23 H          -3.7807   -1.4913    0.9351 H.spc      1 <1>        0.000
     24 H           1.3615    0.7537    1.7882 H.spc      1 <1>        0.000
     25 H           4.5110   -1.2826   -0.9221 H.spc      1 <1>        0.000
     26 H           2.8224   -3.2782    0.1586 H.spc      1 <1>        0.000
     27 H           2.7554   -3.6213   -3.9600 H.spc      1 <1>        0.000
     28 H           6.6081   -1.1303   -2.2248 H.spc      1 <1>        0.000
     29 H           4.6942   -3.2995   -5.3935 H.spc      1 <1>        0.000
     30 H           6.6989   -2.1676   -4.4834 H.spc      1 <1>        0.000
@<TRIPOS>BOND
     1    2    5 1  
     2    2    4 ar 
     3    3    6 ar 
     4   17   19 ar 
     5    4    7 ar 
     6    6    7 ar 
     7    9   11 2  
     8   10   12 1  
     9   16   18 ar 
    10   12   15 2  
    11    9   10 am 
    12   13   16 ar 
    13    7    9 1  
    14   12   14 2  
    15   12   13 1  
    16   18   19 ar 
    17    8   17 ar 
    18   13    8 ar 
    19    1    3 ar 
    20    1    2 ar 
    21    1   20 1  
    22    3   21 1  
    23    4   22 1  
    24    5   23 1  
    25    6   24 1  
    26    8   25 1  
    27   10   26 1  
    28   16   27 1  
    29   17   28 1  
    30   18   29 1  
    31   19   30 1  
# Name:          frag5-677-62/138278
# Creation time: Sat Jun  5 12:51:53 2010


@<TRIPOS>MOLECULE
frag5-677-62/138278
   30    31     1     1     1
SMALL
USER_CHARGES


@<TRIPOS>ATOM
      1 C9         -0.8394    0.2933   -0.5656 C.ar       1 <1>        0.000
      2 C12         0.2182    0.8124    0.1795 C.ar       1 <1>        0.000
      3 C13        -1.0906   -1.0614   -0.8274 C.ar       1 <1>        0.000
      4 C15         0.9677   -0.2208    0.7367 C.ar       1 <1>        0.000
      5 O1          0.4445    2.1072    0.3762 O.3        1 <1>        0.000
      6 C16        -0.2363   -2.0092   -0.2880 C.ar       1 <1>        0.000
      7 C17         0.7738   -1.6115    0.5776 C.ar       1 <1>        0.000
      8 C26         1.8782   -2.4178   -2.7144 C.ar       1 <1>        0.000
      9 C20         1.6824   -2.5119    1.3239 C.2        1 <1>        0.000
     10 N3          2.7002   -3.1505    0.6933 N.am       1 <1>        0.000
     11 O4          1.4940   -2.7157    2.5149 O.2        1 <1>        0.000
     12 S1          2.8908   -3.9290   -0.7006 S.o2       1 <1>        0.000
     13 C25         2.9006   -2.6191   -1.7947 C.ar       1 <1>        0.000
     14 O5          4.1733   -4.5639   -0.6764 O.2        1 <1>        0.000
     15 O6          1.6584   -4.6636   -0.8775 O.2        1 <1>        0.000
     16 C27         3.7358   -1.4927   -1.7437 C.ar       1 <1>        0.000
     17 C28         1.8280   -1.4233   -3.6854 C.ar       1 <1>        0.000
     18 C30         3.7965   -0.4948   -2.7254 C.ar       1 <1>        0.000
     19 C31         2.8152   -0.4686   -3.6922 C.ar       1 <1>        0.000
     20 H          -1.5417    1.0125   -0.9871 H.spc      1 <1>        0.000
     21 H          -1.9393   -1.3619   -1.4418 H.spc      1 <1>        0.000
     22 H           1.8025    0.0787    1.3704 H.spc      1 <1>        0.000
     23 H          -0.2027    2.6217   -0.1116 H.spc      1 <1>        0.000
     24 H          -0.3566   -3.0624   -0.5420 H.spc      1 <1>        0.000
     25 H           1.0340   -3.1059   -2.6704 H.spc      1 <1>        0.000
     26 H           3.5604   -3.1320    1.2411 H.spc      1 <1>        0.000
     27 H           4.3860   -1.3860   -0.8754 H.spc      1 <1>        0.000
     28 H           1.0253   -1.4022   -4.4225 H.spc      1 <1>        0.000
     29 H           4.5997    0.2421   -2.7243 H.spc      1 <1>        0.000
     30 H           2.8224    0.3062   -4.4588 H.spc      1 <1>        0.000
@<TRIPOS>BOND
     1    2    5 1  
     2    2    4 ar 
     3    3    6 ar 
     4   17   19 ar 
     5    4    7 ar 
     6    6    7 ar 
     7    9   11 2  
     8   10   12 1  
     9   16   18 ar 
    10   12   15 2  
    11    9   10 am 
    12   13   16 ar 
    13    7    9 1  
    14   12   14 2  
    15   12   13 1  
    16   18   19 ar 
    17    8   17 ar 
    18   13    8 ar 
    19    1    3 ar 
    20    1    2 ar 
    21    1   20 1  
    22    3   21 1  
    23    4   22 1  
    24    5   23 1  
    25    6   24 1  
    26    8   25 1  
    27   10   26 1  
    28   16   27 1  
    29   17   28 1  
    30   18   29 1  
    31   19   30 1  
# Name:          frag5-677-62/138278
# Creation time: Sat Jun  5 12:51:53 2010


@<TRIPOS>MOLECULE
frag5-677-62/138278
   30    31     1     1     1
SMALL
USER_CHARGES


@<TRIPOS>ATOM
      1 C9         -1.5927    0.2398    1.7822 C.ar       1 <1>        0.000
      2 C12        -1.7926   -0.1700    0.4589 C.ar       1 <1>        0.000
      3 C13        -0.4711   -0.0042    2.5801 C.ar       1 <1>        0.000
      4 C15        -0.6560   -0.7819   -0.0320 C.ar       1 <1>        0.000
      5 O1         -2.8855    0.0183   -0.2579 O.3        1 <1>        0.000
      6 C16         0.5659   -0.7127    2.0504 C.ar       1 <1>        0.000
      7 C17         0.4875   -1.0539    0.7231 C.ar       1 <1>        0.000
      8 C26         4.6863   -2.8246   -1.9983 C.ar       1 <1>        0.000
      9 C20         1.5835   -1.7599    0.1723 C.2        1 <1>        0.000
     10 N3          1.2954   -2.6749   -0.7967 N.am       1 <1>        0.000
     11 O4          2.7169   -1.5859    0.5753 O.2        1 <1>        0.000
     12 S1          2.2369   -3.7510   -1.4368 S.o2       1 <1>        0.000
     13 C25         3.3274   -2.7090   -2.2158 C.ar       1 <1>        0.000
     14 O5          2.8257   -4.4233   -0.3045 O.2        1 <1>        0.000
     15 O6          1.4560   -4.4427   -2.4329 O.2        1 <1>        0.000
     16 C27         3.0362   -1.5095   -2.9316 C.ar       1 <1>        0.000
     17 C28         5.6730   -2.1588   -2.7020 C.ar       1 <1>        0.000
     18 C30         3.9850   -0.7388   -3.6160 C.ar       1 <1>        0.000
     19 C31         5.3135   -1.0980   -3.5070 C.ar       1 <1>        0.000
     20 H          -2.3996    0.8116    2.2406 H.spc      1 <1>        0.000
     21 H          -0.4267    0.3646    3.6049 H.spc      1 <1>        0.000
     22 H          -0.6507   -1.0731   -1.0824 H.spc      1 <1>        0.000
     23 H          -3.5474    0.4593    0.2797 H.spc      1 <1>        0.000
     24 H           1.4250   -0.9976    2.6578 H.spc      1 <1>        0.000
     25 H           5.0085   -3.4981   -1.2042 H.spc      1 <1>        0.000
     26 H           0.3395   -2.6562   -1.1522 H.spc      1 <1>        0.000
     27 H           2.0011   -1.1683   -2.9470 H.spc      1 <1>        0.000
     28 H           6.7156   -2.4666   -2.6220 H.spc      1 <1>        0.000
     29 H           3.6832    0.1191   -4.2168 H.spc      1 <1>        0.000
     30 H           6.0761   -0.5450   -4.0554 H.spc      1 <1>        0.000
@<TRIPOS>BOND
     1    2    5 1  
     2    2    4 ar 
     3    3    6 ar 
     4   17   19 ar 
     5    4    7 ar 
     6    6    7 ar 
     7    9   11 2  
     8   10   12 1  
     9   16   18 ar 
    10   12   15 2  
    11    9   10 am 
    12   13   16 ar 
    13    7    9 1  
    14   12   14 2  
    15   12   13 1  
    16   18   19 ar 
    17    8   17 ar 
    18   13    8 ar 
    19    1    3 ar 
    20    1    2 ar 
    21    1   20 1  
    22    3   21 1  
    23    4   22 1  
    24    5   23 1  
    25    6   24 1  
    26    8   25 1  
    27   10   26 1  
    28   16   27 1  
    29   17   28 1  
    30   18   29 1  
    31   19   30 1  
# Name:          frag5-677-62/138278
# Creation time: Sat Jun  5 12:51:53 2010


@<TRIPOS>MOLECULE
frag5-677-62/138278
   30    31     1     1     1
SMALL
USER_CHARGES


@<TRIPOS>ATOM
      1 C9         -2.2475   -0.7511    1.0462 C.ar       1 <1>        0.000
      2 C12        -1.4190    0.0729    1.8045 C.ar       1 <1>        0.000
      3 C13        -1.8453   -1.7715    0.1860 C.ar       1 <1>        0.000
      4 C15        -0.0833   -0.3077    1.6739 C.ar       1 <1>        0.000
      5 O1         -1.8380    1.0596    2.5994 O.3        1 <1>        0.000
      6 C16        -0.4884   -2.0488    0.1187 C.ar       1 <1>        0.000
      7 C17         0.4417   -1.3379    0.8867 C.ar       1 <1>        0.000
      8 C26         4.1291   -3.4697   -1.9215 C.ar       1 <1>        0.000
      9 C20         1.8973   -1.6181    0.9673 C.2        1 <1>        0.000
     10 N3          2.6026   -1.6501   -0.1805 N.am       1 <1>        0.000
     11 O4          2.4789   -1.7972    2.0279 O.2        1 <1>        0.000
     12 S1          2.3660   -1.2792   -1.7091 S.o2       1 <1>        0.000
     13 C25         3.4399   -2.3521   -2.4494 C.ar       1 <1>        0.000
     14 O5          1.0425   -1.6752   -2.1227 O.2        1 <1>        0.000
     15 O6          2.8022    0.0696   -1.8786 O.2        1 <1>        0.000
     16 C27         3.7824   -2.0959   -3.7478 C.ar       1 <1>        0.000
     17 C28         4.9514   -4.3184   -2.6664 C.ar       1 <1>        0.000
     18 C30         4.6051   -2.8719   -4.5350 C.ar       1 <1>        0.000
     19 C31         5.1737   -3.9980   -3.9887 C.ar       1 <1>        0.000
     20 H          -3.3204   -0.5804    1.1346 H.spc      1 <1>        0.000
     21 H          -2.5682   -2.3289   -0.4097 H.spc      1 <1>        0.000
     22 H           0.6380    0.2668    2.2552 H.spc      1 <1>        0.000
     23 H          -2.7918    1.1428    2.5287 H.spc      1 <1>        0.000
     24 H          -0.1381   -2.8377   -0.5469 H.spc      1 <1>        0.000
     25 H           4.0100   -3.6832   -0.8593 H.spc      1 <1>        0.000
     26 H           3.5446   -2.0102   -0.0274 H.spc      1 <1>        0.000
     27 H           3.3670   -1.1961   -4.2016 H.spc      1 <1>        0.000
     28 H           5.4019   -5.2037   -2.2175 H.spc      1 <1>        0.000
     29 H           4.8014   -2.5980   -5.5716 H.spc      1 <1>        0.000
     30 H           5.8034   -4.6407   -4.6040 H.spc      1 <1>        0.000
@<TRIPOS>BOND
     1    2    5 1  
     2    2    4 ar 
     3    3    6 ar 
     4   17   19 ar 
     5    4    7 ar 
     6    6    7 ar 
     7    9   11 2  
     8   10   12 1  
     9   16   18 ar 
    10   12   15 2  
    11    9   10 am 
    12   13   16 ar 
    13    7    9 1  
    14   12   14 2  
    15   12   13 1  
    16   18   19 ar 
    17    8   17 ar 
    18   13    8 ar 
    19    1    3 ar 
    20    1    2 ar 
    21    1   20 1  
    22    3   21 1  
    23    4   22 1  
    24    5   23 1  
    25    6   24 1  
    26    8   25 1  
    27   10   26 1  
    28   16   27 1  
    29   17   28 1  
    30   18   29 1  
    31   19   30 1  
# Name:          frag5-677-62/138278
# Creation time: Sat Jun  5 12:51:53 2010


@<TRIPOS>MOLECULE
frag5-677-62/138278
   30    31     1     1     1
SMALL
USER_CHARGES


@<TRIPOS>ATOM
      1 C9         -1.7188    0.2084    0.8628 C.ar       1 <1>        0.000
      2 C12        -1.6797   -1.1628    1.1286 C.ar       1 <1>        0.000
      3 C13        -0.6385    1.0202    0.5066 C.ar       1 <1>        0.000
      4 C15        -0.4048   -1.6758    0.8713 C.ar       1 <1>        0.000
      5 O1         -2.7336   -1.8759    1.5201 O.3        1 <1>        0.000
      6 C16         0.6022    0.4372    0.3835 C.ar       1 <1>        0.000
      7 C17         0.7676   -0.8987    0.6654 C.ar       1 <1>        0.000
      8 C26         4.4591   -2.0552   -1.7253 C.ar       1 <1>        0.000
      9 C20         2.1238   -1.4692    0.7134 C.2        1 <1>        0.000
     10 N3          2.2918   -2.7357    0.2804 N.am       1 <1>        0.000
     11 O4          3.0992   -0.7854    1.0053 O.2        1 <1>        0.000
     12 S1          2.0386   -3.4405   -1.1261 S.o2       1 <1>        0.000
     13 C25         3.2291   -2.6712   -2.1012 C.ar       1 <1>        0.000
     14 O5          2.3957   -4.8156   -0.9252 O.2        1 <1>        0.000
     15 O6          0.7489   -2.9962   -1.5774 O.2        1 <1>        0.000
     16 C27         2.9432   -2.3950   -3.4262 C.ar       1 <1>        0.000
     17 C28         5.4061   -1.5304   -2.6236 C.ar       1 <1>        0.000
     18 C30         3.8086   -1.8579   -4.3666 C.ar       1 <1>        0.000
     19 C31         5.0529   -1.4410   -3.9548 C.ar       1 <1>        0.000
     20 H          -2.6912    0.6945    0.9413 H.spc      1 <1>        0.000
     21 H          -0.7749    2.0873    0.3308 H.spc      1 <1>        0.000
     22 H          -0.3014   -2.7599    0.8248 H.spc      1 <1>        0.000
     23 H          -3.4895   -1.2942    1.6290 H.spc      1 <1>        0.000
     24 H           1.4550    1.0352    0.0621 H.spc      1 <1>        0.000
     25 H           4.6826   -1.9857   -0.6607 H.spc      1 <1>        0.000
     26 H           2.6525   -3.3676    0.9952 H.spc      1 <1>        0.000
     27 H           1.9330   -2.6233   -3.7660 H.spc      1 <1>        0.000
     28 H           6.3876   -1.2047   -2.2792 H.spc      1 <1>        0.000
     29 H           3.5091   -1.7678   -5.4108 H.spc      1 <1>        0.000
     30 H           5.7606   -1.0397   -4.6803 H.spc      1 <1>        0.000
@<TRIPOS>BOND
     1    2    5 1  
     2    2    4 ar 
     3    3    6 ar 
     4   17   19 ar 
     5    4    7 ar 
     6    6    7 ar 
     7    9   11 2  
     8   10   12 1  
     9   16   18 ar 
    10   12   15 2  
    11    9   10 am 
    12   13   16 ar 
    13    7    9 1  
    14   12   14 2  
    15   12   13 1  
    16   18   19 ar 
    17    8   17 ar 
    18   13    8 ar 
    19    1    3 ar 
    20    1    2 ar 
    21    1   20 1  
    22    3   21 1  
    23    4   22 1  
    24    5   23 1  
    25    6   24 1  
    26    8   25 1  
    27   10   26 1  
    28   16   27 1  
    29   17   28 1  
    30   18   29 1  
    31   19   30 1  
# Name:          frag5-677-62/138278
# Creation time: Sat Jun  5 12:51:53 2010


@<TRIPOS>MOLECULE
frag5-677-62/138278
   30    31     1     1     1
SMALL
USER_CHARGES


@<TRIPOS>ATOM
      1 C9         -1.6057    0.5290    1.3503 C.ar       1 <1>        0.000
      2 C12        -0.2408    0.7731    1.5073 C.ar       1 <1>        0.000
      3 C13        -2.2014   -0.5784    0.7373 C.ar       1 <1>        0.000
      4 C15         0.4864   -0.3149    1.0708 C.ar       1 <1>        0.000
      5 O1          0.2818    1.8619    2.0455 O.3        1 <1>        0.000
      6 C16        -1.4012   -1.5525    0.2334 C.ar       1 <1>        0.000
      7 C17        -0.0542   -1.4109    0.3944 C.ar       1 <1>        0.000
      8 C26         3.9433   -1.2539   -2.2492 C.ar       1 <1>        0.000
      9 C20         0.7507   -2.4764   -0.1340 C.2        1 <1>        0.000
     10 N3          2.0941   -2.3615    0.0093 N.am       1 <1>        0.000
     11 O4          0.2572   -3.4328   -0.6790 O.2        1 <1>        0.000
     12 S1          3.2862   -3.2647   -0.4294 S.o2       1 <1>        0.000
     13 C25         3.5997   -2.5954   -1.9746 C.ar       1 <1>        0.000
     14 O5          4.3366   -2.9235    0.4853 O.2        1 <1>        0.000
     15 O6          2.7703   -4.6013   -0.5925 O.2        1 <1>        0.000
     16 C27         3.2676   -3.2591   -3.1517 C.ar       1 <1>        0.000
     17 C28         4.3770   -0.7963   -3.4955 C.ar       1 <1>        0.000
     18 C30         3.6343   -2.8623   -4.4267 C.ar       1 <1>        0.000
     19 C31         4.2095   -1.6212   -4.5901 C.ar       1 <1>        0.000
     20 H          -2.2824    1.2846    1.7493 H.spc      1 <1>        0.000
     21 H          -3.2862   -0.6576    0.6657 H.spc      1 <1>        0.000
     22 H           1.5585   -0.3196    1.2676 H.spc      1 <1>        0.000
     23 H          -0.4213    2.4764    2.2683 H.spc      1 <1>        0.000
     24 H          -1.8203   -2.4170   -0.2815 H.spc      1 <1>        0.000
     25 H           3.8653   -0.5301   -1.4380 H.spc      1 <1>        0.000
     26 H           2.3817   -1.5160    0.5021 H.spc      1 <1>        0.000
     27 H           2.6695   -4.1660   -3.0628 H.spc      1 <1>        0.000
     28 H           4.8359    0.1867   -3.6013 H.spc      1 <1>        0.000
     29 H           3.4714   -3.5176   -5.2823 H.spc      1 <1>        0.000
     30 H           4.5307   -1.2921   -5.5783 H.spc      1 <1>        0.000
@<TRIPOS>BOND
     1    2    5 1  
     2    2    4 ar 
     3    3    6 ar 
     4   17   19 ar 
     5    4    7 ar 
     6    6    7 ar 
     7    9   11 2  
     8   10   12 1  
     9   16   18 ar 
    10   12   15 2  
    11    9   10 am 
    12   13   16 ar 
    13    7    9 1  
    14   12   14 2  
    15   12   13 1  
    16   18   19 ar 
    17    8   17 ar 
    18   13    8 ar 
    19    1    3 ar 
    20    1    2 ar 
    21    1   20 1  
    22    3   21 1  
    23    4   22 1  
    24    5   23 1  
    25    6   24 1  
    26    8   25 1  
    27   10   26 1  
    28   16   27 1  
    29   17   28 1  
    30   18   29 1  
    31   19   30 1  
# Name:          frag5-677-62/138278
# Creation time: Sat Jun  5 12:51:53 2010


@<TRIPOS>MOLECULE
frag5-677-62/138278
   30    31     1     1     1
SMALL
USER_CHARGES


@<TRIPOS>ATOM
      1 C9         -1.6212    0.6326    1.2056 C.ar       1 <1>        0.000
      2 C12        -1.9703   -0.6713    0.8464 C.ar       1 <1>        0.000
      3 C13        -0.3335    1.1878    1.2890 C.ar       1 <1>        0.000
      4 C15        -0.8402   -1.3489    0.4572 C.ar       1 <1>        0.000
      5 O1         -3.1904   -1.1762    0.8073 O.3        1 <1>        0.000
      6 C16         0.7331    0.3987    0.9929 C.ar       1 <1>        0.000
      7 C17         0.4682   -0.9172    0.7003 C.ar       1 <1>        0.000
      8 C26         3.2469   -1.3259   -2.3117 C.ar       1 <1>        0.000
      9 C20         1.5823   -1.7536    0.4074 C.2        1 <1>        0.000
     10 N3          1.4178   -2.7709   -0.4932 N.am       1 <1>        0.000
     11 O4          2.6741   -1.4843    0.8768 O.2        1 <1>        0.000
     12 S1          2.4705   -3.7908   -1.0855 S.o2       1 <1>        0.000
     13 C25         3.3779   -2.7294   -2.0810 C.ar       1 <1>        0.000
     14 O5          3.2798   -4.2758   -0.0040 O.2        1 <1>        0.000
     15 O6          1.7417   -4.7094   -1.9455 O.2        1 <1>        0.000
     16 C27         4.3870   -3.2242   -2.8798 C.ar       1 <1>        0.000
     17 C28         4.0871   -0.5258   -3.1010 C.ar       1 <1>        0.000
     18 C30         5.2086   -2.5113   -3.7397 C.ar       1 <1>        0.000
     19 C31         5.0720   -1.1452   -3.8306 C.ar       1 <1>        0.000
     20 H          -2.4476    1.2998    1.4508 H.spc      1 <1>        0.000
     21 H          -0.1928    2.2275    1.5844 H.spc      1 <1>        0.000
     22 H          -0.9723   -2.2889   -0.0786 H.spc      1 <1>        0.000
     23 H          -3.8165   -0.5222    1.1264 H.spc      1 <1>        0.000
     24 H           1.7499    0.7913    0.9879 H.spc      1 <1>        0.000
     25 H           2.4094   -0.8257   -1.8254 H.spc      1 <1>        0.000
     26 H           0.4648   -2.8899   -0.8368 H.spc      1 <1>        0.000
     27 H           4.5586   -4.2994   -2.8295 H.spc      1 <1>        0.000
     28 H           3.9616    0.5564   -3.1341 H.spc      1 <1>        0.000
     29 H           5.9572   -3.0293   -4.3392 H.spc      1 <1>        0.000
     30 H           5.7349   -0.5639   -4.4715 H.spc      1 <1>        0.000
@<TRIPOS>BOND
     1    2    5 1  
     2    2    4 ar 
     3    3    6 ar 
     4   17   19 ar 
     5    4    7 ar 
     6    6    7 ar 
     7    9   11 2  
     8   10   12 1  
     9   16   18 ar 
    10   12   15 2  
    11    9   10 am 
    12   13   16 ar 
    13    7    9 1  
    14   12   14 2  
    15   12   13 1  
    16   18   19 ar 
    17    8   17 ar 
    18   13    8 ar 
    19    1    3 ar 
    20    1    2 ar 
    21    1   20 1  
    22    3   21 1  
    23    4   22 1  
    24    5   23 1  
    25    6   24 1  
    26    8   25 1  
    27   10   26 1  
    28   16   27 1  
    29   17   28 1  
    30   18   29 1  
    31   19   30 1  
# Name:          frag5-677-62/138278
# Creation time: Sat Jun  5 12:51:53 2010


@<TRIPOS>MOLECULE
frag5-677-62/138278
   30    31     1     1     1
SMALL
USER_CHARGES


@<TRIPOS>ATOM
      1 C9         -1.1526    0.3323    2.3089 C.ar       1 <1>        0.000
      2 C12        -1.9217   -0.0619    1.2099 C.ar       1 <1>        0.000
      3 C13         0.2045    0.0691    2.5459 C.ar       1 <1>        0.000
      4 C15        -1.1251   -0.6486    0.2655 C.ar       1 <1>        0.000
      5 O1         -3.2217    0.1413    1.0604 O.3        1 <1>        0.000
      6 C16         0.8898   -0.6369    1.6118 C.ar       1 <1>        0.000
      7 C17         0.2357   -0.9172    0.4315 C.ar       1 <1>        0.000
      8 C26         3.5831   -1.3344   -2.3517 C.ar       1 <1>        0.000
      9 C20         0.8550   -1.6630   -0.6029 C.2        1 <1>        0.000
     10 N3          1.8571   -2.4905   -0.2206 N.am       1 <1>        0.000
     11 O4          0.4890   -1.5841   -1.7591 O.2        1 <1>        0.000
     12 S1          2.6139   -3.6480   -0.9957 S.o2       1 <1>        0.000
     13 C25         3.5801   -2.7336   -2.0455 C.ar       1 <1>        0.000
     14 O5          3.4445   -4.2812    0.0243 O.2        1 <1>        0.000
     15 O6          1.6496   -4.3889   -1.7522 O.2        1 <1>        0.000
     16 C27         4.5795   -3.3675   -2.7574 C.ar       1 <1>        0.000
     17 C28         4.4413   -0.6850   -3.2468 C.ar       1 <1>        0.000
     18 C30         5.4228   -2.7995   -3.6960 C.ar       1 <1>        0.000
     19 C31         5.3666   -1.4434   -3.9193 C.ar       1 <1>        0.000
     20 H          -1.6693    0.9135    3.0726 H.spc      1 <1>        0.000
     21 H           0.6941    0.4214    3.4538 H.spc      1 <1>        0.000
     22 H          -1.5843   -0.9261   -0.6833 H.spc      1 <1>        0.000
     23 H          -3.5708    0.5651    1.8479 H.spc      1 <1>        0.000
     24 H           1.9133   -0.9681    1.7872 H.spc      1 <1>        0.000
     25 H           2.8466   -0.7161   -1.8386 H.spc      1 <1>        0.000
     26 H           2.1822   -2.3427    0.7348 H.spc      1 <1>        0.000
     27 H           4.7191   -4.4301   -2.5584 H.spc      1 <1>        0.000
     28 H           4.3766    0.3915   -3.4051 H.spc      1 <1>        0.000
     29 H           6.1246   -3.4205   -4.2528 H.spc      1 <1>        0.000
     30 H           6.0520   -0.9745   -4.6253 H.spc      1 <1>        0.000
@<TRIPOS>BOND
     1    2    5 1  
     2    2    4 ar 
     3    3    6 ar 
     4   17   19 ar 
     5    4    7 ar 
     6    6    7 ar 
     7    9   11 2  
     8   10   12 1  
     9   16   18 ar 
    10   12   15 2  
    11    9   10 am 
    12   13   16 ar 
    13    7    9 1  
    14   12   14 2  
    15   12   13 1  
    16   18   19 ar 
    17    8   17 ar 
    18   13    8 ar 
    19    1    3 ar 
    20    1    2 ar 
    21    1   20 1  
    22    3   21 1  
    23    4   22 1  
    24    5   23 1  
    25    6   24 1  
    26    8   25 1  
    27   10   26 1  
    28   16   27 1  
    29   17   28 1  
    30   18   29 1  
    31   19   30 1  
# Name:          frag5-677-62/138278
# Creation time: Sat Jun  5 12:51:53 2010


@<TRIPOS>MOLECULE
frag5-677-62/138278
   30    31     1     1     1
SMALL
USER_CHARGES


@<TRIPOS>ATOM
      1 C9         -0.8700    0.5929    1.6907 C.ar       1 <1>        0.000
      2 C12        -0.4907    0.8189    0.3621 C.ar       1 <1>        0.000
      3 C13        -0.7416   -0.6056    2.4038 C.ar       1 <1>        0.000
      4 C15         0.1574   -0.2946   -0.1630 C.ar       1 <1>        0.000
      5 O1         -0.6754    1.9595   -0.2851 O.3        1 <1>        0.000
      6 C16        -0.1772   -1.6813    1.7811 C.ar       1 <1>        0.000
      7 C17         0.1773   -1.5365    0.4723 C.ar       1 <1>        0.000
      8 C26         4.4718   -1.7882   -1.7783 C.ar       1 <1>        0.000
      9 C20         0.6857   -2.6924   -0.2020 C.2        1 <1>        0.000
     10 N3          1.9383   -3.0976    0.1493 N.am       1 <1>        0.000
     11 O4          0.0770   -3.2000   -1.1032 O.2        1 <1>        0.000
     12 S1          3.0221   -3.8506   -0.7070 S.o2       1 <1>        0.000
     13 C25         3.3772   -2.6459   -1.8791 C.ar       1 <1>        0.000
     14 O5          4.1107   -3.9985    0.2222 O.2        1 <1>        0.000
     15 O6          2.3732   -4.9489   -1.3716 O.2        1 <1>        0.000
     16 C27         2.5038   -2.2010   -2.9014 C.ar       1 <1>        0.000
     17 C28         4.9175   -0.9485   -2.7913 C.ar       1 <1>        0.000
     18 C30         2.8489   -1.3151   -3.9233 C.ar       1 <1>        0.000
     19 C31         4.0853   -0.7076   -3.8656 C.ar       1 <1>        0.000
     20 H          -1.3100    1.4354    2.2243 H.spc      1 <1>        0.000
     21 H          -1.0855   -0.6780    3.4356 H.spc      1 <1>        0.000
     22 H           0.6746   -0.1917   -1.1169 H.spc      1 <1>        0.000
     23 H          -1.1456    2.5753    0.2818 H.spc      1 <1>        0.000
     24 H          -0.0160   -2.6206    2.3101 H.spc      1 <1>        0.000
     25 H           5.0181   -1.7756   -0.8352 H.spc      1 <1>        0.000
     26 H           2.2134   -2.8811    1.1073 H.spc      1 <1>        0.000
     27 H           1.4819   -2.5802   -2.8892 H.spc      1 <1>        0.000
     28 H           5.9046   -0.4892   -2.7387 H.spc      1 <1>        0.000
     29 H           2.1608   -1.1095   -4.7433 H.spc      1 <1>        0.000
     30 H           4.4043   -0.0395   -4.6656 H.spc      1 <1>        0.000
@<TRIPOS>BOND
     1    2    5 1  
     2    2    4 ar 
     3    3    6 ar 
     4   17   19 ar 
     5    4    7 ar 
     6    6    7 ar 
     7    9   11 2  
     8   10   12 1  
     9   16   18 ar 
    10   12   15 2  
    11    9   10 am 
    12   13   16 ar 
    13    7    9 1  
    14   12   14 2  
    15   12   13 1  
    16   18   19 ar 
    17    8   17 ar 
    18   13    8 ar 
    19    1    3 ar 
    20    1    2 ar 
    21    1   20 1  
    22    3   21 1  
    23    4   22 1  
    24    5   23 1  
    25    6   24 1  
    26    8   25 1  
    27   10   26 1  
    28   16   27 1  
    29   17   28 1  
    30   18   29 1  
    31   19   30 1  
# Name:          frag5-677-62/138278
# Creation time: Sat Jun  5 12:51:53 2010


@<TRIPOS>MOLECULE
frag5-677-62/138278
   30    31     1     1     1
SMALL
USER_CHARGES


@<TRIPOS>ATOM
      1 C9         -0.5304    1.0940    0.8495 C.ar       1 <1>        0.000
      2 C12        -1.1257    0.0781    1.5931 C.ar       1 <1>        0.000
      3 C13         0.4840    0.9275   -0.1014 C.ar       1 <1>        0.000
      4 C15        -0.7046   -1.1658    1.1353 C.ar       1 <1>        0.000
      5 O1         -2.0040    0.2531    2.5708 O.3        1 <1>        0.000
      6 C16         0.8815   -0.3550   -0.4265 C.ar       1 <1>        0.000
      7 C17         0.2677   -1.4513    0.1728 C.ar       1 <1>        0.000
      8 C26         4.5091   -1.9949   -2.4760 C.ar       1 <1>        0.000
      9 C20         0.5812   -2.9021   -0.0050 C.2        1 <1>        0.000
     10 N3          1.8863   -3.3118   -0.0235 N.am       1 <1>        0.000
     11 O4         -0.3080   -3.7217   -0.1941 O.2        1 <1>        0.000
     12 S1          3.3341   -2.6469   -0.1431 S.o2       1 <1>        0.000
     13 C25         3.3760   -2.4924   -1.8634 C.ar       1 <1>        0.000
     14 O5          3.2971   -1.3243    0.4487 O.2        1 <1>        0.000
     15 O6          4.3533   -3.5817    0.2634 O.2        1 <1>        0.000
     16 C27         2.4058   -2.8101   -2.8679 C.ar       1 <1>        0.000
     17 C28         4.7570   -1.8812   -3.8326 C.ar       1 <1>        0.000
     18 C30         2.5615   -2.6524   -4.2573 C.ar       1 <1>        0.000
     19 C31         3.7694   -2.2019   -4.7320 C.ar       1 <1>        0.000
     20 H          -0.8859    2.1097    1.0232 H.spc      1 <1>        0.000
     21 H           0.9501    1.7915   -0.5750 H.spc      1 <1>        0.000
     22 H          -1.1959   -2.0287    1.5848 H.spc      1 <1>        0.000
     23 H          -2.1397    1.1927    2.7132 H.spc      1 <1>        0.000
     24 H           1.6781   -0.5089   -1.1544 H.spc      1 <1>        0.000
     25 H           5.3023   -1.6510   -1.8122 H.spc      1 <1>        0.000
     26 H           1.9540   -4.3258    0.0634 H.spc      1 <1>        0.000
     27 H           1.4540   -3.2134   -2.5223 H.spc      1 <1>        0.000
     28 H           5.7300   -1.5393   -4.1854 H.spc      1 <1>        0.000
     29 H           1.7437   -2.8821   -4.9404 H.spc      1 <1>        0.000
     30 H           3.9412   -2.1007   -5.8036 H.spc      1 <1>        0.000
@<TRIPOS>BOND
     1    2    5 1  
     2    2    4 ar 
     3    3    6 ar 
     4   17   19 ar 
     5    4    7 ar 
     6    6    7 ar 
     7    9   11 2  
     8   10   12 1  
     9   16   18 ar 
    10   12   15 2  
    11    9   10 am 
    12   13   16 ar 
    13    7    9 1  
    14   12   14 2  
    15   12   13 1  
    16   18   19 ar 
    17    8   17 ar 
    18   13    8 ar 
    19    1    3 ar 
    20    1    2 ar 
    21    1   20 1  
    22    3   21 1  
    23    4   22 1  
    24    5   23 1  
    25    6   24 1  
    26    8   25 1  
    27   10   26 1  
    28   16   27 1  
    29   17   28 1  
    30   18   29 1  
    31   19   30 1  
# Name:          frag5-677-62/138278
# Creation time: Sat Jun  5 12:51:53 2010


@<TRIPOS>MOLECULE
frag5-677-62/138278
   30    31     1     1     1
SMALL
USER_CHARGES


@<TRIPOS>ATOM
      1 C9         -2.0370   -0.1245    1.4267 C.ar       1 <1>        0.000
      2 C12        -1.2959    0.5487    0.4460 C.ar       1 <1>        0.000
      3 C13        -1.7320   -1.3546    2.0263 C.ar       1 <1>        0.000
      4 C15        -0.1183   -0.1190    0.1864 C.ar       1 <1>        0.000
      5 O1         -1.6423    1.6956   -0.1204 O.3        1 <1>        0.000
      6 C16        -0.5921   -1.9982    1.6421 C.ar       1 <1>        0.000
      7 C17         0.2236   -1.3270    0.7715 C.ar       1 <1>        0.000
      8 C26         4.1994   -3.0626   -3.1727 C.ar       1 <1>        0.000
      9 C20         1.4439   -1.9313    0.3989 C.2        1 <1>        0.000
     10 N3          1.4210   -2.7079   -0.7071 N.am       1 <1>        0.000
     11 O4          2.4377   -1.7626    1.0818 O.2        1 <1>        0.000
     12 S1          2.5255   -3.7065   -1.2181 S.o2       1 <1>        0.000
     13 C25         3.4999   -2.6052   -2.0790 C.ar       1 <1>        0.000
     14 O5          3.2443   -4.2057   -0.0678 O.2        1 <1>        0.000
     15 O6          1.8568   -4.5947   -2.1255 O.2        1 <1>        0.000
     16 C27         3.6206   -1.1929   -1.9612 C.ar       1 <1>        0.000
     17 C28         5.0472   -2.3256   -3.9777 C.ar       1 <1>        0.000
     18 C30         4.4930   -0.3885   -2.7057 C.ar       1 <1>        0.000
     19 C31         5.1961   -0.9783   -3.7338 C.ar       1 <1>        0.000
     20 H          -2.9530    0.3628    1.7607 H.spc      1 <1>        0.000
     21 H          -2.3895   -1.7862    2.7810 H.spc      1 <1>        0.000
     22 H           0.5826    0.3284   -0.5183 H.spc      1 <1>        0.000
     23 H          -2.5001    1.9694    0.2125 H.spc      1 <1>        0.000
     24 H          -0.3440   -2.9942    2.0090 H.spc      1 <1>        0.000
     25 H           4.0715   -4.1140   -3.4303 H.spc      1 <1>        0.000
     26 H           0.5823   -2.6381   -1.2833 H.spc      1 <1>        0.000
     27 H           2.9816   -0.6955   -1.2315 H.spc      1 <1>        0.000
     28 H           5.5899   -2.8034   -4.7934 H.spc      1 <1>        0.000
     29 H           4.6120    0.6710   -2.4789 H.spc      1 <1>        0.000
     30 H           5.8671   -0.3811   -4.3512 H.spc      1 <1>        0.000
@<TRIPOS>BOND
     1    2    5 1  
     2    2    4 ar 
     3    3    6 ar 
     4   17   19 ar 
     5    4    7 ar 
     6    6    7 ar 
     7    9   11 2  
     8   10   12 1  
     9   16   18 ar 
    10   12   15 2  
    11    9   10 am 
    12   13   16 ar 
    13    7    9 1  
    14   12   14 2  
    15   12   13 1  
    16   18   19 ar 
    17    8   17 ar 
    18   13    8 ar 
    19    1    3 ar 
    20    1    2 ar 
    21    1   20 1  
    22    3   21 1  
    23    4   22 1  
    24    5   23 1  
    25    6   24 1  
    26    8   25 1  
    27   10   26 1  
    28   16   27 1  
    29   17   28 1  
    30   18   29 1  
    31   19   30 1  
# Name:          frag5-677-62/138278
# Creation time: Sat Jun  5 12:51:53 2010


@<TRIPOS>MOLECULE
frag5-677-62/138278
   30    31     1     1     1
SMALL
USER_CHARGES


@<TRIPOS>ATOM
      1 C9         -1.6377    0.3879    1.4887 C.ar       1 <1>        0.000
      2 C12        -1.2045    0.3488    0.1659 C.ar       1 <1>        0.000
      3 C13        -1.2180   -0.4399    2.5412 C.ar       1 <1>        0.000
      4 C15        -0.1902   -0.5848    0.0190 C.ar       1 <1>        0.000
      5 O1         -1.6592    1.1406   -0.8042 O.3        1 <1>        0.000
      6 C16        -0.2885   -1.3974    2.2804 C.ar       1 <1>        0.000
      7 C17         0.2163   -1.4587    1.0337 C.ar       1 <1>        0.000
      8 C26         2.8838   -1.5164   -3.1160 C.ar       1 <1>        0.000
      9 C20         1.2399   -2.4758    0.8138 C.2        1 <1>        0.000
     10 N3          1.9736   -2.3555   -0.2903 N.am       1 <1>        0.000
     11 O4          1.3507   -3.4218    1.5663 O.2        1 <1>        0.000
     12 S1          2.6640   -3.4816   -1.1412 S.o2       1 <1>        0.000
     13 C25         3.4690   -2.5035   -2.3079 C.ar       1 <1>        0.000
     14 O5          3.6259   -4.0718   -0.2630 O.2        1 <1>        0.000
     15 O6          1.6515   -4.2105   -1.8362 O.2        1 <1>        0.000
     16 C27         4.8451   -2.4791   -2.3730 C.ar       1 <1>        0.000
     17 C28         3.5673   -0.7884   -4.0920 C.ar       1 <1>        0.000
     18 C30         5.5730   -1.8523   -3.3625 C.ar       1 <1>        0.000
     19 C31         4.9294   -0.9806   -4.2119 C.ar       1 <1>        0.000
     20 H          -2.3840    1.1438    1.7332 H.spc      1 <1>        0.000
     21 H          -1.6274   -0.3182    3.5440 H.spc      1 <1>        0.000
     22 H           0.3202   -0.6415   -0.9424 H.spc      1 <1>        0.000
     23 H          -2.3603    1.6980   -0.4586 H.spc      1 <1>        0.000
     24 H           0.0371   -2.0921    3.0547 H.spc      1 <1>        0.000
     25 H           1.8245   -1.3038   -2.9720 H.spc      1 <1>        0.000
     26 H           2.1056   -1.4029   -0.6301 H.spc      1 <1>        0.000
     27 H           5.3980   -2.9920   -1.5860 H.spc      1 <1>        0.000
     28 H           3.0407   -0.0884   -4.7407 H.spc      1 <1>        0.000
     29 H           6.6406   -2.0439   -3.4704 H.spc      1 <1>        0.000
     30 H           5.4927   -0.4445   -4.9757 H.spc      1 <1>        0.000
@<TRIPOS>BOND
     1    2    5 1  
     2    2    4 ar 
     3    3    6 ar 
     4   17   19 ar 
     5    4    7 ar 
     6    6    7 ar 
     7    9   11 2  
     8   10   12 1  
     9   16   18 ar 
    10   12   15 2  
    11    9   10 am 
    12   13   16 ar 
    13    7    9 1  
    14   12   14 2  
    15   12   13 1  
    16   18   19 ar 
    17    8   17 ar 
    18   13    8 ar 
    19    1    3 ar 
    20    1    2 ar 
    21    1   20 1  
    22    3   21 1  
    23    4   22 1  
    24    5   23 1  
    25    6   24 1  
    26    8   25 1  
    27   10   26 1  
    28   16   27 1  
    29   17   28 1  
    30   18   29 1  
    31   19   30 1  
# Name:          frag5-677-62/138278
# Creation time: Sat Jun  5 12:51:53 2010


@<TRIPOS>MOLECULE
frag5-677-62/138278
   30    31     1     1     1
SMALL
USER_CHARGES


@<TRIPOS>ATOM
      1 C9         -0.7076    0.9569    1.5864 C.ar       1 <1>        0.000
      2 C12        -1.6267    0.2259    0.8301 C.ar       1 <1>        0.000
      3 C13         0.6556    0.6847    1.7708 C.ar       1 <1>        0.000
      4 C15        -0.9848   -0.7996    0.1747 C.ar       1 <1>        0.000
      5 O1         -2.9092    0.5099    0.6913 O.3        1 <1>        0.000
      6 C16         1.1735   -0.4246    1.1736 C.ar       1 <1>        0.000
      7 C17         0.3176   -1.2060    0.4184 C.ar       1 <1>        0.000
      8 C26         4.0301   -3.1943   -2.9967 C.ar       1 <1>        0.000
      9 C20         0.7406   -2.4112   -0.2321 C.2        1 <1>        0.000
     10 N3          1.9420   -2.9063    0.1536 N.am       1 <1>        0.000
     11 O4          0.1253   -2.8851   -1.1732 O.2        1 <1>        0.000
     12 S1          2.9884   -3.7953   -0.6045 S.o2       1 <1>        0.000
     13 C25         3.5013   -2.6975   -1.8201 C.ar       1 <1>        0.000
     14 O5          4.0739   -3.9954    0.3382 O.2        1 <1>        0.000
     15 O6          2.2784   -4.8853   -1.2130 O.2        1 <1>        0.000
     16 C27         3.3820   -1.2760   -1.9133 C.ar       1 <1>        0.000
     17 C28         4.5042   -2.4714   -4.0752 C.ar       1 <1>        0.000
     18 C30         3.8760   -0.4726   -2.9521 C.ar       1 <1>        0.000
     19 C31         4.4307   -1.0978   -4.0459 C.ar       1 <1>        0.000
     20 H          -1.0949    1.8415    2.0919 H.spc      1 <1>        0.000
     21 H           1.2823    1.3414    2.3742 H.spc      1 <1>        0.000
     22 H          -1.5431   -1.3329   -0.5947 H.spc      1 <1>        0.000
     23 H          -3.1308    1.2625    1.2446 H.spc      1 <1>        0.000
     24 H           2.2253   -0.6873    1.2868 H.spc      1 <1>        0.000
     25 H           4.0787   -4.2797   -3.0839 H.spc      1 <1>        0.000
     26 H           2.2134   -2.6567    1.1046 H.spc      1 <1>        0.000
     27 H           2.8588   -0.7694   -1.1023 H.spc      1 <1>        0.000
     28 H           4.9309   -2.9830   -4.9379 H.spc      1 <1>        0.000
     29 H           3.8221    0.6146   -2.8947 H.spc      1 <1>        0.000
     30 H           4.8086   -0.5094   -4.8820 H.spc      1 <1>        0.000
@<TRIPOS>BOND
     1    2    5 1  
     2    2    4 ar 
     3    3    6 ar 
     4   17   19 ar 
     5    4    7 ar 
     6    6    7 ar 
     7    9   11 2  
     8   10   12 1  
     9   16   18 ar 
    10   12   15 2  
    11    9   10 am 
    12   13   16 ar 
    13    7    9 1  
    14   12   14 2  
    15   12   13 1  
    16   18   19 ar 
    17    8   17 ar 
    18   13    8 ar 
    19    1    3 ar 
    20    1    2 ar 
    21    1   20 1  
    22    3   21 1  
    23    4   22 1  
    24    5   23 1  
    25    6   24 1  
    26    8   25 1  
    27   10   26 1  
    28   16   27 1  
    29   17   28 1  
    30   18   29 1  
    31   19   30 1  
# Name:          frag5-677-62/138278
# Creation time: Sat Jun  5 12:51:53 2010


@<TRIPOS>MOLECULE
frag5-677-62/138278
   30    31     1     1     1
SMALL
USER_CHARGES


@<TRIPOS>ATOM
      1 C9         -1.7735    0.2864    0.6954 C.ar       1 <1>        0.000
      2 C12        -0.6474    0.8147    1.3285 C.ar       1 <1>        0.000
      3 C13        -1.8502   -0.8819   -0.0642 C.ar       1 <1>        0.000
      4 C15         0.4197   -0.0515    1.2191 C.ar       1 <1>        0.000
      5 O1         -0.6136    1.9659    1.9793 O.3        1 <1>        0.000
      6 C16        -0.7160   -1.6231   -0.2114 C.ar       1 <1>        0.000
      7 C17         0.4048   -1.2186    0.4783 C.ar       1 <1>        0.000
      8 C26         2.9780   -2.9957   -3.3620 C.ar       1 <1>        0.000
      9 C20         1.6196   -1.9822    0.4537 C.2        1 <1>        0.000
     10 N3          1.5858   -3.1802   -0.1850 N.am       1 <1>        0.000
     11 O4          2.6452   -1.5214    0.9065 O.2        1 <1>        0.000
     12 S1          2.7544   -4.0031   -0.8286 S.o2       1 <1>        0.000
     13 C25         3.2819   -2.8694   -2.0148 C.ar       1 <1>        0.000
     14 O5          3.7444   -4.1868    0.1774 O.2        1 <1>        0.000
     15 O6          2.0882   -5.1034   -1.5023 O.2        1 <1>        0.000
     16 C27         3.8538   -1.6050   -1.7756 C.ar       1 <1>        0.000
     17 C28         3.4581   -2.1859   -4.3870 C.ar       1 <1>        0.000
     18 C30         4.3841   -0.7452   -2.7372 C.ar       1 <1>        0.000
     19 C31         4.1741   -1.0542   -4.0593 C.ar       1 <1>        0.000
     20 H          -2.6992    0.8510    0.8070 H.spc      1 <1>        0.000
     21 H          -2.7879   -1.1919   -0.5253 H.spc      1 <1>        0.000
     22 H           1.3363    0.2008    1.7523 H.spc      1 <1>        0.000
     23 H          -1.4714    2.3924    1.9175 H.spc      1 <1>        0.000
     24 H          -0.6969   -2.5046   -0.8522 H.spc      1 <1>        0.000
     25 H           2.3016   -3.8026   -3.6437 H.spc      1 <1>        0.000
     26 H           0.6627   -3.6082   -0.2566 H.spc      1 <1>        0.000
     27 H           3.8850   -1.2659   -0.7402 H.spc      1 <1>        0.000
     28 H           3.2714   -2.4418   -5.4300 H.spc      1 <1>        0.000
     29 H           4.9467    0.1428   -2.4492 H.spc      1 <1>        0.000
     30 H           4.5707   -0.4093   -4.8435 H.spc      1 <1>        0.000
@<TRIPOS>BOND
     1    2    5 1  
     2    2    4 ar 
     3    3    6 ar 
     4   17   19 ar 
     5    4    7 ar 
     6    6    7 ar 
     7    9   11 2  
     8   10   12 1  
     9   16   18 ar 
    10   12   15 2  
    11    9   10 am 
    12   13   16 ar 
    13    7    9 1  
    14   12   14 2  
    15   12   13 1  
    16   18   19 ar 
    17    8   17 ar 
    18   13    8 ar 
    19    1    3 ar 
    20    1    2 ar 
    21    1   20 1  
    22    3   21 1  
    23    4   22 1  
    24    5   23 1  
    25    6   24 1  
    26    8   25 1  
    27   10   26 1  
    28   16   27 1  
    29   17   28 1  
    30   18   29 1  
    31   19   30 1  
# Name:          frag5-677-62/138278
# Creation time: Sat Jun  5 12:51:53 2010


@<TRIPOS>MOLECULE
frag5-677-62/138278
   30    31     1     1     1
SMALL
USER_CHARGES


@<TRIPOS>ATOM
      1 C9         -0.6379    0.3571    1.7022 C.ar       1 <1>        0.000
      2 C12        -0.5936    0.5297    0.3177 C.ar       1 <1>        0.000
      3 C13        -0.3165   -0.8091    2.4031 C.ar       1 <1>        0.000
      4 C15        -0.0759   -0.6241   -0.2982 C.ar       1 <1>        0.000
      5 O1         -0.9308    1.6492   -0.3090 O.3        1 <1>        0.000
      6 C16         0.0794   -1.9239    1.6841 C.ar       1 <1>        0.000
      7 C17         0.0828   -1.8974    0.2949 C.ar       1 <1>        0.000
      8 C26         4.6848   -2.1699   -2.1577 C.ar       1 <1>        0.000
      9 C20         0.3608   -3.1346   -0.5054 C.2        1 <1>        0.000
     10 N3          1.6355   -3.6362   -0.5631 N.am       1 <1>        0.000
     11 O4         -0.5155   -3.6535   -1.1687 O.2        1 <1>        0.000
     12 S1          3.0591   -3.0309   -0.2299 S.o2       1 <1>        0.000
     13 C25         3.3812   -2.2453   -1.7131 C.ar       1 <1>        0.000
     14 O5          2.9014   -2.0226    0.7881 O.2        1 <1>        0.000
     15 O6          3.9509   -4.1543   -0.0582 O.2        1 <1>        0.000
     16 C27         2.4930   -1.7621   -2.7230 C.ar       1 <1>        0.000
     17 C28         5.1371   -1.5499   -3.3049 C.ar       1 <1>        0.000
     18 C30         2.8752   -1.0700   -3.8805 C.ar       1 <1>        0.000
     19 C31         4.2202   -0.9932   -4.1674 C.ar       1 <1>        0.000
     20 H          -0.9540    1.2156    2.2948 H.spc      1 <1>        0.000
     21 H          -0.3763   -0.8399    3.4910 H.spc      1 <1>        0.000
     22 H           0.2344   -0.5264   -1.3385 H.spc      1 <1>        0.000
     23 H          -1.2572    2.2867    0.3303 H.spc      1 <1>        0.000
     24 H           0.3899   -2.8266    2.2102 H.spc      1 <1>        0.000
     25 H           5.4392   -2.6520   -1.5359 H.spc      1 <1>        0.000
     26 H           1.6743   -4.6019   -0.8891 H.spc      1 <1>        0.000
     27 H           1.4283   -1.9474   -2.5812 H.spc      1 <1>        0.000
     28 H           6.2037   -1.5019   -3.5244 H.spc      1 <1>        0.000
     29 H           2.1330   -0.6081   -4.5316 H.spc      1 <1>        0.000
     30 H           4.5576   -0.4929   -5.0751 H.spc      1 <1>        0.000
@<TRIPOS>BOND
     1    2    5 1  
     2    2    4 ar 
     3    3    6 ar 
     4   17   19 ar 
     5    4    7 ar 
     6    6    7 ar 
     7    9   11 2  
     8   10   12 1  
     9   16   18 ar 
    10   12   15 2  
    11    9   10 am 
    12   13   16 ar 
    13    7    9 1  
    14   12   14 2  
    15   12   13 1  
    16   18   19 ar 
    17    8   17 ar 
    18   13    8 ar 
    19    1    3 ar 
    20    1    2 ar 
    21    1   20 1  
    22    3   21 1  
    23    4   22 1  
    24    5   23 1  
    25    6   24 1  
    26    8   25 1  
    27   10   26 1  
    28   16   27 1  
    29   17   28 1  
    30   18   29 1  
    31   19   30 1  
# Name:          frag5-677-62/138278
# Creation time: Sat Jun  5 12:51:53 2010


@<TRIPOS>MOLECULE
frag5-677-62/138278
   30    31     1     1     1
SMALL
USER_CHARGES


@<TRIPOS>ATOM
      1 C9         -1.8044   -0.1419    1.8542 C.ar       1 <1>        0.000
      2 C12        -1.2232    0.2565    0.6671 C.ar       1 <1>        0.000
      3 C13        -1.4702   -1.2616    2.6131 C.ar       1 <1>        0.000
      4 C15        -0.1304   -0.5862    0.3853 C.ar       1 <1>        0.000
      5 O1         -1.5965    1.3038   -0.0689 O.3        1 <1>        0.000
      6 C16        -0.4511   -2.0809    2.1700 C.ar       1 <1>        0.000
      7 C17         0.2638   -1.8022    1.0326 C.ar       1 <1>        0.000
      8 C26         3.2565   -2.8242   -3.5556 C.ar       1 <1>        0.000
      9 C20         1.3472   -2.7707    0.6903 C.2        1 <1>        0.000
     10 N3          2.1789   -2.5288   -0.3342 N.am       1 <1>        0.000
     11 O4          1.5027   -3.8092    1.3164 O.2        1 <1>        0.000
     12 S1          2.2532   -1.4595   -1.4974 S.o2       1 <1>        0.000
     13 C25         3.5036   -2.0447   -2.4494 C.ar       1 <1>        0.000
     14 O5          1.0067   -1.6157   -2.1812 O.2        1 <1>        0.000
     15 O6          2.6705   -0.2182   -0.8932 O.2        1 <1>        0.000
     16 C27         4.8373   -2.0478   -2.0720 C.ar       1 <1>        0.000
     17 C28         4.2247   -3.1510   -4.4886 C.ar       1 <1>        0.000
     18 C30         5.8742   -2.4100   -2.9238 C.ar       1 <1>        0.000
     19 C31         5.5478   -2.9485   -4.1538 C.ar       1 <1>        0.000
     20 H          -2.6091    0.4852    2.2380 H.spc      1 <1>        0.000
     21 H          -2.0023   -1.4861    3.5375 H.spc      1 <1>        0.000
     22 H           0.5048   -0.2686   -0.4416 H.spc      1 <1>        0.000
     23 H          -2.3668    1.7153    0.3297 H.spc      1 <1>        0.000
     24 H          -0.2070   -2.9765    2.7413 H.spc      1 <1>        0.000
     25 H           2.2458   -3.2041   -3.7049 H.spc      1 <1>        0.000
     26 H           2.9497   -3.1957   -0.3722 H.spc      1 <1>        0.000
     27 H           5.0861   -1.7505   -1.0533 H.spc      1 <1>        0.000
     28 H           3.9495   -3.5575   -5.4618 H.spc      1 <1>        0.000
     29 H           6.9149   -2.2732   -2.6300 H.spc      1 <1>        0.000
     30 H           6.3353   -3.2132   -4.8593 H.spc      1 <1>        0.000
@<TRIPOS>BOND
     1    2    5 1  
     2    2    4 ar 
     3    3    6 ar 
     4   17   19 ar 
     5    4    7 ar 
     6    6    7 ar 
     7    9   11 2  
     8   10   12 1  
     9   16   18 ar 
    10   12   15 2  
    11    9   10 am 
    12   13   16 ar 
    13    7    9 1  
    14   12   14 2  
    15   12   13 1  
    16   18   19 ar 
    17    8   17 ar 
    18   13    8 ar 
    19    1    3 ar 
    20    1    2 ar 
    21    1   20 1  
    22    3   21 1  
    23    4   22 1  
    24    5   23 1  
    25    6   24 1  
    26    8   25 1  
    27   10   26 1  
    28   16   27 1  
    29   17   28 1  
    30   18   29 1  
    31   19   30 1  
# Name:          frag5-677-62/138278
# Creation time: Sat Jun  5 12:51:53 2010


@<TRIPOS>MOLECULE
frag5-677-62/138278
   30    31     1     1     1
SMALL
USER_CHARGES


@<TRIPOS>ATOM
      1 C9         -2.0196    0.2256    1.4792 C.ar       1 <1>        0.000
      2 C12        -0.8589    0.0359    2.2339 C.ar       1 <1>        0.000
      3 C13        -2.2770   -0.2232    0.1678 C.ar       1 <1>        0.000
      4 C15         0.0107   -0.7883    1.5492 C.ar       1 <1>        0.000
      5 O1         -0.6575    0.5354    3.4458 O.3        1 <1>        0.000
      6 C16        -1.3202   -0.9449   -0.4721 C.ar       1 <1>        0.000
      7 C17        -0.2063   -1.2551    0.2357 C.ar       1 <1>        0.000
      8 C26         3.1475   -1.7825   -3.1552 C.ar       1 <1>        0.000
      9 C20         0.7666   -2.0408   -0.4488 C.2        1 <1>        0.000
     10 N3          2.0298   -1.5552   -0.3982 N.am       1 <1>        0.000
     11 O4          0.4761   -3.1011   -0.9687 O.2        1 <1>        0.000
     12 S1          3.4392   -2.2774   -0.3798 S.o2       1 <1>        0.000
     13 C25         3.7737   -2.4098   -2.0416 C.ar       1 <1>        0.000
     14 O5          4.3612   -1.3247    0.2275 O.2        1 <1>        0.000
     15 O6          3.2461   -3.5906    0.1657 O.2        1 <1>        0.000
     16 C27         4.6732   -3.3643   -2.4786 C.ar       1 <1>        0.000
     17 C28         3.5596   -1.9018   -4.4885 C.ar       1 <1>        0.000
     18 C30         5.0992   -3.5659   -3.7771 C.ar       1 <1>        0.000
     19 C31         4.5481   -2.8123   -4.7855 C.ar       1 <1>        0.000
     20 H          -2.8202    0.7866    1.9612 H.spc      1 <1>        0.000
     21 H          -3.2237    0.0040   -0.3224 H.spc      1 <1>        0.000
     22 H           0.9244   -1.0988    2.0560 H.spc      1 <1>        0.000
     23 H          -1.4098    1.0764    3.6968 H.spc      1 <1>        0.000
     24 H          -1.4427   -1.2604   -1.5082 H.spc      1 <1>        0.000
     25 H           2.2766   -1.1587   -2.9541 H.spc      1 <1>        0.000
     26 H           2.0834   -0.5371   -0.3660 H.spc      1 <1>        0.000
     27 H           5.0896   -4.0267   -1.7197 H.spc      1 <1>        0.000
     28 H           3.1094   -1.2898   -5.2701 H.spc      1 <1>        0.000
     29 H           5.8619   -4.3124   -3.9988 H.spc      1 <1>        0.000
     30 H           4.8912   -2.9347   -5.8128 H.spc      1 <1>        0.000
@<TRIPOS>BOND
     1    2    5 1  
     2    2    4 ar 
     3    3    6 ar 
     4   17   19 ar 
     5    4    7 ar 
     6    6    7 ar 
     7    9   11 2  
     8   10   12 1  
     9   16   18 ar 
    10   12   15 2  
    11    9   10 am 
    12   13   16 ar 
    13    7    9 1  
    14   12   14 2  
    15   12   13 1  
    16   18   19 ar 
    17    8   17 ar 
    18   13    8 ar 
    19    1    3 ar 
    20    1    2 ar 
    21    1   20 1  
    22    3   21 1  
    23    4   22 1  
    24    5   23 1  
    25    6   24 1  
    26    8   25 1  
    27   10   26 1  
    28   16   27 1  
    29   17   28 1  
    30   18   29 1  
    31   19   30 1  
# Name:          frag5-677-62/138278
# Creation time: Sat Jun  5 12:51:53 2010


@<TRIPOS>MOLECULE
frag5-677-62/138278
   30    31     1     1     1
SMALL
USER_CHARGES


@<TRIPOS>ATOM
      1 C9         -1.9926   -0.4740    1.1553 C.ar       1 <1>        0.000
      2 C12        -1.1057    0.2289    0.3413 C.ar       1 <1>        0.000
      3 C13        -1.7341   -1.6621    1.8473 C.ar       1 <1>        0.000
      4 C15         0.1714   -0.3610    0.4034 C.ar       1 <1>        0.000
      5 O1         -1.4146    1.3252   -0.3427 O.3        1 <1>        0.000
      6 C16        -0.4765   -2.2242    1.7419 C.ar       1 <1>        0.000
      7 C17         0.5361   -1.5461    1.0940 C.ar       1 <1>        0.000
      8 C26         4.4819   -1.6973   -1.8381 C.ar       1 <1>        0.000
      9 C20         1.9313   -2.0688    1.1765 C.2        1 <1>        0.000
     10 N3          2.4690   -2.6407    0.0761 N.am       1 <1>        0.000
     11 O4          2.5725   -2.0582    2.2088 O.2        1 <1>        0.000
     12 S1          2.0086   -3.0138   -1.3904 S.o2       1 <1>        0.000
     13 C25         3.3010   -2.3641   -2.2785 C.ar       1 <1>        0.000
     14 O5          2.0194   -4.4475   -1.4384 O.2        1 <1>        0.000
     15 O6          0.8366   -2.2432   -1.7400 O.2        1 <1>        0.000
     16 C27         3.2146   -2.3826   -3.6454 C.ar       1 <1>        0.000
     17 C28         5.5057   -1.2453   -2.6825 C.ar       1 <1>        0.000
     18 C30         4.1534   -1.9085   -4.5343 C.ar       1 <1>        0.000
     19 C31         5.3131   -1.3577   -4.0432 C.ar       1 <1>        0.000
     20 H          -2.9925   -0.0538    1.2641 H.spc      1 <1>        0.000
     21 H          -2.5066   -2.1331    2.4552 H.spc      1 <1>        0.000
     22 H           0.9678    0.1488   -0.1388 H.spc      1 <1>        0.000
     23 H          -2.3466    1.5227   -0.2246 H.spc      1 <1>        0.000
     24 H          -0.2832   -3.2069    2.1720 H.spc      1 <1>        0.000
     25 H           4.5969   -1.5267   -0.7677 H.spc      1 <1>        0.000
     26 H           3.4412   -2.9049    0.2357 H.spc      1 <1>        0.000
     27 H           2.3108   -2.8167   -4.0730 H.spc      1 <1>        0.000
     28 H           6.4233   -0.8192   -2.2769 H.spc      1 <1>        0.000
     29 H           3.9799   -1.9689   -5.6087 H.spc      1 <1>        0.000
     30 H           6.0828   -1.0087   -4.7315 H.spc      1 <1>        0.000
@<TRIPOS>BOND
     1    2    5 1  
     2    2    4 ar 
     3    3    6 ar 
     4   17   19 ar 
     5    4    7 ar 
     6    6    7 ar 
     7    9   11 2  
     8   10   12 1  
     9   16   18 ar 
    10   12   15 2  
    11    9   10 am 
    12   13   16 ar 
    13    7    9 1  
    14   12   14 2  
    15   12   13 1  
    16   18   19 ar 
    17    8   17 ar 
    18   13    8 ar 
    19    1    3 ar 
    20    1    2 ar 
    21    1   20 1  
    22    3   21 1  
    23    4   22 1  
    24    5   23 1  
    25    6   24 1  
    26    8   25 1  
    27   10   26 1  
    28   16   27 1  
    29   17   28 1  
    30   18   29 1  
    31   19   30 1  
# Name:          frag5-677-62/138278
# Creation time: Sat Jun  5 12:51:53 2010


@<TRIPOS>MOLECULE
frag5-677-62/138278
   30    31     1     1     1
SMALL
USER_CHARGES


@<TRIPOS>ATOM
      1 C9         -1.3059    0.5581    0.1079 C.ar       1 <1>        0.000
      2 C12        -0.2839    0.8925    1.0059 C.ar       1 <1>        0.000
      3 C13        -1.4272   -0.6336   -0.6105 C.ar       1 <1>        0.000
      4 C15         0.5740   -0.1745    1.1982 C.ar       1 <1>        0.000
      5 O1         -0.1765    2.0551    1.6254 O.3        1 <1>        0.000
      6 C16        -0.4649   -1.5912   -0.4430 C.ar       1 <1>        0.000
      7 C17         0.4900   -1.3953    0.5363 C.ar       1 <1>        0.000
      8 C26         2.4977   -2.9030   -3.2084 C.ar       1 <1>        0.000
      9 C20         1.4617   -2.4112    0.8687 C.2        1 <1>        0.000
     10 N3          1.6328   -3.4153   -0.0347 N.am       1 <1>        0.000
     11 O4          2.2122   -2.2882    1.8162 O.2        1 <1>        0.000
     12 S1          2.9643   -3.9353   -0.6938 S.o2       1 <1>        0.000
     13 C25         3.1278   -2.7874   -1.9555 C.ar       1 <1>        0.000
     14 O5          4.0106   -3.7560    0.2642 O.2        1 <1>        0.000
     15 O6          2.6091   -5.2126   -1.2854 O.2        1 <1>        0.000
     16 C27         3.7043   -1.5139   -1.8113 C.ar       1 <1>        0.000
     17 C28         2.7031   -2.0572   -4.2953 C.ar       1 <1>        0.000
     18 C30         3.9948   -0.6488   -2.8638 C.ar       1 <1>        0.000
     19 C31         3.4672   -0.9231   -4.1100 C.ar       1 <1>        0.000
     20 H          -2.0858    1.3039   -0.0458 H.spc      1 <1>        0.000
     21 H          -2.2665   -0.7962   -1.2867 H.spc      1 <1>        0.000
     22 H           1.3777   -0.0497    1.9239 H.spc      1 <1>        0.000
     23 H          -0.8807    2.6384    1.3331 H.spc      1 <1>        0.000
     24 H          -0.4517   -2.4856   -1.0659 H.spc      1 <1>        0.000
     25 H           1.7905   -3.7222   -3.3388 H.spc      1 <1>        0.000
     26 H           0.7814   -3.8966   -0.3241 H.spc      1 <1>        0.000
     27 H           3.9416   -1.1784   -0.8017 H.spc      1 <1>        0.000
     28 H           2.2706   -2.2855   -5.2694 H.spc      1 <1>        0.000
     29 H           4.6254    0.2263   -2.7069 H.spc      1 <1>        0.000
     30 H           3.6535   -0.2465   -4.9441 H.spc      1 <1>        0.000
@<TRIPOS>BOND
     1    2    5 1  
     2    2    4 ar 
     3    3    6 ar 
     4   17   19 ar 
     5    4    7 ar 
     6    6    7 ar 
     7    9   11 2  
     8   10   12 1  
     9   16   18 ar 
    10   12   15 2  
    11    9   10 am 
    12   13   16 ar 
    13    7    9 1  
    14   12   14 2  
    15   12   13 1  
    16   18   19 ar 
    17    8   17 ar 
    18   13    8 ar 
    19    1    3 ar 
    20    1    2 ar 
    21    1   20 1  
    22    3   21 1  
    23    4   22 1  
    24    5   23 1  
    25    6   24 1  
    26    8   25 1  
    27   10   26 1  
    28   16   27 1  
    29   17   28 1  
    30   18   29 1  
    31   19   30 1  
# Name:          frag5-677-62/138278
# Creation time: Sat Jun  5 12:51:53 2010


@<TRIPOS>MOLECULE
frag5-677-62/138278
   30    31     1     1     1
SMALL
USER_CHARGES


@<TRIPOS>ATOM
      1 C9         -2.1113   -0.6001    1.0687 C.ar       1 <1>        0.000
      2 C12        -1.2185    0.4668    1.1201 C.ar       1 <1>        0.000
      3 C13        -1.8069   -1.9321    0.7944 C.ar       1 <1>        0.000
      4 C15         0.0926    0.0170    0.9766 C.ar       1 <1>        0.000
      5 O1         -1.5490    1.7391    1.3196 O.3        1 <1>        0.000
      6 C16        -0.4773   -2.2598    0.5919 C.ar       1 <1>        0.000
      7 C17         0.5204   -1.2824    0.7146 C.ar       1 <1>        0.000
      8 C26         4.6771   -2.4140   -1.8643 C.ar       1 <1>        0.000
      9 C20         1.9679   -1.5336    0.6443 C.2        1 <1>        0.000
     10 N3          2.3549   -2.7402    0.1877 N.am       1 <1>        0.000
     11 O4          2.8032   -0.6673    0.8884 O.2        1 <1>        0.000
     12 S1          2.1869   -3.5091   -1.2014 S.o2       1 <1>        0.000
     13 C25         3.3362   -2.6963   -2.1732 C.ar       1 <1>        0.000
     14 O5          2.6010   -4.8560   -0.9403 O.2        1 <1>        0.000
     15 O6          0.8923   -3.1733   -1.7251 O.2        1 <1>        0.000
     16 C27         2.9514   -1.9875   -3.3050 C.ar       1 <1>        0.000
     17 C28         5.6144   -1.8966   -2.7701 C.ar       1 <1>        0.000
     18 C30         3.8038   -1.4205   -4.2449 C.ar       1 <1>        0.000
     19 C31         5.1524   -1.3951   -3.9710 C.ar       1 <1>        0.000
     20 H          -3.1586   -0.3694    1.2635 H.spc      1 <1>        0.000
     21 H          -2.5887   -2.6897    0.7411 H.spc      1 <1>        0.000
     22 H           0.8742    0.7695    1.0816 H.spc      1 <1>        0.000
     23 H          -2.5036    1.8136    1.3884 H.spc      1 <1>        0.000
     24 H          -0.2044   -3.2835    0.3356 H.spc      1 <1>        0.000
     25 H           5.0136   -2.6115   -0.8465 H.spc      1 <1>        0.000
     26 H           2.8685   -3.2822    0.8825 H.spc      1 <1>        0.000
     27 H           1.8811   -1.8648   -3.4710 H.spc      1 <1>        0.000
     28 H           6.6782   -1.8905   -2.5328 H.spc      1 <1>        0.000
     29 H           3.4144   -1.0066   -5.1750 H.spc      1 <1>        0.000
     30 H           5.8517   -0.9816   -4.6977 H.spc      1 <1>        0.000
@<TRIPOS>BOND
     1    2    5 1  
     2    2    4 ar 
     3    3    6 ar 
     4   17   19 ar 
     5    4    7 ar 
     6    6    7 ar 
     7    9   11 2  
     8   10   12 1  
     9   16   18 ar 
    10   12   15 2  
    11    9   10 am 
    12   13   16 ar 
    13    7    9 1  
    14   12   14 2  
    15   12   13 1  
    16   18   19 ar 
    17    8   17 ar 
    18   13    8 ar 
    19    1    3 ar 
    20    1    2 ar 
    21    1   20 1  
    22    3   21 1  
    23    4   22 1  
    24    5   23 1  
    25    6   24 1  
    26    8   25 1  
    27   10   26 1  
    28   16   27 1  
    29   17   28 1  
    30   18   29 1  
    31   19   30 1  
# Name:          frag5-677-62/138278
# Creation time: Sat Jun  5 12:51:53 2010


@<TRIPOS>MOLECULE
frag5-677-62/138278
   30    31     1     1     1
SMALL
USER_CHARGES


@<TRIPOS>ATOM
      1 C9         -2.2081   -0.8779    1.3488 C.ar       1 <1>        0.000
      2 C12        -1.4306    0.2538    1.1081 C.ar       1 <1>        0.000
      3 C13        -1.7689   -2.2057    1.3828 C.ar       1 <1>        0.000
      4 C15        -0.0805   -0.1046    0.9844 C.ar       1 <1>        0.000
      5 O1         -1.8997    1.4962    1.0731 O.3        1 <1>        0.000
      6 C16        -0.4293   -2.4595    1.1269 C.ar       1 <1>        0.000
      7 C17         0.4654   -1.3970    1.0233 C.ar       1 <1>        0.000
      8 C26         4.7506   -2.2681   -1.9569 C.ar       1 <1>        0.000
      9 C20         1.9338   -1.5919    0.9890 C.2        1 <1>        0.000
     10 N3          2.4327   -2.2538   -0.0708 N.am       1 <1>        0.000
     11 O4          2.6895   -1.1799    1.8482 O.2        1 <1>        0.000
     12 S1          1.9650   -2.6256   -1.5334 S.o2       1 <1>        0.000
     13 C25         3.4136   -2.4474   -2.4112 C.ar       1 <1>        0.000
     14 O5          1.5835   -4.0050   -1.4711 O.2        1 <1>        0.000
     15 O6          1.0622   -1.5864   -1.9817 O.2        1 <1>        0.000
     16 C27         3.3418   -2.3050   -3.7762 C.ar       1 <1>        0.000
     17 C28         5.8823   -2.2108   -2.7799 C.ar       1 <1>        0.000
     18 C30         4.4055   -2.1998   -4.6509 C.ar       1 <1>        0.000
     19 C31         5.6826   -2.1723   -4.1417 C.ar       1 <1>        0.000
     20 H          -3.2699   -0.7107    1.5295 H.spc      1 <1>        0.000
     21 H          -2.4604   -3.0186    1.6043 H.spc      1 <1>        0.000
     22 H           0.6253    0.7137    0.8418 H.spc      1 <1>        0.000
     23 H          -2.8537    1.4800    1.1793 H.spc      1 <1>        0.000
     24 H          -0.0788   -3.4847    1.0076 H.spc      1 <1>        0.000
     25 H           4.9060   -2.1674   -0.8828 H.spc      1 <1>        0.000
     26 H           3.3674   -2.6135    0.1227 H.spc      1 <1>        0.000
     27 H           2.3437   -2.2717   -4.2130 H.spc      1 <1>        0.000
     28 H           6.8868   -2.1971   -2.3569 H.spc      1 <1>        0.000
     29 H           4.2357   -2.1396   -5.7259 H.spc      1 <1>        0.000
     30 H           6.5371   -2.1200   -4.8164 H.spc      1 <1>        0.000
@<TRIPOS>BOND
     1    2    5 1  
     2    2    4 ar 
     3    3    6 ar 
     4   17   19 ar 
     5    4    7 ar 
     6    6    7 ar 
     7    9   11 2  
     8   10   12 1  
     9   16   18 ar 
    10   12   15 2  
    11    9   10 am 
    12   13   16 ar 
    13    7    9 1  
    14   12   14 2  
    15   12   13 1  
    16   18   19 ar 
    17    8   17 ar 
    18   13    8 ar 
    19    1    3 ar 
    20    1    2 ar 
    21    1   20 1  
    22    3   21 1  
    23    4   22 1  
    24    5   23 1  
    25    6   24 1  
    26    8   25 1  
    27   10   26 1  
    28   16   27 1  
    29   17   28 1  
    30   18   29 1  
    31   19   30 1  
# Name:          frag5-677-62/138278
# Creation time: Sat Jun  5 12:51:53 2010


@<TRIPOS>MOLECULE
frag5-677-62/138278
   30    31     1     1     1
SMALL
USER_CHARGES


@<TRIPOS>ATOM
      1 C9         -1.3108   -0.1930    2.5785 C.ar       1 <1>        0.000
      2 C12        -1.9148   -0.3666    1.3239 C.ar       1 <1>        0.000
      3 C13         0.0397   -0.3830    2.8952 C.ar       1 <1>        0.000
      4 C15        -0.9544   -0.6477    0.3601 C.ar       1 <1>        0.000
      5 O1         -3.2102   -0.2314    1.0918 O.3        1 <1>        0.000
      6 C16         0.8919   -0.7804    1.9082 C.ar       1 <1>        0.000
      7 C17         0.4051   -0.8167    0.6320 C.ar       1 <1>        0.000
      8 C26         3.5904   -2.6009   -3.6162 C.ar       1 <1>        0.000
      9 C20         1.3219   -1.1236   -0.4263 C.2        1 <1>        0.000
     10 N3          1.7870   -2.4048   -0.4185 N.am       1 <1>        0.000
     11 O4          1.5406   -0.3541   -1.3333 O.2        1 <1>        0.000
     12 S1          2.0168   -3.4050   -1.5966 S.o2       1 <1>        0.000
     13 C25         3.4693   -2.8050   -2.2526 C.ar       1 <1>        0.000
     14 O5          2.2568   -4.6809   -0.9656 O.2        1 <1>        0.000
     15 O6          0.9380   -3.1889   -2.5308 O.2        1 <1>        0.000
     16 C27         4.5848   -2.2728   -1.5576 C.ar       1 <1>        0.000
     17 C28         4.7257   -2.1830   -4.2795 C.ar       1 <1>        0.000
     18 C30         5.7823   -1.8787   -2.1614 C.ar       1 <1>        0.000
     19 C31         5.8313   -1.8244   -3.5404 C.ar       1 <1>        0.000
     20 H          -1.9623    0.1234    3.3931 H.spc      1 <1>        0.000
     21 H           0.4021   -0.2167    3.9097 H.spc      1 <1>        0.000
     22 H          -1.2831   -0.7424   -0.6748 H.spc      1 <1>        0.000
     23 H          -3.6636   -0.0399    1.9161 H.spc      1 <1>        0.000
     24 H           1.9225   -1.0586    2.1287 H.spc      1 <1>        0.000
     25 H           2.7049   -2.7881   -4.2236 H.spc      1 <1>        0.000
     26 H           2.0229   -2.7691    0.5046 H.spc      1 <1>        0.000
     27 H           4.5027   -2.1633   -0.4762 H.spc      1 <1>        0.000
     28 H           4.7473   -2.1375   -5.3683 H.spc      1 <1>        0.000
     29 H           6.6541   -1.6211   -1.5599 H.spc      1 <1>        0.000
     30 H           6.7423   -1.4987   -4.0425 H.spc      1 <1>        0.000
@<TRIPOS>BOND
     1    2    5 1  
     2    2    4 ar 
     3    3    6 ar 
     4   17   19 ar 
     5    4    7 ar 
     6    6    7 ar 
     7    9   11 2  
     8   10   12 1  
     9   16   18 ar 
    10   12   15 2  
    11    9   10 am 
    12   13   16 ar 
    13    7    9 1  
    14   12   14 2  
    15   12   13 1  
    16   18   19 ar 
    17    8   17 ar 
    18   13    8 ar 
    19    1    3 ar 
    20    1    2 ar 
    21    1   20 1  
    22    3   21 1  
    23    4   22 1  
    24    5   23 1  
    25    6   24 1  
    26    8   25 1  
    27   10   26 1  
    28   16   27 1  
    29   17   28 1  
    30   18   29 1  
    31   19   30 1  
# Name:          frag5-677-62/138278
# Creation time: Sat Jun  5 12:51:53 2010


@<TRIPOS>MOLECULE
frag5-677-62/138278
   30    31     1     1     1
SMALL
USER_CHARGES


@<TRIPOS>ATOM
      1 C9         -1.7943   -0.3997    2.1240 C.ar       1 <1>        0.000
      2 C12        -1.1964    0.6509    1.4146 C.ar       1 <1>        0.000
      3 C13        -1.4510   -1.7560    2.0667 C.ar       1 <1>        0.000
      4 C15        -0.1062    0.1985    0.7056 C.ar       1 <1>        0.000
      5 O1         -1.5723    1.9147    1.4574 O.3        1 <1>        0.000
      6 C16        -0.4257   -2.1327    1.2359 C.ar       1 <1>        0.000
      7 C17         0.2437   -1.1290    0.5543 C.ar       1 <1>        0.000
      8 C26         4.4098   -1.9904   -1.6812 C.ar       1 <1>        0.000
      9 C20         1.3277   -1.3721   -0.3446 C.2        1 <1>        0.000
     10 N3          1.2135   -2.4639   -1.1530 N.am       1 <1>        0.000
     11 O4          2.3544   -0.7286   -0.2546 O.2        1 <1>        0.000
     12 S1          2.2277   -3.6476   -1.3645 S.o2       1 <1>        0.000
     13 C25         3.4419   -2.8402   -2.2410 C.ar       1 <1>        0.000
     14 O5          2.6935   -4.0013   -0.0466 O.2        1 <1>        0.000
     15 O6          1.5465   -4.5834   -2.2329 O.2        1 <1>        0.000
     16 C27         3.4246   -2.6991   -3.6330 C.ar       1 <1>        0.000
     17 C28         5.4892   -1.4478   -2.3649 C.ar       1 <1>        0.000
     18 C30         4.4577   -2.1633   -4.3926 C.ar       1 <1>        0.000
     19 C31         5.5071   -1.5500   -3.7389 C.ar       1 <1>        0.000
     20 H          -2.6137   -0.1325    2.7913 H.spc      1 <1>        0.000
     21 H          -1.9843   -2.4935    2.6665 H.spc      1 <1>        0.000
     22 H           0.5287    0.9445    0.2276 H.spc      1 <1>        0.000
     23 H          -2.3534    1.9965    2.0095 H.spc      1 <1>        0.000
     24 H          -0.1488   -3.1802    1.1169 H.spc      1 <1>        0.000
     25 H           4.3052   -1.7368   -0.6263 H.spc      1 <1>        0.000
     26 H           0.3516   -2.5211   -1.6955 H.spc      1 <1>        0.000
     27 H           2.5327   -3.0351   -4.1620 H.spc      1 <1>        0.000
     28 H           6.3004   -0.9544   -1.8295 H.spc      1 <1>        0.000
     29 H           4.4396   -2.2261   -5.4806 H.spc      1 <1>        0.000
     30 H           6.3462   -1.1483   -4.3069 H.spc      1 <1>        0.000
@<TRIPOS>BOND
     1    2    5 1  
     2    2    4 ar 
     3    3    6 ar 
     4   17   19 ar 
     5    4    7 ar 
     6    6    7 ar 
     7    9   11 2  
     8   10   12 1  
     9   16   18 ar 
    10   12   15 2  
    11    9   10 am 
    12   13   16 ar 
    13    7    9 1  
    14   12   14 2  
    15   12   13 1  
    16   18   19 ar 
    17    8   17 ar 
    18   13    8 ar 
    19    1    3 ar 
    20    1    2 ar 
    21    1   20 1  
    22    3   21 1  
    23    4   22 1  
    24    5   23 1  
    25    6   24 1  
    26    8   25 1  
    27   10   26 1  
    28   16   27 1  
    29   17   28 1  
    30   18   29 1  
    31   19   30 1  
# Name:          frag5-677-62/138278
# Creation time: Sat Jun  5 12:51:53 2010


@<TRIPOS>MOLECULE
frag5-677-62/138278
   30    31     1     1     1
SMALL
USER_CHARGES


@<TRIPOS>ATOM
      1 C9         -1.3158    0.8529    0.8320 C.ar       1 <1>        0.000
      2 C12        -1.7239   -0.4800    0.9415 C.ar       1 <1>        0.000
      3 C13        -0.0162    1.3130    0.5983 C.ar       1 <1>        0.000
      4 C15        -0.6802   -1.3442    0.6654 C.ar       1 <1>        0.000
      5 O1         -2.9535   -0.8870    1.2238 O.3        1 <1>        0.000
      6 C16         0.9845    0.3882    0.4556 C.ar       1 <1>        0.000
      7 C17         0.6512   -0.9340    0.6041 C.ar       1 <1>        0.000
      8 C26         4.5653   -2.6498   -2.1073 C.ar       1 <1>        0.000
      9 C20         1.6908   -1.9014    0.5018 C.2        1 <1>        0.000
     10 N3          1.4499   -2.9695   -0.2957 N.am       1 <1>        0.000
     11 O4          2.7649   -1.7090    1.0289 O.2        1 <1>        0.000
     12 S1          2.4941   -3.9378   -0.9824 S.o2       1 <1>        0.000
     13 C25         3.1975   -2.8230   -2.0690 C.ar       1 <1>        0.000
     14 O5          3.3940   -4.2902    0.0931 O.2        1 <1>        0.000
     15 O6          1.7404   -4.8921   -1.7245 O.2        1 <1>        0.000
     16 C27         2.5411   -1.8369   -2.8692 C.ar       1 <1>        0.000
     17 C28         5.2631   -1.9256   -3.0623 C.ar       1 <1>        0.000
     18 C30         3.1842   -1.0183   -3.8139 C.ar       1 <1>        0.000
     19 C31         4.5597   -1.0960   -3.9093 C.ar       1 <1>        0.000
     20 H          -2.0908    1.6117    0.9400 H.spc      1 <1>        0.000
     21 H           0.1953    2.3802    0.5314 H.spc      1 <1>        0.000
     22 H          -0.9089   -2.3950    0.4874 H.spc      1 <1>        0.000
     23 H          -3.5139   -0.1236    1.3811 H.spc      1 <1>        0.000
     24 H           2.0073    0.6918    0.2324 H.spc      1 <1>        0.000
     25 H           5.1489   -3.1235   -1.3179 H.spc      1 <1>        0.000
     26 H           0.4675   -3.1758   -0.4766 H.spc      1 <1>        0.000
     27 H           1.4664   -1.7109   -2.7376 H.spc      1 <1>        0.000
     28 H           6.3469   -2.0107   -3.1416 H.spc      1 <1>        0.000
     29 H           2.6144   -0.3427   -4.4518 H.spc      1 <1>        0.000
     30 H           5.0890   -0.5016   -4.6540 H.spc      1 <1>        0.000
@<TRIPOS>BOND
     1    2    5 1  
     2    2    4 ar 
     3    3    6 ar 
     4   17   19 ar 
     5    4    7 ar 
     6    6    7 ar 
     7    9   11 2  
     8   10   12 1  
     9   16   18 ar 
    10   12   15 2  
    11    9   10 am 
    12   13   16 ar 
    13    7    9 1  
    14   12   14 2  
    15   12   13 1  
    16   18   19 ar 
    17    8   17 ar 
    18   13    8 ar 
    19    1    3 ar 
    20    1    2 ar 
    21    1   20 1  
    22    3   21 1  
    23    4   22 1  
    24    5   23 1  
    25    6   24 1  
    26    8   25 1  
    27   10   26 1  
    28   16   27 1  
    29   17   28 1  
    30   18   29 1  
    31   19   30 1  
# Name:          frag5-677-62/138278
# Creation time: Sat Jun  5 12:51:53 2010


@<TRIPOS>MOLECULE
frag5-677-62/138278
   30    31     1     1     1
SMALL
USER_CHARGES


@<TRIPOS>ATOM
      1 C9         -1.4074    0.0948    1.5615 C.ar       1 <1>        0.000
      2 C12        -0.6871    0.3954    0.4092 C.ar       1 <1>        0.000
      3 C13        -1.4683   -1.1445    2.2070 C.ar       1 <1>        0.000
      4 C15         0.0402   -0.7291    0.0058 C.ar       1 <1>        0.000
      5 O1         -0.6823    1.5677   -0.2095 O.3        1 <1>        0.000
      6 C16        -0.7444   -2.1987    1.6975 C.ar       1 <1>        0.000
      7 C17        -0.0188   -2.0508    0.5365 C.ar       1 <1>        0.000
      8 C26         4.3844   -2.9507   -2.6233 C.ar       1 <1>        0.000
      9 C20         0.6510   -3.2727   -0.0260 C.2        1 <1>        0.000
     10 N3          1.9351   -3.1928   -0.4963 N.am       1 <1>        0.000
     11 O4          0.0849   -4.3536   -0.0303 O.2        1 <1>        0.000
     12 S1          3.1762   -2.2008   -0.2957 S.o2       1 <1>        0.000
     13 C25         3.6302   -2.0041   -1.9152 C.ar       1 <1>        0.000
     14 O5          2.6825   -0.9455    0.2135 O.2        1 <1>        0.000
     15 O6          4.2025   -2.9192    0.4181 O.2        1 <1>        0.000
     16 C27         3.0765   -1.0572   -2.7850 C.ar       1 <1>        0.000
     17 C28         4.8864   -2.7604   -3.9028 C.ar       1 <1>        0.000
     18 C30         3.5760   -0.7689   -4.0449 C.ar       1 <1>        0.000
     19 C31         4.4739   -1.6499   -4.6094 C.ar       1 <1>        0.000
     20 H          -1.9822    0.9074    2.0059 H.spc      1 <1>        0.000
     21 H          -2.0798   -1.2736    3.1001 H.spc      1 <1>        0.000
     22 H           0.7390   -0.5758   -0.8166 H.spc      1 <1>        0.000
     23 H          -1.2587    2.1770    0.2574 H.spc      1 <1>        0.000
     24 H          -0.7456   -3.1571    2.2166 H.spc      1 <1>        0.000
     25 H           4.5908   -3.9028   -2.1343 H.spc      1 <1>        0.000
     26 H           2.1563   -3.9571   -1.1345 H.spc      1 <1>        0.000
     27 H           2.1949   -0.5111   -2.4492 H.spc      1 <1>        0.000
     28 H           5.5891   -3.4706   -4.3386 H.spc      1 <1>        0.000
     29 H           3.2670    0.1313   -4.5761 H.spc      1 <1>        0.000
     30 H           4.8576   -1.4689   -5.6135 H.spc      1 <1>        0.000
@<TRIPOS>BOND
     1    2    5 1  
     2    2    4 ar 
     3    3    6 ar 
     4   17   19 ar 
     5    4    7 ar 
     6    6    7 ar 
     7    9   11 2  
     8   10   12 1  
     9   16   18 ar 
    10   12   15 2  
    11    9   10 am 
    12   13   16 ar 
    13    7    9 1  
    14   12   14 2  
    15   12   13 1  
    16   18   19 ar 
    17    8   17 ar 
    18   13    8 ar 
    19    1    3 ar 
    20    1    2 ar 
    21    1   20 1  
    22    3   21 1  
    23    4   22 1  
    24    5   23 1  
    25    6   24 1  
    26    8   25 1  
    27   10   26 1  
    28   16   27 1  
    29   17   28 1  
    30   18   29 1  
    31   19   30 1  
# Name:          frag5-677-62/138278
# Creation time: Sat Jun  5 12:51:53 2010


@<TRIPOS>MOLECULE
frag5-677-62/138278
   30    31     1     1     1
SMALL
USER_CHARGES


@<TRIPOS>ATOM
      1 C9         -2.1149   -0.8405    1.8962 C.ar       1 <1>        0.000
      2 C12        -1.6576   -0.0471    0.8370 C.ar       1 <1>        0.000
      3 C13        -1.4305   -1.8975    2.5006 C.ar       1 <1>        0.000
      4 C15        -0.3378   -0.3807    0.5137 C.ar       1 <1>        0.000
      5 O1         -2.3721    0.9096    0.2621 O.3        1 <1>        0.000
      6 C16        -0.1804   -2.2199    2.0393 C.ar       1 <1>        0.000
      7 C17         0.4213   -1.4247    1.0925 C.ar       1 <1>        0.000
      8 C26         3.6005   -2.3769   -3.8354 C.ar       1 <1>        0.000
      9 C20         1.8395   -1.6611    0.7930 C.2        1 <1>        0.000
     10 N3          2.2821   -1.3164   -0.4376 N.am       1 <1>        0.000
     11 O4          2.5895   -2.2769    1.5294 O.2        1 <1>        0.000
     12 S1          1.8918   -1.8893   -1.8571 S.o2       1 <1>        0.000
     13 C25         3.4381   -2.2578   -2.4707 C.ar       1 <1>        0.000
     14 O5          1.1786   -3.1323   -1.6575 O.2        1 <1>        0.000
     15 O6          1.3322   -0.7791   -2.5924 O.2        1 <1>        0.000
     16 C27         4.6935   -2.3837   -1.7954 C.ar       1 <1>        0.000
     17 C28         4.7727   -2.6476   -4.5082 C.ar       1 <1>        0.000
     18 C30         5.9120   -2.7015   -2.4122 C.ar       1 <1>        0.000
     19 C31         5.9329   -2.8173   -3.7865 C.ar       1 <1>        0.000
     20 H          -3.1052   -0.6099    2.2888 H.spc      1 <1>        0.000
     21 H          -1.8810   -2.4545    3.3221 H.spc      1 <1>        0.000
     22 H           0.1503    0.2189   -0.2547 H.spc      1 <1>        0.000
     23 H          -3.2449    0.9390    0.6607 H.spc      1 <1>        0.000
     24 H           0.3338   -3.1019    2.4210 H.spc      1 <1>        0.000
     25 H           2.7077   -2.2428   -4.4461 H.spc      1 <1>        0.000
     26 H           2.9767   -0.5696   -0.4513 H.spc      1 <1>        0.000
     27 H           4.7033   -2.2198   -0.7178 H.spc      1 <1>        0.000
     28 H           4.7810   -2.7261   -5.5953 H.spc      1 <1>        0.000
     29 H           6.8164   -2.8526   -1.8228 H.spc      1 <1>        0.000
     30 H           6.8671   -3.0430   -4.3007 H.spc      1 <1>        0.000
@<TRIPOS>BOND
     1    2    5 1  
     2    2    4 ar 
     3    3    6 ar 
     4   17   19 ar 
     5    4    7 ar 
     6    6    7 ar 
     7    9   11 2  
     8   10   12 1  
     9   16   18 ar 
    10   12   15 2  
    11    9   10 am 
    12   13   16 ar 
    13    7    9 1  
    14   12   14 2  
    15   12   13 1  
    16   18   19 ar 
    17    8   17 ar 
    18   13    8 ar 
    19    1    3 ar 
    20    1    2 ar 
    21    1   20 1  
    22    3   21 1  
    23    4   22 1  
    24    5   23 1  
    25    6   24 1  
    26    8   25 1  
    27   10   26 1  
    28   16   27 1  
    29   17   28 1  
    30   18   29 1  
    31   19   30 1  
# Name:          frag5-677-62/138278
# Creation time: Sat Jun  5 12:51:53 2010


@<TRIPOS>MOLECULE
frag5-677-62/138278
   30    31     1     1     1
SMALL
USER_CHARGES


@<TRIPOS>ATOM
      1 C9         -1.3896   -0.0512    2.3763 C.ar       1 <1>        0.000
      2 C12        -1.6004    0.4757    1.1003 C.ar       1 <1>        0.000
      3 C13        -0.4957   -1.0615    2.7573 C.ar       1 <1>        0.000
      4 C15        -0.7273   -0.0902    0.2094 C.ar       1 <1>        0.000
      5 O1         -2.4585    1.4351    0.7896 O.3        1 <1>        0.000
      6 C16         0.2519   -1.6521    1.7886 C.ar       1 <1>        0.000
      7 C17         0.1225   -1.1564    0.5019 C.ar       1 <1>        0.000
      8 C26         3.4802   -1.3421   -2.4724 C.ar       1 <1>        0.000
      9 C20         0.8536   -1.7053   -0.5767 C.2        1 <1>        0.000
     10 N3          1.8709   -2.5201   -0.2350 N.am       1 <1>        0.000
     11 O4          0.5456   -1.4962   -1.7379 O.2        1 <1>        0.000
     12 S1          2.6262   -3.6536   -1.0502 S.o2       1 <1>        0.000
     13 C25         3.5837   -2.7149   -2.0813 C.ar       1 <1>        0.000
     14 O5          3.4382   -4.3222   -0.0561 O.2        1 <1>        0.000
     15 O6          1.6450   -4.3638   -1.8329 O.2        1 <1>        0.000
     16 C27         4.7442   -3.2536   -2.6032 C.ar       1 <1>        0.000
     17 C28         4.3224   -0.6620   -3.3579 C.ar       1 <1>        0.000
     18 C30         5.5900   -2.6604   -3.5274 C.ar       1 <1>        0.000
     19 C31         5.3885   -1.3461   -3.8813 C.ar       1 <1>        0.000
     20 H          -1.9954    0.3763    3.1753 H.spc      1 <1>        0.000
     21 H          -0.4031   -1.3645    3.8002 H.spc      1 <1>        0.000
     22 H          -0.6945    0.3219   -0.7992 H.spc      1 <1>        0.000
     23 H          -2.9653    1.6744    1.5691 H.spc      1 <1>        0.000
     24 H           0.9241   -2.4799    2.0143 H.spc      1 <1>        0.000
     25 H           2.6624   -0.7687   -2.0360 H.spc      1 <1>        0.000
     26 H           2.2166   -2.3847    0.7150 H.spc      1 <1>        0.000
     27 H           5.0232   -4.2471   -2.2521 H.spc      1 <1>        0.000
     28 H           4.1369    0.3788   -3.6233 H.spc      1 <1>        0.000
     29 H           6.4073   -3.2299   -3.9698 H.spc      1 <1>        0.000
     30 H           6.0716   -0.8527   -4.5727 H.spc      1 <1>        0.000
@<TRIPOS>BOND
     1    2    5 1  
     2    2    4 ar 
     3    3    6 ar 
     4   17   19 ar 
     5    4    7 ar 
     6    6    7 ar 
     7    9   11 2  
     8   10   12 1  
     9   16   18 ar 
    10   12   15 2  
    11    9   10 am 
    12   13   16 ar 
    13    7    9 1  
    14   12   14 2  
    15   12   13 1  
    16   18   19 ar 
    17    8   17 ar 
    18   13    8 ar 
    19    1    3 ar 
    20    1    2 ar 
    21    1   20 1  
    22    3   21 1  
    23    4   22 1  
    24    5   23 1  
    25    6   24 1  
    26    8   25 1  
    27   10   26 1  
    28   16   27 1  
    29   17   28 1  
    30   18   29 1  
    31   19   30 1  
# Name:          frag5-677-62/138278
# Creation time: Sat Jun  5 12:51:53 2010


@<TRIPOS>MOLECULE
frag5-677-62/138278
   30    31     1     1     1
SMALL
USER_CHARGES


@<TRIPOS>ATOM
      1 C9         -1.4670    1.0117    0.9765 C.ar       1 <1>        0.000
      2 C12        -1.0879    0.2929    2.1162 C.ar       1 <1>        0.000
      3 C13        -1.0863    0.7590   -0.3455 C.ar       1 <1>        0.000
      4 C15        -0.3395   -0.8163    1.7722 C.ar       1 <1>        0.000
      5 O1         -1.4415    0.5970    3.3593 O.3        1 <1>        0.000
      6 C16        -0.2498   -0.2965   -0.5857 C.ar       1 <1>        0.000
      7 C17         0.0383   -1.1183    0.4715 C.ar       1 <1>        0.000
      8 C26         4.5341   -1.7902   -2.6087 C.ar       1 <1>        0.000
      9 C20         0.8493   -2.2862    0.2721 C.2        1 <1>        0.000
     10 N3          1.9892   -2.0979   -0.4218 N.am       1 <1>        0.000
     11 O4          0.5477   -3.3405    0.7615 O.2        1 <1>        0.000
     12 S1          3.2552   -3.0335   -0.5711 S.o2       1 <1>        0.000
     13 C25         3.6262   -2.7583   -2.2032 C.ar       1 <1>        0.000
     14 O5          4.2081   -2.4165    0.2922 O.2        1 <1>        0.000
     15 O6          2.8326   -4.4099   -0.4533 O.2        1 <1>        0.000
     16 C27         2.8888   -3.2525   -3.2871 C.ar       1 <1>        0.000
     17 C28         5.0267   -1.6791   -3.9014 C.ar       1 <1>        0.000
     18 C30         3.2850   -3.1457   -4.6193 C.ar       1 <1>        0.000
     19 C31         4.3821   -2.3605   -4.9136 C.ar       1 <1>        0.000
     20 H          -2.1313    1.8609    1.1367 H.spc      1 <1>        0.000
     21 H          -1.4461    1.3856   -1.1616 H.spc      1 <1>        0.000
     22 H          -0.0280   -1.4929    2.5680 H.spc      1 <1>        0.000
     23 H          -1.9555    1.4078    3.3553 H.spc      1 <1>        0.000
     24 H           0.1694   -0.4758   -1.5758 H.spc      1 <1>        0.000
     25 H           4.8819   -1.0725   -1.8657 H.spc      1 <1>        0.000
     26 H           2.0437   -1.2149   -0.9294 H.spc      1 <1>        0.000
     27 H           1.9440   -3.7530   -3.0749 H.spc      1 <1>        0.000
     28 H           5.9036   -1.0670   -4.1126 H.spc      1 <1>        0.000
     29 H           2.7432   -3.6681   -5.4077 H.spc      1 <1>        0.000
     30 H           4.7374   -2.2793   -5.9409 H.spc      1 <1>        0.000
@<TRIPOS>BOND
     1    2    5 1  
     2    2    4 ar 
     3    3    6 ar 
     4   17   19 ar 
     5    4    7 ar 
     6    6    7 ar 
     7    9   11 2  
     8   10   12 1  
     9   16   18 ar 
    10   12   15 2  
    11    9   10 am 
    12   13   16 ar 
    13    7    9 1  
    14   12   14 2  
    15   12   13 1  
    16   18   19 ar 
    17    8   17 ar 
    18   13    8 ar 
    19    1    3 ar 
    20    1    2 ar 
    21    1   20 1  
    22    3   21 1  
    23    4   22 1  
    24    5   23 1  
    25    6   24 1  
    26    8   25 1  
    27   10   26 1  
    28   16   27 1  
    29   17   28 1  
    30   18   29 1  
    31   19   30 1  
# Name:          frag5-677-62/138278
# Creation time: Sat Jun  5 12:51:53 2010


@<TRIPOS>MOLECULE
frag5-677-62/138278
   30    31     1     1     1
SMALL
USER_CHARGES


@<TRIPOS>ATOM
      1 C9         -0.6997    1.1474    1.7613 C.ar       1 <1>        0.000
      2 C12        -1.6648    0.2447    1.3131 C.ar       1 <1>        0.000
      3 C13         0.6890    0.9732    1.7489 C.ar       1 <1>        0.000
      4 C15        -1.0739   -0.8454    0.7058 C.ar       1 <1>        0.000
      5 O1         -2.9769    0.4179    1.4051 O.3        1 <1>        0.000
      6 C16         1.1868   -0.1880    1.2189 C.ar       1 <1>        0.000
      7 C17         0.2772   -1.1140    0.7614 C.ar       1 <1>        0.000
      8 C26         4.5797   -1.8602   -2.2064 C.ar       1 <1>        0.000
      9 C20         0.7003   -2.3662    0.1845 C.2        1 <1>        0.000
     10 N3          1.8859   -2.3340   -0.4543 N.am       1 <1>        0.000
     11 O4          0.0598   -3.3701    0.3159 O.2        1 <1>        0.000
     12 S1          2.8123   -3.5158   -0.9318 S.o2       1 <1>        0.000
     13 C25         3.5415   -2.7875   -2.2847 C.ar       1 <1>        0.000
     14 O5          3.7458   -3.6479    0.1378 O.2        1 <1>        0.000
     15 O6          1.9640   -4.5802   -1.4118 O.2        1 <1>        0.000
     16 C27         2.9912   -2.8238   -3.5653 C.ar       1 <1>        0.000
     17 C28         5.3126   -1.4239   -3.3058 C.ar       1 <1>        0.000
     18 C30         3.6380   -2.3797   -4.7123 C.ar       1 <1>        0.000
     19 C31         4.8226   -1.6874   -4.5693 C.ar       1 <1>        0.000
     20 H          -1.0673    2.0908    2.1650 H.spc      1 <1>        0.000
     21 H           1.3544    1.7383    2.1488 H.spc      1 <1>        0.000
     22 H          -1.7121   -1.5329    0.1507 H.spc      1 <1>        0.000
     23 H          -3.1584    1.2410    1.8646 H.spc      1 <1>        0.000
     24 H           2.2598   -0.3710    1.1619 H.spc      1 <1>        0.000
     25 H           4.8319   -1.4534   -1.2271 H.spc      1 <1>        0.000
     26 H           2.2387   -1.3995   -0.6610 H.spc      1 <1>        0.000
     27 H           1.9849   -3.2282   -3.6742 H.spc      1 <1>        0.000
     28 H           6.2516   -0.8867   -3.1726 H.spc      1 <1>        0.000
     29 H           3.2199   -2.5735   -5.7001 H.spc      1 <1>        0.000
     30 H           5.3692   -1.3500   -5.4499 H.spc      1 <1>        0.000
@<TRIPOS>BOND
     1    2    5 1  
     2    2    4 ar 
     3    3    6 ar 
     4   17   19 ar 
     5    4    7 ar 
     6    6    7 ar 
     7    9   11 2  
     8   10   12 1  
     9   16   18 ar 
    10   12   15 2  
    11    9   10 am 
    12   13   16 ar 
    13    7    9 1  
    14   12   14 2  
    15   12   13 1  
    16   18   19 ar 
    17    8   17 ar 
    18   13    8 ar 
    19    1    3 ar 
    20    1    2 ar 
    21    1   20 1  
    22    3   21 1  
    23    4   22 1  
    24    5   23 1  
    25    6   24 1  
    26    8   25 1  
    27   10   26 1  
    28   16   27 1  
    29   17   28 1  
    30   18   29 1  
    31   19   30 1  
# Name:          frag5-677-62/138278
# Creation time: Sat Jun  5 12:51:53 2010


@<TRIPOS>MOLECULE
frag5-677-62/138278
   30    31     1     1     1
SMALL
USER_CHARGES


@<TRIPOS>ATOM
      1 C9         -1.4676    0.1722    1.9748 C.ar       1 <1>        0.000
      2 C12        -0.9638    0.7594    0.8053 C.ar       1 <1>        0.000
      3 C13        -1.2889   -1.1510    2.4020 C.ar       1 <1>        0.000
      4 C15        -0.1391   -0.1252    0.1406 C.ar       1 <1>        0.000
      5 O1         -1.1915    2.0042    0.4232 O.3        1 <1>        0.000
      6 C16        -0.5403   -1.9870    1.6275 C.ar       1 <1>        0.000
      7 C17        -0.0702   -1.4702    0.4503 C.ar       1 <1>        0.000
      8 C26         3.3125   -1.1856   -2.2883 C.ar       1 <1>        0.000
      9 C20         0.6761   -2.3248   -0.4053 C.2        1 <1>        0.000
     10 N3          1.9680   -2.5259   -0.0444 N.am       1 <1>        0.000
     11 O4          0.1631   -2.8491   -1.3676 O.2        1 <1>        0.000
     12 S1          3.0319   -3.4965   -0.6447 S.o2       1 <1>        0.000
     13 C25         3.6268   -2.5263   -1.9249 C.ar       1 <1>        0.000
     14 O5          4.0345   -3.6159    0.3958 O.2        1 <1>        0.000
     15 O6          2.3666   -4.6337   -1.1992 O.2        1 <1>        0.000
     16 C27         4.4924   -3.0937   -2.8288 C.ar       1 <1>        0.000
     17 C28         3.9056   -0.4744   -3.3417 C.ar       1 <1>        0.000
     18 C30         5.0789   -2.4714   -3.9105 C.ar       1 <1>        0.000
     19 C31         4.7963   -1.1460   -4.1534 C.ar       1 <1>        0.000
     20 H          -2.0635    0.8150    2.6227 H.spc      1 <1>        0.000
     21 H          -1.7376   -1.5030    3.3309 H.spc      1 <1>        0.000
     22 H           0.4873    0.2548   -0.6665 H.spc      1 <1>        0.000
     23 H          -1.7961    2.4219    1.0410 H.spc      1 <1>        0.000
     24 H          -0.3275   -3.0124    1.9297 H.spc      1 <1>        0.000
     25 H           2.5511   -0.6717   -1.7016 H.spc      1 <1>        0.000
     26 H           2.2930   -1.9568    0.7372 H.spc      1 <1>        0.000
     27 H           4.7410   -4.1438   -2.6749 H.spc      1 <1>        0.000
     28 H           3.6702    0.5759   -3.5136 H.spc      1 <1>        0.000
     29 H           5.7565   -3.0209   -4.5639 H.spc      1 <1>        0.000
     30 H           5.2750   -0.6287   -4.9848 H.spc      1 <1>        0.000
@<TRIPOS>BOND
     1    2    5 1  
     2    2    4 ar 
     3    3    6 ar 
     4   17   19 ar 
     5    4    7 ar 
     6    6    7 ar 
     7    9   11 2  
     8   10   12 1  
     9   16   18 ar 
    10   12   15 2  
    11    9   10 am 
    12   13   16 ar 
    13    7    9 1  
    14   12   14 2  
    15   12   13 1  
    16   18   19 ar 
    17    8   17 ar 
    18   13    8 ar 
    19    1    3 ar 
    20    1    2 ar 
    21    1   20 1  
    22    3   21 1  
    23    4   22 1  
    24    5   23 1  
    25    6   24 1  
    26    8   25 1  
    27   10   26 1  
    28   16   27 1  
    29   17   28 1  
    30   18   29 1  
    31   19   30 1  
# Name:          frag5-677-62/138278
# Creation time: Sat Jun  5 12:51:53 2010


@<TRIPOS>MOLECULE
frag5-677-62/138278
   30    31     1     1     1
SMALL
USER_CHARGES


@<TRIPOS>ATOM
      1 C9         -2.1502   -0.6847    1.5294 C.ar       1 <1>        0.000
      2 C12        -1.2250    0.3496    1.3394 C.ar       1 <1>        0.000
      3 C13        -1.9252   -2.0501    1.3313 C.ar       1 <1>        0.000
      4 C15         0.0255   -0.1705    0.9944 C.ar       1 <1>        0.000
      5 O1         -1.4882    1.6350    1.5250 O.3        1 <1>        0.000
      6 C16        -0.6821   -2.4577    0.9126 C.ar       1 <1>        0.000
      7 C17         0.3392   -1.5363    0.8274 C.ar       1 <1>        0.000
      8 C26         4.3438   -3.0533   -1.6329 C.ar       1 <1>        0.000
      9 C20         1.7172   -1.9928    0.6066 C.2        1 <1>        0.000
     10 N3          2.5092   -1.2258   -0.1930 N.am       1 <1>        0.000
     11 O4          2.1110   -3.0893    0.9656 O.2        1 <1>        0.000
     12 S1          2.4124   -0.9496   -1.7474 S.o2       1 <1>        0.000
     13 C25         3.4645   -2.1652   -2.3364 C.ar       1 <1>        0.000
     14 O5          1.0576   -1.2640   -2.1549 O.2        1 <1>        0.000
     15 O6          3.0309    0.3307   -1.9814 O.2        1 <1>        0.000
     16 C27         3.5429   -2.3894   -3.6974 C.ar       1 <1>        0.000
     17 C28         5.1680   -4.0248   -2.2264 C.ar       1 <1>        0.000
     18 C30         4.3707   -3.2829   -4.3487 C.ar       1 <1>        0.000
     19 C31         5.1691   -4.1200   -3.6022 C.ar       1 <1>        0.000
     20 H          -3.1460   -0.3958    1.8656 H.spc      1 <1>        0.000
     21 H          -2.7195   -2.7760    1.5054 H.spc      1 <1>        0.000
     22 H           0.8332    0.5449    0.8400 H.spc      1 <1>        0.000
     23 H          -2.4145    1.7410    1.7537 H.spc      1 <1>        0.000
     24 H          -0.5050   -3.5007    0.6501 H.spc      1 <1>        0.000
     25 H           4.3756   -2.9677   -0.5467 H.spc      1 <1>        0.000
     26 H           3.2815   -0.7589    0.2824 H.spc      1 <1>        0.000
     27 H           2.8788   -1.7962   -4.3260 H.spc      1 <1>        0.000
     28 H           5.7877   -4.6832   -1.6176 H.spc      1 <1>        0.000
     29 H           4.3915   -3.3246   -5.4377 H.spc      1 <1>        0.000
     30 H           5.8011   -4.8569   -4.0978 H.spc      1 <1>        0.000
@<TRIPOS>BOND
     1    2    5 1  
     2    2    4 ar 
     3    3    6 ar 
     4   17   19 ar 
     5    4    7 ar 
     6    6    7 ar 
     7    9   11 2  
     8   10   12 1  
     9   16   18 ar 
    10   12   15 2  
    11    9   10 am 
    12   13   16 ar 
    13    7    9 1  
    14   12   14 2  
    15   12   13 1  
    16   18   19 ar 
    17    8   17 ar 
    18   13    8 ar 
    19    1    3 ar 
    20    1    2 ar 
    21    1   20 1  
    22    3   21 1  
    23    4   22 1  
    24    5   23 1  
    25    6   24 1  
    26    8   25 1  
    27   10   26 1  
    28   16   27 1  
    29   17   28 1  
    30   18   29 1  
    31   19   30 1  
# Name:          frag5-677-62/138278
# Creation time: Sat Jun  5 12:51:53 2010


@<TRIPOS>MOLECULE
frag5-677-62/138278
   30    31     1     1     1
SMALL
USER_CHARGES


@<TRIPOS>ATOM
      1 C9         -1.6536    0.3387    1.5828 C.ar       1 <1>        0.000
      2 C12        -1.0637    0.4965    0.3334 C.ar       1 <1>        0.000
      3 C13        -1.3761   -0.6511    2.5325 C.ar       1 <1>        0.000
      4 C15        -0.0452   -0.4287    0.1562 C.ar       1 <1>        0.000
      5 O1         -1.3991    1.4383   -0.5535 O.3        1 <1>        0.000
      6 C16        -0.4255   -1.5846    2.2302 C.ar       1 <1>        0.000
      7 C17         0.2704   -1.4357    1.0806 C.ar       1 <1>        0.000
      8 C26         3.2019   -2.5129   -3.6696 C.ar       1 <1>        0.000
      9 C20         1.3182   -2.4213    0.8326 C.2        1 <1>        0.000
     10 N3          1.9860   -2.3198   -0.3127 N.am       1 <1>        0.000
     11 O4          1.5030   -3.3322    1.5969 O.2        1 <1>        0.000
     12 S1          2.5285   -3.4700   -1.2553 S.o2       1 <1>        0.000
     13 C25         3.4800   -2.5354   -2.3225 C.ar       1 <1>        0.000
     14 O5          3.3881   -4.2883   -0.4637 O.2        1 <1>        0.000
     15 O6          1.3866   -3.9692   -1.9554 O.2        1 <1>        0.000
     16 C27         4.4383   -1.5816   -1.9654 C.ar       1 <1>        0.000
     17 C28         3.9639   -1.8731   -4.6326 C.ar       1 <1>        0.000
     18 C30         5.2757   -0.9306   -2.8778 C.ar       1 <1>        0.000
     19 C31         5.0138   -1.0800   -4.2257 C.ar       1 <1>        0.000
     20 H          -2.4178    1.0676    1.8527 H.spc      1 <1>        0.000
     21 H          -1.9034   -0.6765    3.4862 H.spc      1 <1>        0.000
     22 H           0.5462   -0.3696   -0.7575 H.spc      1 <1>        0.000
     23 H          -2.1304    1.9556   -0.2082 H.spc      1 <1>        0.000
     24 H          -0.2336   -2.4254    2.8968 H.spc      1 <1>        0.000
     25 H           2.3099   -3.0413   -4.0060 H.spc      1 <1>        0.000
     26 H           2.1750   -1.3683   -0.6278 H.spc      1 <1>        0.000
     27 H           4.5392   -1.3295   -0.9098 H.spc      1 <1>        0.000
     28 H           3.7373   -1.9947   -5.6918 H.spc      1 <1>        0.000
     29 H           6.1121   -0.3220   -2.5342 H.spc      1 <1>        0.000
     30 H           5.6350   -0.5727   -4.9638 H.spc      1 <1>        0.000
@<TRIPOS>BOND
     1    2    5 1  
     2    2    4 ar 
     3    3    6 ar 
     4   17   19 ar 
     5    4    7 ar 
     6    6    7 ar 
     7    9   11 2  
     8   10   12 1  
     9   16   18 ar 
    10   12   15 2  
    11    9   10 am 
    12   13   16 ar 
    13    7    9 1  
    14   12   14 2  
    15   12   13 1  
    16   18   19 ar 
    17    8   17 ar 
    18   13    8 ar 
    19    1    3 ar 
    20    1    2 ar 
    21    1   20 1  
    22    3   21 1  
    23    4   22 1  
    24    5   23 1  
    25    6   24 1  
    26    8   25 1  
    27   10   26 1  
    28   16   27 1  
    29   17   28 1  
    30   18   29 1  
    31   19   30 1  
# Name:          frag5-677-62/138278
# Creation time: Sat Jun  5 12:51:53 2010


@<TRIPOS>MOLECULE
frag5-677-62/138278
   30    31     1     1     1
SMALL
USER_CHARGES


@<TRIPOS>ATOM
      1 C9         -1.9248   -0.0383    1.8370 C.ar       1 <1>        0.000
      2 C12        -0.9496   -0.8558    2.4269 C.ar       1 <1>        0.000
      3 C13        -1.9373    0.4230    0.5208 C.ar       1 <1>        0.000
      4 C15        -0.0139   -1.2678    1.4805 C.ar       1 <1>        0.000
      5 O1         -0.9609   -1.2208    3.6992 O.3        1 <1>        0.000
      6 C16        -0.9237    0.0511   -0.3118 C.ar       1 <1>        0.000
      7 C17         0.0847   -0.7369    0.1788 C.ar       1 <1>        0.000
      8 C26         4.6961   -1.8339   -2.0421 C.ar       1 <1>        0.000
      9 C20         1.1686   -1.0183   -0.7321 C.2        1 <1>        0.000
     10 N3          2.1617   -1.7911   -0.2384 N.am       1 <1>        0.000
     11 O4          1.1283   -0.7463   -1.9179 O.2        1 <1>        0.000
     12 S1          2.6897   -3.1914   -0.6949 S.o2       1 <1>        0.000
     13 C25         3.6193   -2.7503   -2.0431 C.ar       1 <1>        0.000
     14 O5          3.5285   -3.6023    0.4003 O.2        1 <1>        0.000
     15 O6          1.5239   -3.9321   -1.1301 O.2        1 <1>        0.000
     16 C27         3.2178   -3.0421   -3.3472 C.ar       1 <1>        0.000
     17 C28         5.5390   -1.6226   -3.1324 C.ar       1 <1>        0.000
     18 C30         3.9820   -2.8342   -4.4816 C.ar       1 <1>        0.000
     19 C31         5.1618   -2.1307   -4.3610 C.ar       1 <1>        0.000
     20 H          -2.7569    0.2674    2.4712 H.spc      1 <1>        0.000
     21 H          -2.7410    1.0677    0.1651 H.spc      1 <1>        0.000
     22 H           0.6876   -2.0519    1.7654 H.spc      1 <1>        0.000
     23 H          -1.7029   -0.8044    4.1438 H.spc      1 <1>        0.000
     24 H          -0.9155    0.3757   -1.3523 H.spc      1 <1>        0.000
     25 H           4.8781   -1.2582   -1.1346 H.spc      1 <1>        0.000
     26 H           2.6481   -1.3953    0.5661 H.spc      1 <1>        0.000
     27 H           2.2234   -3.4675   -3.4829 H.spc      1 <1>        0.000
     28 H           6.4720   -1.0706   -3.0186 H.spc      1 <1>        0.000
     29 H           3.6586   -3.2180   -5.4492 H.spc      1 <1>        0.000
     30 H           5.7962   -1.9755   -5.2337 H.spc      1 <1>        0.000
@<TRIPOS>BOND
     1    2    5 1  
     2    2    4 ar 
     3    3    6 ar 
     4   17   19 ar 
     5    4    7 ar 
     6    6    7 ar 
     7    9   11 2  
     8   10   12 1  
     9   16   18 ar 
    10   12   15 2  
    11    9   10 am 
    12   13   16 ar 
    13    7    9 1  
    14   12   14 2  
    15   12   13 1  
    16   18   19 ar 
    17    8   17 ar 
    18   13    8 ar 
    19    1    3 ar 
    20    1    2 ar 
    21    1   20 1  
    22    3   21 1  
    23    4   22 1  
    24    5   23 1  
    25    6   24 1  
    26    8   25 1  
    27   10   26 1  
    28   16   27 1  
    29   17   28 1  
    30   18   29 1  
    31   19   30 1  
# Name:          frag5-677-62/138278
# Creation time: Sat Jun  5 12:51:53 2010


@<TRIPOS>MOLECULE
frag5-677-62/138278
   30    31     1     1     1
SMALL
USER_CHARGES


@<TRIPOS>ATOM
      1 C9         -1.7010    0.4173    0.8425 C.ar       1 <1>        0.000
      2 C12        -0.3790    0.7456    1.1339 C.ar       1 <1>        0.000
      3 C13        -2.1855   -0.7832    0.2945 C.ar       1 <1>        0.000
      4 C15         0.4302   -0.3431    0.8780 C.ar       1 <1>        0.000
      5 O1          0.0329    1.8978    1.6360 O.3        1 <1>        0.000
      6 C16        -1.2967   -1.7582   -0.0278 C.ar       1 <1>        0.000
      7 C17         0.0081   -1.5658    0.3258 C.ar       1 <1>        0.000
      8 C26         4.2251   -3.0794   -2.7691 C.ar       1 <1>        0.000
      9 C20         0.9059   -2.6481    0.0458 C.2        1 <1>        0.000
     10 N3          2.2101   -2.4906    0.3908 N.am       1 <1>        0.000
     11 O4          0.5367   -3.6153   -0.6002 O.2        1 <1>        0.000
     12 S1          3.5233   -3.1370   -0.1835 S.o2       1 <1>        0.000
     13 C25         3.5533   -2.4314   -1.7488 C.ar       1 <1>        0.000
     14 O5          4.6066   -2.5762    0.6045 O.2        1 <1>        0.000
     15 O6          3.3035   -4.5522   -0.3005 O.2        1 <1>        0.000
     16 C27         2.8807   -1.2840   -2.2738 C.ar       1 <1>        0.000
     17 C28         4.3675   -2.6627   -4.0792 C.ar       1 <1>        0.000
     18 C30         3.0108   -0.7776   -3.5765 C.ar       1 <1>        0.000
     19 C31         3.7588   -1.4968   -4.4814 C.ar       1 <1>        0.000
     20 H          -2.4468    1.1803    1.0654 H.spc      1 <1>        0.000
     21 H          -3.2534   -0.9286    0.1315 H.spc      1 <1>        0.000
     22 H           1.4874   -0.2469    1.1252 H.spc      1 <1>        0.000
     23 H          -0.7146    2.4942    1.7207 H.spc      1 <1>        0.000
     24 H          -1.6133   -2.6613   -0.5496 H.spc      1 <1>        0.000
     25 H           4.6964   -4.0276   -2.5105 H.spc      1 <1>        0.000
     26 H           2.3651   -1.8372    1.1585 H.spc      1 <1>        0.000
     27 H           2.2057   -0.7545   -1.6014 H.spc      1 <1>        0.000
     28 H           4.9547   -3.2506   -4.7847 H.spc      1 <1>        0.000
     29 H           2.5329    0.1590   -3.8637 H.spc      1 <1>        0.000
     30 H           3.8676   -1.1453   -5.5074 H.spc      1 <1>        0.000
@<TRIPOS>BOND
     1    2    5 1  
     2    2    4 ar 
     3    3    6 ar 
     4   17   19 ar 
     5    4    7 ar 
     6    6    7 ar 
     7    9   11 2  
     8   10   12 1  
     9   16   18 ar 
    10   12   15 2  
    11    9   10 am 
    12   13   16 ar 
    13    7    9 1  
    14   12   14 2  
    15   12   13 1  
    16   18   19 ar 
    17    8   17 ar 
    18   13    8 ar 
    19    1    3 ar 
    20    1    2 ar 
    21    1   20 1  
    22    3   21 1  
    23    4   22 1  
    24    5   23 1  
    25    6   24 1  
    26    8   25 1  
    27   10   26 1  
    28   16   27 1  
    29   17   28 1  
    30   18   29 1  
    31   19   30 1  
# Name:          frag5-677-62/138278
# Creation time: Sat Jun  5 12:51:53 2010


@<TRIPOS>MOLECULE
frag5-677-62/138278
   30    31     1     1     1
SMALL
USER_CHARGES


@<TRIPOS>ATOM
      1 C9         -1.8533    0.5233    0.6239 C.ar       1 <1>        0.000
      2 C12        -1.0559    0.5850    1.7668 C.ar       1 <1>        0.000
      3 C13        -1.6671   -0.3079   -0.4941 C.ar       1 <1>        0.000
      4 C15        -0.0804   -0.3851    1.7355 C.ar       1 <1>        0.000
      5 O1         -1.2378    1.4245    2.7823 O.3        1 <1>        0.000
      6 C16        -0.5929   -1.1600   -0.4868 C.ar       1 <1>        0.000
      7 C17         0.1470   -1.2085    0.6644 C.ar       1 <1>        0.000
      8 C26         4.8212   -2.5104   -2.5863 C.ar       1 <1>        0.000
      9 C20         1.2847   -2.1041    0.7779 C.2        1 <1>        0.000
     10 N3          2.0679   -2.1756   -0.2943 N.am       1 <1>        0.000
     11 O4          1.4627   -2.7863    1.7682 O.2        1 <1>        0.000
     12 S1          3.0835   -3.3017   -0.6928 S.o2       1 <1>        0.000
     13 C25         3.5054   -2.7502   -2.2729 C.ar       1 <1>        0.000
     14 O5          4.1898   -3.1129    0.1960 O.2        1 <1>        0.000
     15 O6          2.3768   -4.5304   -0.8558 O.2        1 <1>        0.000
     16 C27         2.6339   -2.2657   -3.2660 C.ar       1 <1>        0.000
     17 C28         5.2875   -2.2454   -3.8558 C.ar       1 <1>        0.000
     18 C30         3.0342   -1.9043   -4.5558 C.ar       1 <1>        0.000
     19 C31         4.3843   -1.9254   -4.8437 C.ar       1 <1>        0.000
     20 H          -2.7137    1.1919    0.5947 H.spc      1 <1>        0.000
     21 H          -2.3544   -0.2762   -1.3395 H.spc      1 <1>        0.000
     22 H           0.5498   -0.5058    2.6166 H.spc      1 <1>        0.000
     23 H          -1.9722    2.0102    2.5842 H.spc      1 <1>        0.000
     24 H          -0.3403   -1.7689   -1.3548 H.spc      1 <1>        0.000
     25 H           5.5475   -2.5312   -1.7738 H.spc      1 <1>        0.000
     26 H           1.9987   -1.3929   -0.9447 H.spc      1 <1>        0.000
     27 H           1.5784   -2.1657   -3.0132 H.spc      1 <1>        0.000
     28 H           6.3546   -2.2886   -4.0740 H.spc      1 <1>        0.000
     29 H           2.3031   -1.6149   -5.3107 H.spc      1 <1>        0.000
     30 H           4.7334   -1.6896   -5.8490 H.spc      1 <1>        0.000
@<TRIPOS>BOND
     1    2    5 1  
     2    2    4 ar 
     3    3    6 ar 
     4   17   19 ar 
     5    4    7 ar 
     6    6    7 ar 
     7    9   11 2  
     8   10   12 1  
     9   16   18 ar 
    10   12   15 2  
    11    9   10 am 
    12   13   16 ar 
    13    7    9 1  
    14   12   14 2  
    15   12   13 1  
    16   18   19 ar 
    17    8   17 ar 
    18   13    8 ar 
    19    1    3 ar 
    20    1    2 ar 
    21    1   20 1  
    22    3   21 1  
    23    4   22 1  
    24    5   23 1  
    25    6   24 1  
    26    8   25 1  
    27   10   26 1  
    28   16   27 1  
    29   17   28 1  
    30   18   29 1  
    31   19   30 1  
# Name:          frag5-677-62/138278
# Creation time: Sat Jun  5 12:51:53 2010


@<TRIPOS>MOLECULE
frag5-677-62/138278
   30    31     1     1     1
SMALL
USER_CHARGES


@<TRIPOS>ATOM
      1 C9         -1.7253   -0.0075    2.1506 C.ar       1 <1>        0.000
      2 C12        -2.0184   -0.6919    0.9675 C.ar       1 <1>        0.000
      3 C13        -0.4568    0.2031    2.7010 C.ar       1 <1>        0.000
      4 C15        -0.8461   -1.0779    0.3206 C.ar       1 <1>        0.000
      5 O1         -3.2442   -0.8867    0.5038 O.3        1 <1>        0.000
      6 C16         0.6294   -0.3030    2.0541 C.ar       1 <1>        0.000
      7 C17         0.4474   -0.9071    0.8435 C.ar       1 <1>        0.000
      8 C26         4.6293   -2.4678   -1.7277 C.ar       1 <1>        0.000
      9 C20         1.6435   -1.3328    0.1571 C.2        1 <1>        0.000
     10 N3          1.4919   -1.8154   -1.0942 N.am       1 <1>        0.000
     11 O4          2.7261   -1.4037    0.7235 O.2        1 <1>        0.000
     12 S1          1.9738   -3.1895   -1.6935 S.o2       1 <1>        0.000
     13 C25         3.4244   -2.6679   -2.4137 C.ar       1 <1>        0.000
     14 O5          2.2425   -4.0479   -0.5631 O.2        1 <1>        0.000
     15 O6          1.0197   -3.5210   -2.7182 O.2        1 <1>        0.000
     16 C27         3.4863   -2.1017   -3.6975 C.ar       1 <1>        0.000
     17 C28         5.8500   -2.2320   -2.3467 C.ar       1 <1>        0.000
     18 C30         4.6627   -1.8013   -4.3723 C.ar       1 <1>        0.000
     19 C31         5.8552   -1.8888   -3.6838 C.ar       1 <1>        0.000
     20 H          -2.5717    0.4041    2.7004 H.spc      1 <1>        0.000
     21 H          -0.3399    0.7615    3.6298 H.spc      1 <1>        0.000
     22 H          -0.9387   -1.5451   -0.6598 H.spc      1 <1>        0.000
     23 H          -3.8815   -0.5334    1.1288 H.spc      1 <1>        0.000
     24 H           1.6238   -0.2273    2.4939 H.spc      1 <1>        0.000
     25 H           4.6074   -2.4992   -0.6384 H.spc      1 <1>        0.000
     26 H           0.9955   -1.2043   -1.7427 H.spc      1 <1>        0.000
     27 H           2.5443   -1.8824   -4.2001 H.spc      1 <1>        0.000
     28 H           6.7829   -2.3160   -1.7893 H.spc      1 <1>        0.000
     29 H           4.6442   -1.5036   -5.4207 H.spc      1 <1>        0.000
     30 H           6.7975   -1.6878   -4.1935 H.spc      1 <1>        0.000
@<TRIPOS>BOND
     1    2    5 1  
     2    2    4 ar 
     3    3    6 ar 
     4   17   19 ar 
     5    4    7 ar 
     6    6    7 ar 
     7    9   11 2  
     8   10   12 1  
     9   16   18 ar 
    10   12   15 2  
    11    9   10 am 
    12   13   16 ar 
    13    7    9 1  
    14   12   14 2  
    15   12   13 1  
    16   18   19 ar 
    17    8   17 ar 
    18   13    8 ar 
    19    1    3 ar 
    20    1    2 ar 
    21    1   20 1  
    22    3   21 1  
    23    4   22 1  
    24    5   23 1  
    25    6   24 1  
    26    8   25 1  
    27   10   26 1  
    28   16   27 1  
    29   17   28 1  
    30   18   29 1  
    31   19   30 1  
# Name:          frag5-677-62/138278
# Creation time: Sat Jun  5 12:51:53 2010


@<TRIPOS>MOLECULE
frag5-677-62/138278
   30    31     1     1     1
SMALL
USER_CHARGES


@<TRIPOS>ATOM
      1 C9         -1.4430   -0.5906    2.3938 C.ar       1 <1>        0.000
      2 C12        -0.8750    0.4934    1.7150 C.ar       1 <1>        0.000
      3 C13        -1.3368   -1.9362    2.0319 C.ar       1 <1>        0.000
      4 C15        -0.0784    0.0619    0.6542 C.ar       1 <1>        0.000
      5 O1         -1.0174    1.7545    2.0866 O.3        1 <1>        0.000
      6 C16        -0.6049   -2.2593    0.9088 C.ar       1 <1>        0.000
      7 C17        -0.0391   -1.2395    0.1499 C.ar       1 <1>        0.000
      8 C26         3.7675   -3.2285   -3.2825 C.ar       1 <1>        0.000
      9 C20         0.5977   -1.4839   -1.1487 C.2        1 <1>        0.000
     10 N3          1.1347   -2.7149   -1.3599 N.am       1 <1>        0.000
     11 O4          0.8165   -0.6035   -1.9578 O.2        1 <1>        0.000
     12 S1          2.4922   -3.3181   -0.8386 S.o2       1 <1>        0.000
     13 C25         3.5808   -2.6868   -1.9902 C.ar       1 <1>        0.000
     14 O5          2.7079   -2.6892    0.4441 O.2        1 <1>        0.000
     15 O6          2.3741   -4.7405   -1.0480 O.2        1 <1>        0.000
     16 C27         4.2435   -1.4561   -1.8638 C.ar       1 <1>        0.000
     17 C28         4.7327   -2.8060   -4.1939 C.ar       1 <1>        0.000
     18 C30         5.2574   -1.0104   -2.7037 C.ar       1 <1>        0.000
     19 C31         5.4811   -1.6870   -3.8864 C.ar       1 <1>        0.000
     20 H          -2.0226   -0.3641    3.2887 H.spc      1 <1>        0.000
     21 H          -1.8214   -2.7126    2.6239 H.spc      1 <1>        0.000
     22 H           0.5665    0.8017    0.1799 H.spc      1 <1>        0.000
     23 H          -1.6135    1.8002    2.8377 H.spc      1 <1>        0.000
     24 H          -0.4711   -3.3015    0.6189 H.spc      1 <1>        0.000
     25 H           3.1058   -4.0385   -3.5892 H.spc      1 <1>        0.000
     26 H           0.5760   -3.3394   -1.9415 H.spc      1 <1>        0.000
     27 H           3.9407   -0.8014   -1.0466 H.spc      1 <1>        0.000
     28 H           4.8933   -3.3457   -5.1272 H.spc      1 <1>        0.000
     29 H           5.8631   -0.1451   -2.4344 H.spc      1 <1>        0.000
     30 H           6.2484   -1.3378   -4.5773 H.spc      1 <1>        0.000
@<TRIPOS>BOND
     1    2    5 1  
     2    2    4 ar 
     3    3    6 ar 
     4   17   19 ar 
     5    4    7 ar 
     6    6    7 ar 
     7    9   11 2  
     8   10   12 1  
     9   16   18 ar 
    10   12   15 2  
    11    9   10 am 
    12   13   16 ar 
    13    7    9 1  
    14   12   14 2  
    15   12   13 1  
    16   18   19 ar 
    17    8   17 ar 
    18   13    8 ar 
    19    1    3 ar 
    20    1    2 ar 
    21    1   20 1  
    22    3   21 1  
    23    4   22 1  
    24    5   23 1  
    25    6   24 1  
    26    8   25 1  
    27   10   26 1  
    28   16   27 1  
    29   17   28 1  
    30   18   29 1  
    31   19   30 1  
# Name:          frag5-677-62/138278
# Creation time: Sat Jun  5 12:51:53 2010


@<TRIPOS>MOLECULE
frag5-677-62/138278
   30    31     1     1     1
SMALL
USER_CHARGES


@<TRIPOS>ATOM
      1 C9         -0.8948    0.2053    2.1028 C.ar       1 <1>        0.000
      2 C12        -0.9162    0.4781    0.7330 C.ar       1 <1>        0.000
      3 C13        -0.4503   -0.9719    2.7111 C.ar       1 <1>        0.000
      4 C15        -0.3303   -0.5814    0.0158 C.ar       1 <1>        0.000
      5 O1         -1.3608    1.6134    0.2068 O.3        1 <1>        0.000
      6 C16         0.0137   -1.9969    1.9026 C.ar       1 <1>        0.000
      7 C17        -0.0361   -1.8749    0.5184 C.ar       1 <1>        0.000
      8 C26         4.8978   -2.2192   -2.2377 C.ar       1 <1>        0.000
      9 C20         0.2984   -3.0131   -0.3873 C.2        1 <1>        0.000
     10 N3          1.5747   -3.1642   -0.8415 N.am       1 <1>        0.000
     11 O4         -0.5365   -3.8233   -0.7318 O.2        1 <1>        0.000
     12 S1          2.9620   -2.4812   -0.4756 S.o2       1 <1>        0.000
     13 C25         3.5432   -2.1813   -2.0277 C.ar       1 <1>        0.000
     14 O5          2.6999   -1.2165    0.1536 O.2        1 <1>        0.000
     15 O6          3.7428   -3.5181    0.1713 O.2        1 <1>        0.000
     16 C27         2.8232   -2.0273   -3.2512 C.ar       1 <1>        0.000
     17 C28         5.5474   -1.9561   -3.4239 C.ar       1 <1>        0.000
     18 C30         3.4172   -1.7137   -4.4807 C.ar       1 <1>        0.000
     19 C31         4.7957   -1.6985   -4.5471 C.ar       1 <1>        0.000
     20 H          -1.2619    0.9900    2.7643 H.spc      1 <1>        0.000
     21 H          -0.4682   -1.0810    3.7955 H.spc      1 <1>        0.000
     22 H          -0.0781   -0.3896   -1.0271 H.spc      1 <1>        0.000
     23 H          -1.7143    2.1710    0.9037 H.spc      1 <1>        0.000
     24 H           0.4194   -2.9026    2.3534 H.spc      1 <1>        0.000
     25 H           5.5211   -2.4831   -1.3833 H.spc      1 <1>        0.000
     26 H           1.6571   -3.8681   -1.5751 H.spc      1 <1>        0.000
     27 H           1.7419   -2.1624   -3.2270 H.spc      1 <1>        0.000
     28 H           6.6363   -1.9521   -3.4716 H.spc      1 <1>        0.000
     29 H           2.8097   -1.4888   -5.3573 H.spc      1 <1>        0.000
     30 H           5.2910   -1.4815   -5.4935 H.spc      1 <1>        0.000
@<TRIPOS>BOND
     1    2    5 1  
     2    2    4 ar 
     3    3    6 ar 
     4   17   19 ar 
     5    4    7 ar 
     6    6    7 ar 
     7    9   11 2  
     8   10   12 1  
     9   16   18 ar 
    10   12   15 2  
    11    9   10 am 
    12   13   16 ar 
    13    7    9 1  
    14   12   14 2  
    15   12   13 1  
    16   18   19 ar 
    17    8   17 ar 
    18   13    8 ar 
    19    1    3 ar 
    20    1    2 ar 
    21    1   20 1  
    22    3   21 1  
    23    4   22 1  
    24    5   23 1  
    25    6   24 1  
    26    8   25 1  
    27   10   26 1  
    28   16   27 1  
    29   17   28 1  
    30   18   29 1  
    31   19   30 1  
# Name:          frag5-677-62/138278
# Creation time: Sat Jun  5 12:51:53 2010


@<TRIPOS>MOLECULE
frag5-677-62/138278
   30    31     1     1     1
SMALL
USER_CHARGES


@<TRIPOS>ATOM
      1 C9         -0.2177    0.9420    1.6414 C.ar       1 <1>        0.000
      2 C12        -0.7930    0.7023    0.3859 C.ar       1 <1>        0.000
      3 C13         0.6396    0.0906    2.3442 C.ar       1 <1>        0.000
      4 C15        -0.3112   -0.4777   -0.1574 C.ar       1 <1>        0.000
      5 O1         -1.6305    1.5251   -0.2239 O.3        1 <1>        0.000
      6 C16         0.9889   -1.0972    1.7660 C.ar       1 <1>        0.000
      7 C17         0.3983   -1.4311    0.5712 C.ar       1 <1>        0.000
      8 C26         2.9482   -2.7721   -3.2416 C.ar       1 <1>        0.000
      9 C20         0.6510   -2.7168   -0.0407 C.2        1 <1>        0.000
     10 N3          1.8882   -3.2551    0.1626 N.am       1 <1>        0.000
     11 O4         -0.1271   -3.2177   -0.8048 O.2        1 <1>        0.000
     12 S1          2.8536   -3.9965   -0.8218 S.o2       1 <1>        0.000
     13 C25         3.2695   -2.7145   -1.8890 C.ar       1 <1>        0.000
     14 O5          3.9937   -4.3305   -0.0112 O.2        1 <1>        0.000
     15 O6          2.0566   -4.9633   -1.5314 O.2        1 <1>        0.000
     16 C27         3.7467   -1.4227   -1.5465 C.ar       1 <1>        0.000
     17 C28         3.3139   -1.8511   -4.2090 C.ar       1 <1>        0.000
     18 C30         4.1822   -0.4643   -2.4709 C.ar       1 <1>        0.000
     19 C31         3.9405   -0.6903   -3.8121 C.ar       1 <1>        0.000
     20 H          -0.4643    1.8903    2.1190 H.spc      1 <1>        0.000
     21 H           1.0196    0.3669    3.3277 H.spc      1 <1>        0.000
     22 H          -0.4974   -0.6714   -1.2138 H.spc      1 <1>        0.000
     23 H          -1.8186    2.2715    0.3498 H.spc      1 <1>        0.000
     24 H           1.7141   -1.7598    2.2383 H.spc      1 <1>        0.000
     25 H           2.3520   -3.6230   -3.5711 H.spc      1 <1>        0.000
     26 H           2.2430   -3.1584    1.1140 H.spc      1 <1>        0.000
     27 H           3.7765   -1.1574   -0.4897 H.spc      1 <1>        0.000
     28 H           3.1101   -2.0408   -5.2628 H.spc      1 <1>        0.000
     29 H           4.6986    0.4368   -2.1402 H.spc      1 <1>        0.000
     30 H           4.2447    0.0478   -4.5542 H.spc      1 <1>        0.000
@<TRIPOS>BOND
     1    2    5 1  
     2    2    4 ar 
     3    3    6 ar 
     4   17   19 ar 
     5    4    7 ar 
     6    6    7 ar 
     7    9   11 2  
     8   10   12 1  
     9   16   18 ar 
    10   12   15 2  
    11    9   10 am 
    12   13   16 ar 
    13    7    9 1  
    14   12   14 2  
    15   12   13 1  
    16   18   19 ar 
    17    8   17 ar 
    18   13    8 ar 
    19    1    3 ar 
    20    1    2 ar 
    21    1   20 1  
    22    3   21 1  
    23    4   22 1  
    24    5   23 1  
    25    6   24 1  
    26    8   25 1  
    27   10   26 1  
    28   16   27 1  
    29   17   28 1  
    30   18   29 1  
    31   19   30 1  
# Name:          frag5-677-62/138278
# Creation time: Sat Jun  5 12:51:53 2010


@<TRIPOS>MOLECULE
frag5-677-62/138278
   30    31     1     1     1
SMALL
USER_CHARGES


@<TRIPOS>ATOM
      1 C9         -1.9080    0.2713    0.4872 C.ar       1 <1>        0.000
      2 C12        -0.8118    0.7415    1.2051 C.ar       1 <1>        0.000
      3 C13        -1.9986   -0.9510   -0.1967 C.ar       1 <1>        0.000
      4 C15         0.1830   -0.2203    1.2886 C.ar       1 <1>        0.000
      5 O1         -0.7461    1.9494    1.7708 O.3        1 <1>        0.000
      6 C16        -0.9215   -1.7944   -0.1614 C.ar       1 <1>        0.000
      7 C17         0.1035   -1.4494    0.6602 C.ar       1 <1>        0.000
      8 C26         3.4763   -1.2086   -2.3498 C.ar       1 <1>        0.000
      9 C20         1.2185   -2.3772    0.7922 C.2        1 <1>        0.000
     10 N3          1.7574   -2.8171   -0.3478 N.am       1 <1>        0.000
     11 O4          1.6762   -2.6209    1.8911 O.2        1 <1>        0.000
     12 S1          3.2228   -3.3577   -0.5763 S.o2       1 <1>        0.000
     13 C25         3.5557   -2.5852   -2.0892 C.ar       1 <1>        0.000
     14 O5          4.0675   -2.7532    0.4026 O.2        1 <1>        0.000
     15 O6          3.0830   -4.7630   -0.7862 O.2        1 <1>        0.000
     16 C27         3.6586   -3.3196   -3.2496 C.ar       1 <1>        0.000
     17 C28         3.9144   -0.6219   -3.5436 C.ar       1 <1>        0.000
     18 C30         4.0588   -2.8133   -4.4750 C.ar       1 <1>        0.000
     19 C31         4.2017   -1.4501   -4.6112 C.ar       1 <1>        0.000
     20 H          -2.7848    0.9179    0.4527 H.spc      1 <1>        0.000
     21 H          -2.9031   -1.2214   -0.7416 H.spc      1 <1>        0.000
     22 H           1.0717    0.0034    1.8787 H.spc      1 <1>        0.000
     23 H          -1.5498    2.4370    1.5758 H.spc      1 <1>        0.000
     24 H          -0.8877   -2.7014   -0.7649 H.spc      1 <1>        0.000
     25 H           3.0511   -0.5617   -1.5824 H.spc      1 <1>        0.000
     26 H           1.1506   -2.8020   -1.1675 H.spc      1 <1>        0.000
     27 H           3.4061   -4.3788   -3.1999 H.spc      1 <1>        0.000
     28 H           4.0257    0.4591   -3.6281 H.spc      1 <1>        0.000
     29 H           4.2566   -3.4799   -5.3144 H.spc      1 <1>        0.000
     30 H           4.5399   -1.0268   -5.5570 H.spc      1 <1>        0.000
@<TRIPOS>BOND
     1    2    5 1  
     2    2    4 ar 
     3    3    6 ar 
     4   17   19 ar 
     5    4    7 ar 
     6    6    7 ar 
     7    9   11 2  
     8   10   12 1  
     9   16   18 ar 
    10   12   15 2  
    11    9   10 am 
    12   13   16 ar 
    13    7    9 1  
    14   12   14 2  
    15   12   13 1  
    16   18   19 ar 
    17    8   17 ar 
    18   13    8 ar 
    19    1    3 ar 
    20    1    2 ar 
    21    1   20 1  
    22    3   21 1  
    23    4   22 1  
    24    5   23 1  
    25    6   24 1  
    26    8   25 1  
    27   10   26 1  
    28   16   27 1  
    29   17   28 1  
    30   18   29 1  
    31   19   30 1  
# Name:          frag5-677-62/138278
# Creation time: Sat Jun  5 12:51:53 2010


@<TRIPOS>MOLECULE
frag5-677-62/138278
   30    31     1     1     1
SMALL
USER_CHARGES


@<TRIPOS>ATOM
      1 C9         -1.5380    0.2963    0.2236 C.ar       1 <1>        0.000
      2 C12        -0.3311    0.8841    0.6264 C.ar       1 <1>        0.000
      3 C13        -1.7549   -1.0475   -0.0814 C.ar       1 <1>        0.000
      4 C15         0.6526   -0.0791    0.7917 C.ar       1 <1>        0.000
      5 O1         -0.1609    2.1723    0.8719 O.3        1 <1>        0.000
      6 C16        -0.6963   -1.9089    0.0085 C.ar       1 <1>        0.000
      7 C17         0.4806   -1.4435    0.5576 C.ar       1 <1>        0.000
      8 C26         4.2688   -2.0097   -1.9403 C.ar       1 <1>        0.000
      9 C20         1.5945   -2.3282    0.7961 C.2        1 <1>        0.000
     10 N3          1.6572   -3.4521    0.0170 N.am       1 <1>        0.000
     11 O4          2.5062   -2.0100    1.5170 O.2        1 <1>        0.000
     12 S1          2.8835   -4.0311   -0.7839 S.o2       1 <1>        0.000
     13 C25         3.1049   -2.7620   -1.9167 C.ar       1 <1>        0.000
     14 O5          3.9595   -4.0925    0.1586 O.2        1 <1>        0.000
     15 O6          2.3838   -5.1838   -1.5014 O.2        1 <1>        0.000
     16 C27         2.1195   -2.1631   -2.7511 C.ar       1 <1>        0.000
     17 C28         4.6233   -1.1026   -2.9284 C.ar       1 <1>        0.000
     18 C30         2.3789   -1.1939   -3.7325 C.ar       1 <1>        0.000
     19 C31         3.6593   -0.6857   -3.8219 C.ar       1 <1>        0.000
     20 H          -2.3987    0.9598    0.1397 H.spc      1 <1>        0.000
     21 H          -2.7408   -1.4013   -0.3830 H.spc      1 <1>        0.000
     22 H           1.6336    0.2548    1.1298 H.spc      1 <1>        0.000
     23 H          -0.9767    2.6429    0.6859 H.spc      1 <1>        0.000
     24 H          -0.7804   -2.9367   -0.3446 H.spc      1 <1>        0.000
     25 H           4.9649   -2.1420   -1.1120 H.spc      1 <1>        0.000
     26 H           0.7919   -3.9874   -0.0545 H.spc      1 <1>        0.000
     27 H           1.0855   -2.4811   -2.6179 H.spc      1 <1>        0.000
     28 H           5.6441   -0.7267   -2.9971 H.spc      1 <1>        0.000
     29 H           1.5919   -0.8522   -4.4048 H.spc      1 <1>        0.000
     30 H           3.9071    0.0416   -4.5950 H.spc      1 <1>        0.000
@<TRIPOS>BOND
     1    2    5 1  
     2    2    4 ar 
     3    3    6 ar 
     4   17   19 ar 
     5    4    7 ar 
     6    6    7 ar 
     7    9   11 2  
     8   10   12 1  
     9   16   18 ar 
    10   12   15 2  
    11    9   10 am 
    12   13   16 ar 
    13    7    9 1  
    14   12   14 2  
    15   12   13 1  
    16   18   19 ar 
    17    8   17 ar 
    18   13    8 ar 
    19    1    3 ar 
    20    1    2 ar 
    21    1   20 1  
    22    3   21 1  
    23    4   22 1  
    24    5   23 1  
    25    6   24 1  
    26    8   25 1  
    27   10   26 1  
    28   16   27 1  
    29   17   28 1  
    30   18   29 1  
    31   19   30 1  
# Name:          frag5-677-62/138278
# Creation time: Sat Jun  5 12:51:53 2010


@<TRIPOS>MOLECULE
frag5-677-62/138278
   30    31     1     1     1
SMALL
USER_CHARGES


@<TRIPOS>ATOM
      1 C9         -1.4590   -0.2120    2.3332 C.ar       1 <1>        0.000
      2 C12        -1.6383    0.2266    1.0164 C.ar       1 <1>        0.000
      3 C13        -0.4590   -1.0695    2.8088 C.ar       1 <1>        0.000
      4 C15        -0.5882   -0.1992    0.2198 C.ar       1 <1>        0.000
      5 O1         -2.6438    0.9764    0.6003 O.3        1 <1>        0.000
      6 C16         0.4658   -1.5408    1.9274 C.ar       1 <1>        0.000
      7 C17         0.4552   -1.0123    0.6628 C.ar       1 <1>        0.000
      8 C26         4.4209   -2.0945   -1.4752 C.ar       1 <1>        0.000
      9 C20         1.4502   -1.4024   -0.2768 C.2        1 <1>        0.000
     10 N3          1.7247   -2.7423   -0.3173 N.am       1 <1>        0.000
     11 O4          1.9069   -0.6091   -1.0683 O.2        1 <1>        0.000
     12 S1          2.0889   -3.6644   -1.5293 S.o2       1 <1>        0.000
     13 C25         3.4256   -2.8342   -2.1750 C.ar       1 <1>        0.000
     14 O5          2.5117   -4.9162   -0.9424 O.2        1 <1>        0.000
     15 O6          0.9649   -3.5643   -2.4316 O.2        1 <1>        0.000
     16 C27         3.4925   -2.5644   -3.5334 C.ar       1 <1>        0.000
     17 C28         5.5339   -1.4966   -2.0694 C.ar       1 <1>        0.000
     18 C30         4.5512   -1.9711   -4.1919 C.ar       1 <1>        0.000
     19 C31         5.5872   -1.4505   -3.4473 C.ar       1 <1>        0.000
     20 H          -2.1756    0.1535    3.0687 H.spc      1 <1>        0.000
     21 H          -0.4218   -1.3532    3.8606 H.spc      1 <1>        0.000
     22 H          -0.5763    0.1222   -0.8217 H.spc      1 <1>        0.000
     23 H          -3.2439    1.1396    1.3317 H.spc      1 <1>        0.000
     24 H           1.1852   -2.3072    2.2158 H.spc      1 <1>        0.000
     25 H           4.3054   -1.9872   -0.3967 H.spc      1 <1>        0.000
     26 H           1.6859   -3.2156    0.5854 H.spc      1 <1>        0.000
     27 H           2.6299   -2.8467   -4.1370 H.spc      1 <1>        0.000
     28 H           6.3371   -1.0785   -1.4626 H.spc      1 <1>        0.000
     29 H           4.5672   -1.9156   -5.2804 H.spc      1 <1>        0.000
     30 H           6.4471   -1.0032   -3.9459 H.spc      1 <1>        0.000
@<TRIPOS>BOND
     1    2    5 1  
     2    2    4 ar 
     3    3    6 ar 
     4   17   19 ar 
     5    4    7 ar 
     6    6    7 ar 
     7    9   11 2  
     8   10   12 1  
     9   16   18 ar 
    10   12   15 2  
    11    9   10 am 
    12   13   16 ar 
    13    7    9 1  
    14   12   14 2  
    15   12   13 1  
    16   18   19 ar 
    17    8   17 ar 
    18   13    8 ar 
    19    1    3 ar 
    20    1    2 ar 
    21    1   20 1  
    22    3   21 1  
    23    4   22 1  
    24    5   23 1  
    25    6   24 1  
    26    8   25 1  
    27   10   26 1  
    28   16   27 1  
    29   17   28 1  
    30   18   29 1  
    31   19   30 1  
# Name:          frag5-677-62/138278
# Creation time: Sat Jun  5 12:51:53 2010


@<TRIPOS>MOLECULE
frag5-677-62/138278
   30    31     1     1     1
SMALL
USER_CHARGES


@<TRIPOS>ATOM
      1 C9         -0.4996    0.6916   -0.2457 C.ar       1 <1>        0.000
      2 C12        -1.0546   -0.5784   -0.3847 C.ar       1 <1>        0.000
      3 C13         0.7691    0.9964    0.2597 C.ar       1 <1>        0.000
      4 C15        -0.1471   -1.5456    0.0947 C.ar       1 <1>        0.000
      5 O1         -2.2407   -0.8065   -0.9358 O.3        1 <1>        0.000
      6 C16         1.5722   -0.0303    0.7225 C.ar       1 <1>        0.000
      7 C17         1.0774   -1.3251    0.7855 C.ar       1 <1>        0.000
      8 C26         4.1100   -2.1873   -2.0118 C.ar       1 <1>        0.000
      9 C20         1.9537   -2.3931    1.3451 C.2        1 <1>        0.000
     10 N3          2.4095   -3.4303    0.5566 N.am       1 <1>        0.000
     11 O4          2.3105   -2.3054    2.5186 O.2        1 <1>        0.000
     12 S1          2.2729   -3.9745   -0.9493 S.o2       1 <1>        0.000
     13 C25         2.7898   -2.5974   -1.8304 C.ar       1 <1>        0.000
     14 O5          3.2276   -5.0446   -1.1319 O.2        1 <1>        0.000
     15 O6          0.8661   -4.1882   -1.1921 O.2        1 <1>        0.000
     16 C27         1.9554   -1.5562   -2.2625 C.ar       1 <1>        0.000
     17 C28         4.5271   -1.1790   -2.8880 C.ar       1 <1>        0.000
     18 C30         2.2948   -0.4090   -2.9722 C.ar       1 <1>        0.000
     19 C31         3.5972   -0.2782   -3.3673 C.ar       1 <1>        0.000
     20 H          -1.1158    1.5330   -0.5626 H.spc      1 <1>        0.000
     21 H           1.1195    2.0281    0.2883 H.spc      1 <1>        0.000
     22 H          -0.4157   -2.5865   -0.0854 H.spc      1 <1>        0.000
     23 H          -2.6488    0.0298   -1.1717 H.spc      1 <1>        0.000
     24 H           2.5946    0.1779    1.0380 H.spc      1 <1>        0.000
     25 H           4.8776   -2.6918   -1.4250 H.spc      1 <1>        0.000
     26 H           3.0230   -4.0402    1.0971 H.spc      1 <1>        0.000
     27 H           0.9005   -1.6597   -2.0084 H.spc      1 <1>        0.000
     28 H           5.5724   -1.1058   -3.1881 H.spc      1 <1>        0.000
     29 H           1.5525    0.3548   -3.2040 H.spc      1 <1>        0.000
     30 H           3.8950    0.5206   -4.0465 H.spc      1 <1>        0.000
@<TRIPOS>BOND
     1    2    5 1  
     2    2    4 ar 
     3    3    6 ar 
     4   17   19 ar 
     5    4    7 ar 
     6    6    7 ar 
     7    9   11 2  
     8   10   12 1  
     9   16   18 ar 
    10   12   15 2  
    11    9   10 am 
    12   13   16 ar 
    13    7    9 1  
    14   12   14 2  
    15   12   13 1  
    16   18   19 ar 
    17    8   17 ar 
    18   13    8 ar 
    19    1    3 ar 
    20    1    2 ar 
    21    1   20 1  
    22    3   21 1  
    23    4   22 1  
    24    5   23 1  
    25    6   24 1  
    26    8   25 1  
    27   10   26 1  
    28   16   27 1  
    29   17   28 1  
    30   18   29 1  
    31   19   30 1  
# Name:          frag5-677-62/138278
# Creation time: Sat Jun  5 12:51:53 2010


@<TRIPOS>MOLECULE
frag5-677-62/138278
   30    31     1     1     1
SMALL
USER_CHARGES


@<TRIPOS>ATOM
      1 C9         -2.2858   -1.0400    1.4030 C.ar       1 <1>        0.000
      2 C12        -1.5285   -0.1092    2.0947 C.ar       1 <1>        0.000
      3 C13        -1.8328   -1.9081    0.4166 C.ar       1 <1>        0.000
      4 C15        -0.1859   -0.2254    1.7596 C.ar       1 <1>        0.000
      5 O1         -1.9894    0.7405    3.0097 O.3        1 <1>        0.000
      6 C16        -0.4882   -1.8955    0.1260 C.ar       1 <1>        0.000
      7 C17         0.3747   -0.9819    0.7312 C.ar       1 <1>        0.000
      8 C26         3.4041   -2.2843   -3.7845 C.ar       1 <1>        0.000
      9 C20         1.8493   -0.8323    0.5556 C.2        1 <1>        0.000
     10 N3          2.4776   -1.6943   -0.2610 N.am       1 <1>        0.000
     11 O4          2.5147    0.0224    1.1326 O.2        1 <1>        0.000
     12 S1          2.1090   -2.6865   -1.4773 S.o2       1 <1>        0.000
     13 C25         3.4985   -2.6643   -2.4605 C.ar       1 <1>        0.000
     14 O5          1.9250   -3.9954   -0.9352 O.2        1 <1>        0.000
     15 O6          1.0983   -2.0027   -2.2455 O.2        1 <1>        0.000
     16 C27         4.8201   -2.7629   -2.0498 C.ar       1 <1>        0.000
     17 C28         4.4316   -2.3291   -4.7122 C.ar       1 <1>        0.000
     18 C30         5.9069   -2.8625   -2.9253 C.ar       1 <1>        0.000
     19 C31         5.6924   -2.6295   -4.2669 C.ar       1 <1>        0.000
     20 H          -3.3440   -1.0975    1.6580 H.spc      1 <1>        0.000
     21 H          -2.5178   -2.5745   -0.1075 H.spc      1 <1>        0.000
     22 H           0.5130    0.3425    2.3737 H.spc      1 <1>        0.000
     23 H          -2.9428    0.6503    3.0771 H.spc      1 <1>        0.000
     24 H          -0.0895   -2.6132   -0.5909 H.spc      1 <1>        0.000
     25 H           2.4374   -1.9173   -4.1295 H.spc      1 <1>        0.000
     26 H           3.4751   -1.7320   -0.0512 H.spc      1 <1>        0.000
     27 H           5.0243   -2.7628   -0.9791 H.spc      1 <1>        0.000
     28 H           4.2427   -2.1309   -5.7672 H.spc      1 <1>        0.000
     29 H           6.8997   -3.1183   -2.5553 H.spc      1 <1>        0.000
     30 H           6.5226   -2.6840   -4.9711 H.spc      1 <1>        0.000
@<TRIPOS>BOND
     1    2    5 1  
     2    2    4 ar 
     3    3    6 ar 
     4   17   19 ar 
     5    4    7 ar 
     6    6    7 ar 
     7    9   11 2  
     8   10   12 1  
     9   16   18 ar 
    10   12   15 2  
    11    9   10 am 
    12   13   16 ar 
    13    7    9 1  
    14   12   14 2  
    15   12   13 1  
    16   18   19 ar 
    17    8   17 ar 
    18   13    8 ar 
    19    1    3 ar 
    20    1    2 ar 
    21    1   20 1  
    22    3   21 1  
    23    4   22 1  
    24    5   23 1  
    25    6   24 1  
    26    8   25 1  
    27   10   26 1  
    28   16   27 1  
    29   17   28 1  
    30   18   29 1  
    31   19   30 1  
# Name:          frag5-677-62/138278
# Creation time: Sat Jun  5 12:51:53 2010


@<TRIPOS>MOLECULE
frag5-677-62/138278
   30    31     1     1     1
SMALL
USER_CHARGES


@<TRIPOS>ATOM
      1 C9         -1.2708   -0.8120    2.6265 C.ar       1 <1>        0.000
      2 C12        -1.0377    0.3657    1.9088 C.ar       1 <1>        0.000
      3 C13        -0.9081   -2.1061    2.2435 C.ar       1 <1>        0.000
      4 C15        -0.2771    0.1054    0.7787 C.ar       1 <1>        0.000
      5 O1         -1.4120    1.5766    2.2854 O.3        1 <1>        0.000
      6 C16        -0.2490   -2.2682    1.0429 C.ar       1 <1>        0.000
      7 C17         0.0114   -1.1476    0.2484 C.ar       1 <1>        0.000
      8 C26         3.3212   -1.8643   -3.3558 C.ar       1 <1>        0.000
      9 C20         0.5733   -1.1918   -1.1131 C.2        1 <1>        0.000
     10 N3          1.0647   -2.3875   -1.5251 N.am       1 <1>        0.000
     11 O4          0.7534   -0.2088   -1.8128 O.2        1 <1>        0.000
     12 S1          2.3318   -3.1906   -1.0358 S.o2       1 <1>        0.000
     13 C25         3.4839   -2.6549   -2.1740 C.ar       1 <1>        0.000
     14 O5          2.6925   -2.6787    0.2710 O.2        1 <1>        0.000
     15 O6          2.0549   -4.5832   -1.2779 O.2        1 <1>        0.000
     16 C27         4.8090   -2.9970   -1.9952 C.ar       1 <1>        0.000
     17 C28         4.3552   -1.4784   -4.2230 C.ar       1 <1>        0.000
     18 C30         5.8621   -2.7022   -2.8368 C.ar       1 <1>        0.000
     19 C31         5.6327   -1.9173   -3.9447 C.ar       1 <1>        0.000
     20 H          -1.7875   -0.7101    3.5808 H.spc      1 <1>        0.000
     21 H          -1.1396   -2.9632    2.8758 H.spc      1 <1>        0.000
     22 H           0.1351    0.9676    0.2545 H.spc      1 <1>        0.000
     23 H          -1.9284    1.5142    3.0923 H.spc      1 <1>        0.000
     24 H           0.0656   -3.2596    0.7168 H.spc      1 <1>        0.000
     25 H           2.3119   -1.5349   -3.6026 H.spc      1 <1>        0.000
     26 H           0.5309   -2.8383   -2.2682 H.spc      1 <1>        0.000
     27 H           5.0492   -3.5599   -1.0933 H.spc      1 <1>        0.000
     28 H           4.1544   -0.8503   -5.0909 H.spc      1 <1>        0.000
     29 H           6.8610   -3.0851   -2.6276 H.spc      1 <1>        0.000
     30 H           6.4592   -1.6434   -4.6005 H.spc      1 <1>        0.000
@<TRIPOS>BOND
     1    2    5 1  
     2    2    4 ar 
     3    3    6 ar 
     4   17   19 ar 
     5    4    7 ar 
     6    6    7 ar 
     7    9   11 2  
     8   10   12 1  
     9   16   18 ar 
    10   12   15 2  
    11    9   10 am 
    12   13   16 ar 
    13    7    9 1  
    14   12   14 2  
    15   12   13 1  
    16   18   19 ar 
    17    8   17 ar 
    18   13    8 ar 
    19    1    3 ar 
    20    1    2 ar 
    21    1   20 1  
    22    3   21 1  
    23    4   22 1  
    24    5   23 1  
    25    6   24 1  
    26    8   25 1  
    27   10   26 1  
    28   16   27 1  
    29   17   28 1  
    30   18   29 1  
    31   19   30 1  
# Name:          frag5-677-62/138278
# Creation time: Sat Jun  5 12:51:53 2010


@<TRIPOS>MOLECULE
frag5-677-62/138278
   30    31     1     1     1
SMALL
USER_CHARGES


@<TRIPOS>ATOM
      1 C9         -1.0792    0.6208    0.9012 C.ar       1 <1>        0.000
      2 C12        -0.8041    0.2068   -0.4046 C.ar       1 <1>        0.000
      3 C13        -0.5626    0.0777    2.0817 C.ar       1 <1>        0.000
      4 C15         0.1479   -0.8087   -0.3921 C.ar       1 <1>        0.000
      5 O1         -1.3354    0.7594   -1.4828 O.3        1 <1>        0.000
      6 C16         0.2997   -0.9720    2.0006 C.ar       1 <1>        0.000
      7 C17         0.6376   -1.4434    0.7646 C.ar       1 <1>        0.000
      8 C26         2.3471   -1.9335   -2.9641 C.ar       1 <1>        0.000
      9 C20         1.5219   -2.5768    0.7612 C.2        1 <1>        0.000
     10 N3          1.4083   -3.4531   -0.2779 N.am       1 <1>        0.000
     11 O4          2.4381   -2.6440    1.5584 O.2        1 <1>        0.000
     12 S1          2.5428   -4.0681   -1.1856 S.o2       1 <1>        0.000
     13 C25         3.0733   -2.6423   -1.9759 C.ar       1 <1>        0.000
     14 O5          3.5568   -4.5652   -0.2976 O.2        1 <1>        0.000
     15 O6          1.8618   -4.8907   -2.1625 O.2        1 <1>        0.000
     16 C27         4.1769   -1.8880   -1.5648 C.ar       1 <1>        0.000
     17 C28         2.8032   -0.8162   -3.6665 C.ar       1 <1>        0.000
     18 C30         4.7342   -0.8261   -2.2677 C.ar       1 <1>        0.000
     19 C31         4.0229   -0.2776   -3.3149 C.ar       1 <1>        0.000
     20 H          -1.7704    1.4564    1.0115 H.spc      1 <1>        0.000
     21 H          -0.8459    0.4883    3.0508 H.spc      1 <1>        0.000
     22 H           0.5448   -1.1377   -1.3525 H.spc      1 <1>        0.000
     23 H          -1.9647    1.4343   -1.2181 H.spc      1 <1>        0.000
     24 H           0.7113   -1.4261    2.9020 H.spc      1 <1>        0.000
     25 H           1.3442   -2.2917   -3.1967 H.spc      1 <1>        0.000
     26 H           0.4584   -3.7522   -0.4987 H.spc      1 <1>        0.000
     27 H           4.6384   -2.1550   -0.6141 H.spc      1 <1>        0.000
     28 H           2.2108   -0.3813   -4.4715 H.spc      1 <1>        0.000
     29 H           5.7145   -0.4342   -1.9967 H.spc      1 <1>        0.000
     30 H           4.4228    0.5766   -3.8612 H.spc      1 <1>        0.000
@<TRIPOS>BOND
     1    2    5 1  
     2    2    4 ar 
     3    3    6 ar 
     4   17   19 ar 
     5    4    7 ar 
     6    6    7 ar 
     7    9   11 2  
     8   10   12 1  
     9   16   18 ar 
    10   12   15 2  
    11    9   10 am 
    12   13   16 ar 
    13    7    9 1  
    14   12   14 2  
    15   12   13 1  
    16   18   19 ar 
    17    8   17 ar 
    18   13    8 ar 
    19    1    3 ar 
    20    1    2 ar 
    21    1   20 1  
    22    3   21 1  
    23    4   22 1  
    24    5   23 1  
    25    6   24 1  
    26    8   25 1  
    27   10   26 1  
    28   16   27 1  
    29   17   28 1  
    30   18   29 1  
    31   19   30 1  
# Name:          frag5-677-62/138278
# Creation time: Sat Jun  5 12:51:53 2010


@<TRIPOS>MOLECULE
frag5-677-62/138278
   30    31     1     1     1
SMALL
USER_CHARGES


@<TRIPOS>ATOM
      1 C9          0.8244    1.1459    0.2127 C.ar       1 <1>        0.000
      2 C12        -0.4140    0.5602    0.0047 C.ar       1 <1>        0.000
      3 C13         2.0072    0.4510    0.4845 C.ar       1 <1>        0.000
      4 C15        -0.3021   -0.8267   -0.0463 C.ar       1 <1>        0.000
      5 O1         -1.5343    1.2406   -0.2409 O.3        1 <1>        0.000
      6 C16         1.9182   -0.9048    0.7308 C.ar       1 <1>        0.000
      7 C17         0.7631   -1.6108    0.4490 C.ar       1 <1>        0.000
      8 C26         1.9968   -2.6318   -2.7298 C.ar       1 <1>        0.000
      9 C20         0.5641   -3.1217    0.4663 C.2        1 <1>        0.000
     10 N3          1.5519   -3.9767    0.0200 N.am       1 <1>        0.000
     11 O4         -0.5272   -3.5798    0.7749 O.2        1 <1>        0.000
     12 S1          3.1063   -3.8850   -0.4466 S.o2       1 <1>        0.000
     13 C25         2.9525   -2.6675   -1.6791 C.ar       1 <1>        0.000
     14 O5          3.8270   -3.3552    0.6864 O.2        1 <1>        0.000
     15 O6          3.5275   -5.0924   -1.1051 O.2        1 <1>        0.000
     16 C27         3.5761   -1.4101   -1.6260 C.ar       1 <1>        0.000
     17 C28         1.8838   -1.6404   -3.7232 C.ar       1 <1>        0.000
     18 C30         3.4364   -0.3397   -2.5146 C.ar       1 <1>        0.000
     19 C31         2.6337   -0.4960   -3.6070 C.ar       1 <1>        0.000
     20 H           0.8811    2.2332    0.1604 H.spc      1 <1>        0.000
     21 H           2.9691    0.9635    0.5014 H.spc      1 <1>        0.000
     22 H          -1.1240   -1.3646   -0.5188 H.spc      1 <1>        0.000
     23 H          -1.3643    2.1804   -0.1439 H.spc      1 <1>        0.000
     24 H           2.7747   -1.4284    1.1554 H.spc      1 <1>        0.000
     25 H           1.2807   -3.4525   -2.7709 H.spc      1 <1>        0.000
     26 H           1.2100   -4.9363   -0.0314 H.spc      1 <1>        0.000
     27 H           4.2535   -1.2486   -0.7874 H.spc      1 <1>        0.000
     28 H           1.2122   -1.7790   -4.5704 H.spc      1 <1>        0.000
     29 H           3.9583    0.6009   -2.3383 H.spc      1 <1>        0.000
     30 H           2.5885    0.2757   -4.3755 H.spc      1 <1>        0.000
@<TRIPOS>BOND
     1    2    5 1  
     2    2    4 ar 
     3    3    6 ar 
     4   17   19 ar 
     5    4    7 ar 
     6    6    7 ar 
     7    9   11 2  
     8   10   12 1  
     9   16   18 ar 
    10   12   15 2  
    11    9   10 am 
    12   13   16 ar 
    13    7    9 1  
    14   12   14 2  
    15   12   13 1  
    16   18   19 ar 
    17    8   17 ar 
    18   13    8 ar 
    19    1    3 ar 
    20    1    2 ar 
    21    1   20 1  
    22    3   21 1  
    23    4   22 1  
    24    5   23 1  
    25    6   24 1  
    26    8   25 1  
    27   10   26 1  
    28   16   27 1  
    29   17   28 1  
    30   18   29 1  
    31   19   30 1  
# Name:          frag5-677-62/138278
# Creation time: Sat Jun  5 12:51:53 2010


@<TRIPOS>MOLECULE
frag5-677-62/138278
   30    31     1     1     1
SMALL
USER_CHARGES


@<TRIPOS>ATOM
      1 C9         -0.6375    0.6942    0.1263 C.ar       1 <1>        0.000
      2 C12        -0.9428   -0.5008   -0.4925 C.ar       1 <1>        0.000
      3 C13         0.4345    0.9109    1.0049 C.ar       1 <1>        0.000
      4 C15         0.0472   -1.4431   -0.1861 C.ar       1 <1>        0.000
      5 O1         -1.9791   -0.7094   -1.2925 O.3        1 <1>        0.000
      6 C16         1.3038   -0.1205    1.2978 C.ar       1 <1>        0.000
      7 C17         1.0465   -1.3903    0.8228 C.ar       1 <1>        0.000
      8 C26         2.3744   -2.1582   -3.0949 C.ar       1 <1>        0.000
      9 C20         1.9856   -2.4868    1.2743 C.2        1 <1>        0.000
     10 N3          2.3234   -3.5461    0.4559 N.am       1 <1>        0.000
     11 O4          2.5673   -2.3841    2.3459 O.2        1 <1>        0.000
     12 S1          2.1704   -3.9706   -1.0766 S.o2       1 <1>        0.000
     13 C25         2.8160   -2.5591   -1.8362 C.ar       1 <1>        0.000
     14 O5          3.0431   -5.0844   -1.3627 O.2        1 <1>        0.000
     15 O6          0.7538   -4.0986   -1.3636 O.2        1 <1>        0.000
     16 C27         3.6802   -1.5411   -1.3207 C.ar       1 <1>        0.000
     17 C28         2.8366   -1.0869   -3.8500 C.ar       1 <1>        0.000
     18 C30         4.2028   -0.4427   -2.0286 C.ar       1 <1>        0.000
     19 C31         3.7653   -0.2233   -3.3125 C.ar       1 <1>        0.000
     20 H          -1.2860    1.5441   -0.0861 H.spc      1 <1>        0.000
     21 H           0.5808    1.8925    1.4557 H.spc      1 <1>        0.000
     22 H           0.0517   -2.3394   -0.8063 H.spc      1 <1>        0.000
     23 H          -2.5109    0.0884   -1.3401 H.spc      1 <1>        0.000
     24 H           2.1909    0.0675    1.9026 H.spc      1 <1>        0.000
     25 H           1.5753   -2.7524   -3.5382 H.spc      1 <1>        0.000
     26 H           2.8136   -4.2683    0.9836 H.spc      1 <1>        0.000
     27 H           3.9628   -1.6253   -0.2713 H.spc      1 <1>        0.000
     28 H           2.4658   -0.9308   -4.8630 H.spc      1 <1>        0.000
     29 H           4.9375    0.2185   -1.5691 H.spc      1 <1>        0.000
     30 H           4.1453    0.6169   -3.8937 H.spc      1 <1>        0.000
@<TRIPOS>BOND
     1    2    5 1  
     2    2    4 ar 
     3    3    6 ar 
     4   17   19 ar 
     5    4    7 ar 
     6    6    7 ar 
     7    9   11 2  
     8   10   12 1  
     9   16   18 ar 
    10   12   15 2  
    11    9   10 am 
    12   13   16 ar 
    13    7    9 1  
    14   12   14 2  
    15   12   13 1  
    16   18   19 ar 
    17    8   17 ar 
    18   13    8 ar 
    19    1    3 ar 
    20    1    2 ar 
    21    1   20 1  
    22    3   21 1  
    23    4   22 1  
    24    5   23 1  
    25    6   24 1  
    26    8   25 1  
    27   10   26 1  
    28   16   27 1  
    29   17   28 1  
    30   18   29 1  
    31   19   30 1  
# Name:          frag5-677-62/138278
# Creation time: Sat Jun  5 12:51:53 2010


@<TRIPOS>MOLECULE
frag5-677-62/138278
   30    31     1     1     1
SMALL
USER_CHARGES


@<TRIPOS>ATOM
      1 C9         -0.8839    1.1154    0.5854 C.ar       1 <1>        0.000
      2 C12        -1.4851   -0.0701    1.0111 C.ar       1 <1>        0.000
      3 C13         0.4507    1.2653    0.1804 C.ar       1 <1>        0.000
      4 C15        -0.6291   -1.1514    0.8901 C.ar       1 <1>        0.000
      5 O1         -2.7480   -0.1647    1.4153 O.3        1 <1>        0.000
      6 C16         1.2665    0.1608    0.1933 C.ar       1 <1>        0.000
      7 C17         0.7159   -1.0158    0.6277 C.ar       1 <1>        0.000
      8 C26         2.4710   -2.5762   -3.2920 C.ar       1 <1>        0.000
      9 C20         1.5183   -2.2092    0.7368 C.2        1 <1>        0.000
     10 N3          1.4325   -3.0894   -0.2767 N.am       1 <1>        0.000
     11 O4          2.3307   -2.3023    1.6442 O.2        1 <1>        0.000
     12 S1          2.5732   -3.9805   -0.9024 S.o2       1 <1>        0.000
     13 C25         3.1468   -2.8635   -2.0905 C.ar       1 <1>        0.000
     14 O5          3.5674   -4.1468    0.1201 O.2        1 <1>        0.000
     15 O6          1.9141   -5.0493   -1.5814 O.2        1 <1>        0.000
     16 C27         4.2102   -1.9886   -1.8787 C.ar       1 <1>        0.000
     17 C28         2.9788   -1.7701   -4.3143 C.ar       1 <1>        0.000
     18 C30         4.8011   -1.2124   -2.8705 C.ar       1 <1>        0.000
     19 C31         4.1602   -1.0919   -4.0868 C.ar       1 <1>        0.000
     20 H          -1.5096    2.0077    0.5658 H.spc      1 <1>        0.000
     21 H           0.8314    2.2360   -0.1372 H.spc      1 <1>        0.000
     22 H          -1.0380   -2.1549    1.0078 H.spc      1 <1>        0.000
     23 H          -3.1468    0.7085    1.4223 H.spc      1 <1>        0.000
     24 H           2.3065    0.2179   -0.1280 H.spc      1 <1>        0.000
     25 H           1.4826   -3.0131   -3.4346 H.spc      1 <1>        0.000
     26 H           0.5084   -3.1942   -0.6955 H.spc      1 <1>        0.000
     27 H           4.6063   -1.9067   -0.8665 H.spc      1 <1>        0.000
     28 H           2.4561   -1.6790   -5.2665 H.spc      1 <1>        0.000
     29 H           5.7512   -0.7095   -2.6906 H.spc      1 <1>        0.000
     30 H           4.5862   -0.4618   -4.8675 H.spc      1 <1>        0.000
@<TRIPOS>BOND
     1    2    5 1  
     2    2    4 ar 
     3    3    6 ar 
     4   17   19 ar 
     5    4    7 ar 
     6    6    7 ar 
     7    9   11 2  
     8   10   12 1  
     9   16   18 ar 
    10   12   15 2  
    11    9   10 am 
    12   13   16 ar 
    13    7    9 1  
    14   12   14 2  
    15   12   13 1  
    16   18   19 ar 
    17    8   17 ar 
    18   13    8 ar 
    19    1    3 ar 
    20    1    2 ar 
    21    1   20 1  
    22    3   21 1  
    23    4   22 1  
    24    5   23 1  
    25    6   24 1  
    26    8   25 1  
    27   10   26 1  
    28   16   27 1  
    29   17   28 1  
    30   18   29 1  
    31   19   30 1  
# Name:          frag5-677-62/138278
# Creation time: Sat Jun  5 12:51:53 2010


@<TRIPOS>MOLECULE
frag5-677-62/138278
   30    31     1     1     1
SMALL
USER_CHARGES


@<TRIPOS>ATOM
      1 C9         -0.3267    0.5410   -0.6123 C.ar       1 <1>        0.000
      2 C12         0.9722    0.5546   -0.1099 C.ar       1 <1>        0.000
      3 C13        -1.1743   -0.5688   -0.6942 C.ar       1 <1>        0.000
      4 C15         1.2189   -0.6726    0.5467 C.ar       1 <1>        0.000
      5 O1          1.7905    1.6025   -0.1475 O.3        1 <1>        0.000
      6 C16        -0.6875   -1.8056   -0.3214 C.ar       1 <1>        0.000
      7 C17         0.4866   -1.8828    0.4070 C.ar       1 <1>        0.000
      8 C26         1.9997   -2.7537   -2.4453 C.ar       1 <1>        0.000
      9 C20         0.9336   -3.2262    0.8392 C.2        1 <1>        0.000
     10 N3          2.2104   -3.6799    0.5535 N.am       1 <1>        0.000
     11 O4          0.1323   -3.9881    1.3642 O.2        1 <1>        0.000
     12 S1          3.5801   -3.2706   -0.2020 S.o2       1 <1>        0.000
     13 C25         2.9806   -2.3455   -1.5232 C.ar       1 <1>        0.000
     14 O5          4.3039   -2.3928    0.6947 O.2        1 <1>        0.000
     15 O6          4.2205   -4.4615   -0.7069 O.2        1 <1>        0.000
     16 C27         3.3027   -1.0113   -1.7812 C.ar       1 <1>        0.000
     17 C28         1.3704   -1.9632   -3.4272 C.ar       1 <1>        0.000
     18 C30         2.7104   -0.1581   -2.7297 C.ar       1 <1>        0.000
     19 C31         1.7670   -0.6583   -3.5936 C.ar       1 <1>        0.000
     20 H          -0.7219    1.4888   -0.9778 H.spc      1 <1>        0.000
     21 H          -2.2002   -0.4590   -1.0459 H.spc      1 <1>        0.000
     22 H           2.0633   -0.6931    1.2357 H.spc      1 <1>        0.000
     23 H           1.3842    2.3062   -0.6587 H.spc      1 <1>        0.000
     24 H          -1.2233   -2.7135   -0.5984 H.spc      1 <1>        0.000
     25 H           1.6922   -3.7982   -2.3944 H.spc      1 <1>        0.000
     26 H           2.3296   -4.6039    0.9687 H.spc      1 <1>        0.000
     27 H           4.1039   -0.5825   -1.1793 H.spc      1 <1>        0.000
     28 H           0.5781   -2.3820   -4.0476 H.spc      1 <1>        0.000
     29 H           2.9979    0.8921   -2.7788 H.spc      1 <1>        0.000
     30 H           1.3462   -0.0395   -4.3862 H.spc      1 <1>        0.000
@<TRIPOS>BOND
     1    2    5 1  
     2    2    4 ar 
     3    3    6 ar 
     4   17   19 ar 
     5    4    7 ar 
     6    6    7 ar 
     7    9   11 2  
     8   10   12 1  
     9   16   18 ar 
    10   12   15 2  
    11    9   10 am 
    12   13   16 ar 
    13    7    9 1  
    14   12   14 2  
    15   12   13 1  
    16   18   19 ar 
    17    8   17 ar 
    18   13    8 ar 
    19    1    3 ar 
    20    1    2 ar 
    21    1   20 1  
    22    3   21 1  
    23    4   22 1  
    24    5   23 1  
    25    6   24 1  
    26    8   25 1  
    27   10   26 1  
    28   16   27 1  
    29   17   28 1  
    30   18   29 1  
    31   19   30 1  
# Name:          frag5-677-62/138278
# Creation time: Sat Jun  5 12:51:53 2010


@<TRIPOS>MOLECULE
frag5-677-62/138278
   30    31     1     1     1
SMALL
USER_CHARGES


@<TRIPOS>ATOM
      1 C9         -2.1919   -0.2930    1.5934 C.ar       1 <1>        0.000
      2 C12        -1.1561    0.6367    1.7148 C.ar       1 <1>        0.000
      3 C13        -2.1130   -1.5716    1.0297 C.ar       1 <1>        0.000
      4 C15         0.0429    0.0949    1.3038 C.ar       1 <1>        0.000
      5 O1         -1.2772    1.8613    2.2125 O.3        1 <1>        0.000
      6 C16        -0.8960   -1.9845    0.5315 C.ar       1 <1>        0.000
      7 C17         0.1831   -1.1274    0.6817 C.ar       1 <1>        0.000
      8 C26         4.5786   -1.9512   -2.0054 C.ar       1 <1>        0.000
      9 C20         1.5057   -1.4300    0.1961 C.2        1 <1>        0.000
     10 N3          1.5646   -2.1593   -0.9290 N.am       1 <1>        0.000
     11 O4          2.5010   -1.1684    0.8401 O.2        1 <1>        0.000
     12 S1          2.4066   -3.4669   -1.2470 S.o2       1 <1>        0.000
     13 C25         3.5200   -2.7966   -2.3428 C.ar       1 <1>        0.000
     14 O5          3.0688   -3.8346   -0.0178 O.2        1 <1>        0.000
     15 O6          1.5086   -4.3415   -1.9295 O.2        1 <1>        0.000
     16 C27         3.3038   -2.8013   -3.7202 C.ar       1 <1>        0.000
     17 C28         5.5924   -1.5789   -2.8903 C.ar       1 <1>        0.000
     18 C30         4.2433   -2.4147   -4.6726 C.ar       1 <1>        0.000
     19 C31         5.4060   -1.8139   -4.2380 C.ar       1 <1>        0.000
     20 H          -3.1655    0.0098    1.9789 H.spc      1 <1>        0.000
     21 H          -2.9873   -2.2210    0.9860 H.spc      1 <1>        0.000
     22 H           0.9473    0.6760    1.4840 H.spc      1 <1>        0.000
     23 H          -2.1973    2.0274    2.4305 H.spc      1 <1>        0.000
     24 H          -0.7861   -2.9498    0.0374 H.spc      1 <1>        0.000
     25 H           4.6159   -1.5579   -0.9895 H.spc      1 <1>        0.000
     26 H           0.9807   -1.8229   -1.6947 H.spc      1 <1>        0.000
     27 H           2.3284   -3.1316   -4.0775 H.spc      1 <1>        0.000
     28 H           6.5086   -1.1141   -2.5261 H.spc      1 <1>        0.000
     29 H           4.0642   -2.5827   -5.7346 H.spc      1 <1>        0.000
     30 H           6.1745   -1.5258   -4.9553 H.spc      1 <1>        0.000
@<TRIPOS>BOND
     1    2    5 1  
     2    2    4 ar 
     3    3    6 ar 
     4   17   19 ar 
     5    4    7 ar 
     6    6    7 ar 
     7    9   11 2  
     8   10   12 1  
     9   16   18 ar 
    10   12   15 2  
    11    9   10 am 
    12   13   16 ar 
    13    7    9 1  
    14   12   14 2  
    15   12   13 1  
    16   18   19 ar 
    17    8   17 ar 
    18   13    8 ar 
    19    1    3 ar 
    20    1    2 ar 
    21    1   20 1  
    22    3   21 1  
    23    4   22 1  
    24    5   23 1  
    25    6   24 1  
    26    8   25 1  
    27   10   26 1  
    28   16   27 1  
    29   17   28 1  
    30   18   29 1  
    31   19   30 1  
# Name:          frag5-677-62/138278
# Creation time: Sat Jun  5 12:51:53 2010


@<TRIPOS>MOLECULE
frag5-677-62/138278
   30    31     1     1     1
SMALL
USER_CHARGES


@<TRIPOS>ATOM
      1 C9         -0.9933    0.8874    0.5537 C.ar       1 <1>        0.000
      2 C12        -1.3004   -0.0490    1.5410 C.ar       1 <1>        0.000
      3 C13        -0.0442    0.7361   -0.4417 C.ar       1 <1>        0.000
      4 C15        -0.6676   -1.2731    1.2801 C.ar       1 <1>        0.000
      5 O1         -2.1121    0.1468    2.5684 O.3        1 <1>        0.000
      6 C16         0.5619   -0.5034   -0.5539 C.ar       1 <1>        0.000
      7 C17         0.2732   -1.5656    0.2949 C.ar       1 <1>        0.000
      8 C26         3.8204   -3.5134   -2.5851 C.ar       1 <1>        0.000
      9 C20         0.9142   -2.8994    0.2908 C.2        1 <1>        0.000
     10 N3          2.2841   -3.0122    0.1888 N.am       1 <1>        0.000
     11 O4          0.2197   -3.9082    0.4030 O.2        1 <1>        0.000
     12 S1          3.5883   -2.1438   -0.1959 S.o2       1 <1>        0.000
     13 C25         3.5528   -2.3230   -1.9001 C.ar       1 <1>        0.000
     14 O5          3.3089   -0.7720    0.1563 O.2        1 <1>        0.000
     15 O6          4.7721   -2.7806    0.3239 O.2        1 <1>        0.000
     16 C27         3.0762   -1.3918   -2.8234 C.ar       1 <1>        0.000
     17 C28         3.9207   -3.6680   -3.9774 C.ar       1 <1>        0.000
     18 C30         3.0635   -1.4842   -4.2151 C.ar       1 <1>        0.000
     19 C31         3.5529   -2.6236   -4.7972 C.ar       1 <1>        0.000
     20 H          -1.5518    1.8234    0.5677 H.spc      1 <1>        0.000
     21 H           0.2152    1.5579   -1.1091 H.spc      1 <1>        0.000
     22 H          -0.9475   -2.1013    1.9311 H.spc      1 <1>        0.000
     23 H          -2.4312    1.0521    2.5547 H.spc      1 <1>        0.000
     24 H           1.2985   -0.6531   -1.3432 H.spc      1 <1>        0.000
     25 H           3.9651   -4.4078   -1.9791 H.spc      1 <1>        0.000
     26 H           2.5675   -3.9593    0.4400 H.spc      1 <1>        0.000
     27 H           2.6610   -0.4755   -2.4037 H.spc      1 <1>        0.000
     28 H           4.2850   -4.6026   -4.4040 H.spc      1 <1>        0.000
     29 H           2.6735   -0.6693   -4.8249 H.spc      1 <1>        0.000
     30 H           3.6488   -2.7018   -5.8802 H.spc      1 <1>        0.000
@<TRIPOS>BOND
     1    2    5 1  
     2    2    4 ar 
     3    3    6 ar 
     4   17   19 ar 
     5    4    7 ar 
     6    6    7 ar 
     7    9   11 2  
     8   10   12 1  
     9   16   18 ar 
    10   12   15 2  
    11    9   10 am 
    12   13   16 ar 
    13    7    9 1  
    14   12   14 2  
    15   12   13 1  
    16   18   19 ar 
    17    8   17 ar 
    18   13    8 ar 
    19    1    3 ar 
    20    1    2 ar 
    21    1   20 1  
    22    3   21 1  
    23    4   22 1  
    24    5   23 1  
    25    6   24 1  
    26    8   25 1  
    27   10   26 1  
    28   16   27 1  
    29   17   28 1  
    30   18   29 1  
    31   19   30 1  
# Name:          frag5-677-62/138278
# Creation time: Sat Jun  5 12:51:53 2010


@<TRIPOS>MOLECULE
frag5-677-62/138278
   30    31     1     1     1
SMALL
USER_CHARGES


@<TRIPOS>ATOM
      1 C9         -0.8401    0.8554    0.0458 C.ar       1 <1>        0.000
      2 C12        -1.1271    0.2346    1.2589 C.ar       1 <1>        0.000
      3 C13         0.0908    0.4151   -0.8874 C.ar       1 <1>        0.000
      4 C15        -0.4994   -1.0157    1.3434 C.ar       1 <1>        0.000
      5 O1         -1.9210    0.7352    2.1990 O.3        1 <1>        0.000
      6 C16         0.5808   -0.8658   -0.7217 C.ar       1 <1>        0.000
      7 C17         0.3839   -1.5944    0.4356 C.ar       1 <1>        0.000
      8 C26         3.5183   -3.4590   -2.8112 C.ar       1 <1>        0.000
      9 C20         0.9612   -2.9369    0.7030 C.2        1 <1>        0.000
     10 N3          2.1847   -3.2892    0.1782 N.am       1 <1>        0.000
     11 O4          0.3701   -3.7363    1.4147 O.2        1 <1>        0.000
     12 S1          3.5798   -2.5801   -0.2005 S.o2       1 <1>        0.000
     13 C25         3.4733   -2.4065   -1.8905 C.ar       1 <1>        0.000
     14 O5          3.5582   -1.2799    0.4066 O.2        1 <1>        0.000
     15 O6          4.6610   -3.5074    0.0906 O.2        1 <1>        0.000
     16 C27         3.1950   -1.2097   -2.5681 C.ar       1 <1>        0.000
     17 C28         3.4956   -3.3357   -4.2021 C.ar       1 <1>        0.000
     18 C30         2.9159   -1.0587   -3.9230 C.ar       1 <1>        0.000
     19 C31         3.2103   -2.1060   -4.7603 C.ar       1 <1>        0.000
     20 H          -1.3928    1.7643   -0.1921 H.spc      1 <1>        0.000
     21 H           0.4186    1.0500   -1.7106 H.spc      1 <1>        0.000
     22 H          -0.7311   -1.6080    2.2286 H.spc      1 <1>        0.000
     23 H          -2.2346    1.5999    1.9243 H.spc      1 <1>        0.000
     24 H           1.1452   -1.3197   -1.5363 H.spc      1 <1>        0.000
     25 H           3.5765   -4.4689   -2.4052 H.spc      1 <1>        0.000
     26 H           2.2162   -4.2870   -0.0309 H.spc      1 <1>        0.000
     27 H           3.1977   -0.2997   -1.9682 H.spc      1 <1>        0.000
     28 H           3.7001   -4.1976   -4.8373 H.spc      1 <1>        0.000
     29 H           2.4773   -0.1378   -4.3074 H.spc      1 <1>        0.000
     30 H           3.2186   -1.9695   -5.8417 H.spc      1 <1>        0.000
@<TRIPOS>BOND
     1    2    5 1  
     2    2    4 ar 
     3    3    6 ar 
     4   17   19 ar 
     5    4    7 ar 
     6    6    7 ar 
     7    9   11 2  
     8   10   12 1  
     9   16   18 ar 
    10   12   15 2  
    11    9   10 am 
    12   13   16 ar 
    13    7    9 1  
    14   12   14 2  
    15   12   13 1  
    16   18   19 ar 
    17    8   17 ar 
    18   13    8 ar 
    19    1    3 ar 
    20    1    2 ar 
    21    1   20 1  
    22    3   21 1  
    23    4   22 1  
    24    5   23 1  
    25    6   24 1  
    26    8   25 1  
    27   10   26 1  
    28   16   27 1  
    29   17   28 1  
    30   18   29 1  
    31   19   30 1  
# Name:          frag5-677-62/138278
# Creation time: Sat Jun  5 12:51:53 2010


@<TRIPOS>MOLECULE
frag5-677-62/138278
   30    31     1     1     1
SMALL
USER_CHARGES


@<TRIPOS>ATOM
      1 C9         -1.5977    0.4594    1.3346 C.ar       1 <1>        0.000
      2 C12        -0.4328    0.8258    0.6522 C.ar       1 <1>        0.000
      3 C13        -1.9758   -0.8275    1.7179 C.ar       1 <1>        0.000
      4 C15         0.4088   -0.2702    0.4939 C.ar       1 <1>        0.000
      5 O1         -0.1691    2.0587    0.2518 O.3        1 <1>        0.000
      6 C16        -1.1365   -1.8660    1.4440 C.ar       1 <1>        0.000
      7 C17         0.0613   -1.5862    0.8491 C.ar       1 <1>        0.000
      8 C26         4.4183   -1.5076   -2.1432 C.ar       1 <1>        0.000
      9 C20         0.9027   -2.7060    0.5911 C.2        1 <1>        0.000
     10 N3          1.6779   -2.6178   -0.5147 N.am       1 <1>        0.000
     11 O4          0.9794   -3.6525    1.3363 O.2        1 <1>        0.000
     12 S1          2.9956   -3.4143   -0.8577 S.o2       1 <1>        0.000
     13 C25         3.5022   -2.5532   -2.2147 C.ar       1 <1>        0.000
     14 O5          3.8532   -3.1375    0.2684 O.2        1 <1>        0.000
     15 O6          2.5892   -4.7367   -1.2681 O.2        1 <1>        0.000
     16 C27         2.8647   -2.5789   -3.4686 C.ar       1 <1>        0.000
     17 C28         5.0145   -0.9140   -3.2479 C.ar       1 <1>        0.000
     18 C30         3.3670   -1.9701   -4.6190 C.ar       1 <1>        0.000
     19 C31         4.4686   -1.1463   -4.4947 C.ar       1 <1>        0.000
     20 H          -2.2834    1.2658    1.5947 H.spc      1 <1>        0.000
     21 H          -2.9243   -0.9993    2.2267 H.spc      1 <1>        0.000
     22 H           1.3978   -0.0990    0.0688 H.spc      1 <1>        0.000
     23 H          -0.9060    2.6314    0.4765 H.spc      1 <1>        0.000
     24 H          -1.4130   -2.8906    1.6925 H.spc      1 <1>        0.000
     25 H           4.6850   -1.1303   -1.1560 H.spc      1 <1>        0.000
     26 H           1.3694   -1.9479   -1.2193 H.spc      1 <1>        0.000
     27 H           1.9157   -3.1095   -3.5464 H.spc      1 <1>        0.000
     28 H           5.8932   -0.2793   -3.1334 H.spc      1 <1>        0.000
     29 H           2.9023   -2.1401   -5.5902 H.spc      1 <1>        0.000
     30 H           4.9057   -0.6810   -5.3782 H.spc      1 <1>        0.000
@<TRIPOS>BOND
     1    2    5 1  
     2    2    4 ar 
     3    3    6 ar 
     4   17   19 ar 
     5    4    7 ar 
     6    6    7 ar 
     7    9   11 2  
     8   10   12 1  
     9   16   18 ar 
    10   12   15 2  
    11    9   10 am 
    12   13   16 ar 
    13    7    9 1  
    14   12   14 2  
    15   12   13 1  
    16   18   19 ar 
    17    8   17 ar 
    18   13    8 ar 
    19    1    3 ar 
    20    1    2 ar 
    21    1   20 1  
    22    3   21 1  
    23    4   22 1  
    24    5   23 1  
    25    6   24 1  
    26    8   25 1  
    27   10   26 1  
    28   16   27 1  
    29   17   28 1  
    30   18   29 1  
    31   19   30 1  
# Name:          frag5-677-62/138278
# Creation time: Sat Jun  5 12:51:53 2010


@<TRIPOS>MOLECULE
frag5-677-62/138278
   30    31     1     1     1
SMALL
USER_CHARGES


@<TRIPOS>ATOM
      1 C9         -1.0243    0.7664    1.6773 C.ar       1 <1>        0.000
      2 C12        -1.1238    0.4821    0.3052 C.ar       1 <1>        0.000
      3 C13        -0.3452    0.0125    2.6383 C.ar       1 <1>        0.000
      4 C15        -0.3367   -0.6104   -0.0309 C.ar       1 <1>        0.000
      5 O1         -1.8332    1.1913   -0.5569 O.3        1 <1>        0.000
      6 C16         0.3041   -1.1201    2.2436 C.ar       1 <1>        0.000
      7 C17         0.2311   -1.4639    0.9202 C.ar       1 <1>        0.000
      8 C26         2.8018   -2.2175   -3.3951 C.ar       1 <1>        0.000
      9 C20         0.8780   -2.6669    0.5396 C.2        1 <1>        0.000
     10 N3          2.0197   -2.5307   -0.1714 N.am       1 <1>        0.000
     11 O4          0.4295   -3.7579    0.8141 O.2        1 <1>        0.000
     12 S1          2.7827   -3.5981   -1.0430 S.o2       1 <1>        0.000
     13 C25         3.4673   -2.5984   -2.2189 C.ar       1 <1>        0.000
     14 O5          3.7886   -4.0934   -0.1411 O.2        1 <1>        0.000
     15 O6          1.7798   -4.4162   -1.6906 O.2        1 <1>        0.000
     16 C27         4.6457   -1.8661   -2.0400 C.ar       1 <1>        0.000
     17 C28         3.3780   -1.4960   -4.4348 C.ar       1 <1>        0.000
     18 C30         5.3033   -1.1777   -3.0533 C.ar       1 <1>        0.000
     19 C31         4.6451   -0.9798   -4.2516 C.ar       1 <1>        0.000
     20 H          -1.5282    1.6670    2.0282 H.spc      1 <1>        0.000
     21 H          -0.3347    0.3236    3.6829 H.spc      1 <1>        0.000
     22 H          -0.1524   -0.8127   -1.0860 H.spc      1 <1>        0.000
     23 H          -2.2929    1.8932   -0.0904 H.spc      1 <1>        0.000
     24 H           0.8608   -1.7293    2.9556 H.spc      1 <1>        0.000
     25 H           1.7568   -2.5088   -3.5010 H.spc      1 <1>        0.000
     26 H           2.4478   -1.6055   -0.1388 H.spc      1 <1>        0.000
     27 H           5.0771   -1.8330   -1.0396 H.spc      1 <1>        0.000
     28 H           2.8423   -1.3418   -5.3715 H.spc      1 <1>        0.000
     29 H           6.3159   -0.8024   -2.9054 H.spc      1 <1>        0.000
     30 H           5.1257   -0.4167   -5.0516 H.spc      1 <1>        0.000
@<TRIPOS>BOND
     1    2    5 1  
     2    2    4 ar 
     3    3    6 ar 
     4   17   19 ar 
     5    4    7 ar 
     6    6    7 ar 
     7    9   11 2  
     8   10   12 1  
     9   16   18 ar 
    10   12   15 2  
    11    9   10 am 
    12   13   16 ar 
    13    7    9 1  
    14   12   14 2  
    15   12   13 1  
    16   18   19 ar 
    17    8   17 ar 
    18   13    8 ar 
    19    1    3 ar 
    20    1    2 ar 
    21    1   20 1  
    22    3   21 1  
    23    4   22 1  
    24    5   23 1  
    25    6   24 1  
    26    8   25 1  
    27   10   26 1  
    28   16   27 1  
    29   17   28 1  
    30   18   29 1  
    31   19   30 1  
# Name:          frag5-677-62/138278
# Creation time: Sat Jun  5 12:51:53 2010


@<TRIPOS>MOLECULE
frag5-677-62/138278
   30    31     1     1     1
SMALL
USER_CHARGES


@<TRIPOS>ATOM
      1 C9         -0.1058    0.9216   -0.0781 C.ar       1 <1>        0.000
      2 C12        -0.7896   -0.2261   -0.4789 C.ar       1 <1>        0.000
      3 C13         1.0809    0.9577    0.6637 C.ar       1 <1>        0.000
      4 C15        -0.0666   -1.3837   -0.1340 C.ar       1 <1>        0.000
      5 O1         -1.9468   -0.2083   -1.1383 O.3        1 <1>        0.000
      6 C16         1.6656   -0.2346    1.0300 C.ar       1 <1>        0.000
      7 C17         1.0576   -1.4312    0.7194 C.ar       1 <1>        0.000
      8 C26         1.8740   -2.0061   -2.6790 C.ar       1 <1>        0.000
      9 C20         1.6824   -2.6572    1.2738 C.2        1 <1>        0.000
     10 N3          2.5147   -3.4128    0.5122 N.am       1 <1>        0.000
     11 O4          1.4050   -3.0427    2.4001 O.2        1 <1>        0.000
     12 S1          2.4558   -3.9960   -0.9443 S.o2       1 <1>        0.000
     13 C25         2.8193   -2.5921   -1.8406 C.ar       1 <1>        0.000
     14 O5          3.5429   -4.9369   -1.0402 O.2        1 <1>        0.000
     15 O6          1.0803   -4.3521   -1.1604 O.2        1 <1>        0.000
     16 C27         3.9228   -1.7347   -1.6469 C.ar       1 <1>        0.000
     17 C28         2.0857   -0.9111   -3.4885 C.ar       1 <1>        0.000
     18 C30         4.2293   -0.6546   -2.4708 C.ar       1 <1>        0.000
     19 C31         3.2837   -0.2400   -3.3886 C.ar       1 <1>        0.000
     20 H          -0.5355    1.8799   -0.3697 H.spc      1 <1>        0.000
     21 H           1.5326    1.9089    0.9454 H.spc      1 <1>        0.000
     22 H          -0.4044   -2.3268   -0.5636 H.spc      1 <1>        0.000
     23 H          -2.2361    0.7002   -1.2502 H.spc      1 <1>        0.000
     24 H           2.6136   -0.2313    1.5680 H.spc      1 <1>        0.000
     25 H           0.8798   -2.4526   -2.6964 H.spc      1 <1>        0.000
     26 H           3.3771   -3.6581    0.9985 H.spc      1 <1>        0.000
     27 H           4.5776   -1.9302   -0.7977 H.spc      1 <1>        0.000
     28 H           1.3211   -0.5833   -4.1928 H.spc      1 <1>        0.000
     29 H           5.1917   -0.1487   -2.3934 H.spc      1 <1>        0.000
     30 H           3.4855    0.6163   -4.0321 H.spc      1 <1>        0.000
@<TRIPOS>BOND
     1    2    5 1  
     2    2    4 ar 
     3    3    6 ar 
     4   17   19 ar 
     5    4    7 ar 
     6    6    7 ar 
     7    9   11 2  
     8   10   12 1  
     9   16   18 ar 
    10   12   15 2  
    11    9   10 am 
    12   13   16 ar 
    13    7    9 1  
    14   12   14 2  
    15   12   13 1  
    16   18   19 ar 
    17    8   17 ar 
    18   13    8 ar 
    19    1    3 ar 
    20    1    2 ar 
    21    1   20 1  
    22    3   21 1  
    23    4   22 1  
    24    5   23 1  
    25    6   24 1  
    26    8   25 1  
    27   10   26 1  
    28   16   27 1  
    29   17   28 1  
    30   18   29 1  
    31   19   30 1  
# Name:          frag5-677-62/138278
# Creation time: Sat Jun  5 12:51:53 2010


@<TRIPOS>MOLECULE
frag5-677-62/138278
   30    31     1     1     1
SMALL
USER_CHARGES


@<TRIPOS>ATOM
      1 C9         -1.2872    0.4322    0.5015 C.ar       1 <1>        0.000
      2 C12        -1.4347   -0.7880   -0.1238 C.ar       1 <1>        0.000
      3 C13        -0.1610    0.8723    1.2067 C.ar       1 <1>        0.000
      4 C15        -0.2401   -1.4955   -0.0313 C.ar       1 <1>        0.000
      5 O1         -2.5272   -1.2268   -0.7353 O.3        1 <1>        0.000
      6 C16         0.9446    0.0583    1.2881 C.ar       1 <1>        0.000
      7 C17         0.9247   -1.1887    0.7201 C.ar       1 <1>        0.000
      8 C26         2.4208   -1.5029   -2.5923 C.ar       1 <1>        0.000
      9 C20         2.0961   -2.0660    0.9675 C.2        1 <1>        0.000
     10 N3          2.1640   -3.2939    0.3623 N.am       1 <1>        0.000
     11 O4          3.0529   -1.6630    1.6172 O.2        1 <1>        0.000
     12 S1          2.1239   -3.8420   -1.1443 S.o2       1 <1>        0.000
     13 C25         3.0111   -2.6003   -1.9429 C.ar       1 <1>        0.000
     14 O5          2.8675   -5.0678   -1.1433 O.2        1 <1>        0.000
     15 O6          0.7682   -3.7981   -1.6353 O.2        1 <1>        0.000
     16 C27         4.3947   -2.3771   -1.8351 C.ar       1 <1>        0.000
     17 C28         3.0810   -0.5461   -3.3634 C.ar       1 <1>        0.000
     18 C30         5.1351   -1.4905   -2.6250 C.ar       1 <1>        0.000
     19 C31         4.4569   -0.5570   -3.3805 C.ar       1 <1>        0.000
     20 H          -2.1297    1.1211    0.4407 H.spc      1 <1>        0.000
     21 H          -0.1602    1.8509    1.6868 H.spc      1 <1>        0.000
     22 H          -0.1919   -2.4132   -0.6175 H.spc      1 <1>        0.000
     23 H          -3.2189   -0.5647   -0.6664 H.spc      1 <1>        0.000
     24 H           1.8388    0.4058    1.8056 H.spc      1 <1>        0.000
     25 H           1.3424   -1.3881   -2.4829 H.spc      1 <1>        0.000
     26 H           2.2656   -4.0488    1.0407 H.spc      1 <1>        0.000
     27 H           4.9349   -2.9405   -1.0743 H.spc      1 <1>        0.000
     28 H           2.5210    0.1917   -3.9380 H.spc      1 <1>        0.000
     29 H           6.2240   -1.5367   -2.6428 H.spc      1 <1>        0.000
     30 H           5.0055    0.1651   -3.9853 H.spc      1 <1>        0.000
@<TRIPOS>BOND
     1    2    5 1  
     2    2    4 ar 
     3    3    6 ar 
     4   17   19 ar 
     5    4    7 ar 
     6    6    7 ar 
     7    9   11 2  
     8   10   12 1  
     9   16   18 ar 
    10   12   15 2  
    11    9   10 am 
    12   13   16 ar 
    13    7    9 1  
    14   12   14 2  
    15   12   13 1  
    16   18   19 ar 
    17    8   17 ar 
    18   13    8 ar 
    19    1    3 ar 
    20    1    2 ar 
    21    1   20 1  
    22    3   21 1  
    23    4   22 1  
    24    5   23 1  
    25    6   24 1  
    26    8   25 1  
    27   10   26 1  
    28   16   27 1  
    29   17   28 1  
    30   18   29 1  
    31   19   30 1  
# Name:          frag5-677-62/138278 -- energy: -3.790289
# Creation time: Sat Jun  5 12:51:53 2010


@<TRIPOS>MOLECULE
frag5-677-62/138278 -- energy: -3.790289
   30    31     1     1     1
SMALL
USER_CHARGES


@<TRIPOS>ATOM
      1 C9         -1.3946   -0.1310   -0.2304 C.ar       1 <1>        0.000
      2 C12        -0.2689    0.6322    0.0905 C.ar       1 <1>        0.000
      3 C13        -1.4857   -1.5197   -0.2005 C.ar       1 <1>        0.000
      4 C15         0.7640   -0.1811    0.5737 C.ar       1 <1>        0.000
      5 O1         -0.2061    1.9547   -0.0085 O.3        1 <1>        0.000
      6 C16        -0.3760   -2.2295    0.2330 C.ar       1 <1>        0.000
      7 C17         0.7808   -1.5785    0.6713 C.ar       1 <1>        0.000
      8 C26         2.0283   -1.7819   -2.5382 C.ar       1 <1>        0.000
      9 C20         1.9864   -2.2528    1.2663 C.2        1 <1>        0.000
     10 N3          2.6450   -3.2099    0.5510 N.am       1 <1>        0.000
     11 O4          2.3768   -1.9528    2.3794 O.2        1 <1>        0.000
     12 S1          2.5052   -3.9002   -0.8791 S.o2       1 <1>        0.000
     13 C25         2.9639   -2.5880   -1.8784 C.ar       1 <1>        0.000
     14 O5          3.5072   -4.9321   -0.9017 O.2        1 <1>        0.000
     15 O6          1.1230   -4.1720   -1.0802 O.2        1 <1>        0.000
     16 C27         4.2426   -2.0163   -1.9533 C.ar       1 <1>        0.000
     17 C28         2.3252   -0.7832   -3.4555 C.ar       1 <1>        0.000
     18 C30         4.6289   -1.0631   -2.8950 C.ar       1 <1>        0.000
     19 C31         3.6453   -0.4357   -3.6335 C.ar       1 <1>        0.000
     20 H          -2.2884    0.4142   -0.5337 H.spc      1 <1>        0.000
     21 H          -2.3978   -2.0316   -0.5072 H.spc      1 <1>        0.000
     22 H           1.6617    0.3347    0.9144 H.spc      1 <1>        0.000
     23 H          -1.0328    2.2874   -0.3655 H.spc      1 <1>        0.000
     24 H          -0.4065   -3.3191    0.2319 H.spc      1 <1>        0.000
     25 H           0.9759   -1.9534   -2.3120 H.spc      1 <1>        0.000
     26 H           3.4394   -3.5838    1.0702 H.spc      1 <1>        0.000
     27 H           4.9861   -2.3396   -1.2247 H.spc      1 <1>        0.000
     28 H           1.5348   -0.2878   -4.0193 H.spc      1 <1>        0.000
     29 H           5.6808   -0.8195   -3.0443 H.spc      1 <1>        0.000
     30 H           3.9139    0.3342   -4.3569 H.spc      1 <1>        0.000
@<TRIPOS>BOND
     1    2    5 1  
     2    2    4 ar 
     3    3    6 ar 
     4   17   19 ar 
     5    4    7 ar 
     6    6    7 ar 
     7    9   11 2  
     8   10   12 1  
     9   16   18 ar 
    10   12   15 2  
    11    9   10 am 
    12   13   16 ar 
    13    7    9 1  
    14   12   14 2  
    15   12   13 1  
    16   18   19 ar 
    17    8   17 ar 
    18   13    8 ar 
    19    1    3 ar 
    20    1    2 ar 
    21    1   20 1  
    22    3   21 1  
    23    4   22 1  
    24    5   23 1  
    25    6   24 1  
    26    8   25 1  
    27   10   26 1  
    28   16   27 1  
    29   17   28 1  
    30   18   29 1  
    31   19   30 1  
# Name:          frag5-677-62/138278 -- energy: -3.237380
# Creation time: Sat Jun  5 12:51:53 2010


@<TRIPOS>MOLECULE
frag5-677-62/138278 -- energy: -3.237380
   30    31     1     1     1
SMALL
USER_CHARGES


@<TRIPOS>ATOM
      1 C9         -2.1574   -0.4191    1.3862 C.ar       1 <1>        0.000
      2 C12        -1.1174    0.4853    1.1411 C.ar       1 <1>        0.000
      3 C13        -2.0631   -1.8104    1.3821 C.ar       1 <1>        0.000
      4 C15         0.1060   -0.1906    0.9821 C.ar       1 <1>        0.000
      5 O1         -1.2757    1.8067    1.1085 O.3        1 <1>        0.000
      6 C16        -0.8288   -2.3822    1.1213 C.ar       1 <1>        0.000
      7 C17         0.3086   -1.5958    0.9823 C.ar       1 <1>        0.000
      8 C26         4.7207   -1.6745   -2.4563 C.ar       1 <1>        0.000
      9 C20         1.6420   -2.2246    0.9081 C.2        1 <1>        0.000
     10 N3          2.4245   -2.0479   -0.1779 N.am       1 <1>        0.000
     11 O4          2.0415   -2.9831    1.7857 O.2        1 <1>        0.000
     12 S1          2.1100   -1.5881   -1.6729 S.o2       1 <1>        0.000
     13 C25         3.4351   -2.2250   -2.4997 C.ar       1 <1>        0.000
     14 O5          0.9153   -2.3135   -2.0123 O.2        1 <1>        0.000
     15 O6          2.1972   -0.1482   -1.6695 O.2        1 <1>        0.000
     16 C27         3.4394   -3.4823   -3.0896 C.ar       1 <1>        0.000
     17 C28         5.8014   -2.1178   -3.2208 C.ar       1 <1>        0.000
     18 C30         4.4479   -3.9585   -3.9237 C.ar       1 <1>        0.000
     19 C31         5.6442   -3.2713   -3.9636 C.ar       1 <1>        0.000
     20 H          -3.1377    0.0062    1.6015 H.spc      1 <1>        0.000
     21 H          -2.9372   -2.4312    1.5788 H.spc      1 <1>        0.000
     22 H           0.9916    0.4298    0.8442 H.spc      1 <1>        0.000
     23 H          -2.2021    2.0203    1.2418 H.spc      1 <1>        0.000
     24 H          -0.7484   -3.4648    1.0236 H.spc      1 <1>        0.000
     25 H           4.8906   -0.8394   -1.7767 H.spc      1 <1>        0.000
     26 H           3.4105   -2.2476   -0.0094 H.spc      1 <1>        0.000
     27 H           2.5956   -4.1416   -2.8858 H.spc      1 <1>        0.000
     28 H           6.7430   -1.5688   -3.2311 H.spc      1 <1>        0.000
     29 H           4.2962   -4.8516   -4.5299 H.spc      1 <1>        0.000
     30 H           6.4641   -3.6387   -4.5808 H.spc      1 <1>        0.000
@<TRIPOS>BOND
     1    2    5 1  
     2    2    4 ar 
     3    3    6 ar 
     4   17   19 ar 
     5    4    7 ar 
     6    6    7 ar 
     7    9   11 2  
     8   10   12 1  
     9   16   18 ar 
    10   12   15 2  
    11    9   10 am 
    12   13   16 ar 
    13    7    9 1  
    14   12   14 2  
    15   12   13 1  
    16   18   19 ar 
    17    8   17 ar 
    18   13    8 ar 
    19    1    3 ar 
    20    1    2 ar 
    21    1   20 1  
    22    3   21 1  
    23    4   22 1  
    24    5   23 1  
    25    6   24 1  
    26    8   25 1  
    27   10   26 1  
    28   16   27 1  
    29   17   28 1  
    30   18   29 1  
    31   19   30 1  
# Name:          frag5-677-62/138278 -- energy: -4.967380
# Creation time: Sat Jun  5 12:51:53 2010


@<TRIPOS>MOLECULE
frag5-677-62/138278 -- energy: -4.967380
   30    31     1     1     1
SMALL
USER_CHARGES


@<TRIPOS>ATOM
      1 C9         -1.0831    0.0294   -0.3384 C.ar       1 <1>        0.000
      2 C12         0.1733    0.6240   -0.2176 C.ar       1 <1>        0.000
      3 C13        -1.3976   -1.3093   -0.0753 C.ar       1 <1>        0.000
      4 C15         1.0809   -0.2910    0.3373 C.ar       1 <1>        0.000
      5 O1          0.4407    1.8865   -0.5259 O.3        1 <1>        0.000
      6 C16        -0.3913   -2.1576    0.3576 C.ar       1 <1>        0.000
      7 C17         0.8538   -1.6419    0.6853 C.ar       1 <1>        0.000
      8 C26         2.1210   -2.2813   -2.9175 C.ar       1 <1>        0.000
      9 C20         1.9287   -2.4555    1.3400 C.2        1 <1>        0.000
     10 N3          2.6266   -3.3876    0.6022 N.am       1 <1>        0.000
     11 O4          2.2073   -2.2785    2.5090 O.2        1 <1>        0.000
     12 S1          2.5780   -3.9695   -0.8700 S.o2       1 <1>        0.000
     13 C25         2.8648   -2.5487   -1.7769 C.ar       1 <1>        0.000
     14 O5          3.6840   -4.8787   -1.0466 O.2        1 <1>        0.000
     15 O6          1.2096   -4.3947   -1.0757 O.2        1 <1>        0.000
     16 C27         3.6419   -1.4063   -1.4340 C.ar       1 <1>        0.000
     17 C28         2.2609   -1.1980   -3.7658 C.ar       1 <1>        0.000
     18 C30         3.8508   -0.2861   -2.2496 C.ar       1 <1>        0.000
     19 C31         3.1411   -0.1960   -3.4272 C.ar       1 <1>        0.000
     20 H          -1.9001    0.6701   -0.6702 H.spc      1 <1>        0.000
     21 H          -2.4149   -1.6772   -0.2085 H.spc      1 <1>        0.000
     22 H           2.0862    0.0871    0.5231 H.spc      1 <1>        0.000
     23 H          -0.3459    2.2994   -0.8898 H.spc      1 <1>        0.000
     24 H          -0.5778   -3.2283    0.4405 H.spc      1 <1>        0.000
     25 H           1.3437   -3.0018   -3.1719 H.spc      1 <1>        0.000
     26 H           3.3725   -3.8165    1.1500 H.spc      1 <1>        0.000
     27 H           4.1153   -1.4026   -0.4522 H.spc      1 <1>        0.000
     28 H           1.6830   -1.1389   -4.6881 H.spc      1 <1>        0.000
     29 H           4.5559    0.4931   -1.9602 H.spc      1 <1>        0.000
     30 H           3.2759    0.6623   -4.0854 H.spc      1 <1>        0.000
@<TRIPOS>BOND
     1    2    5 1  
     2    2    4 ar 
     3    3    6 ar 
     4   17   19 ar 
     5    4    7 ar 
     6    6    7 ar 
     7    9   11 2  
     8   10   12 1  
     9   16   18 ar 
    10   12   15 2  
    11    9   10 am 
    12   13   16 ar 
    13    7    9 1  
    14   12   14 2  
    15   12   13 1  
    16   18   19 ar 
    17    8   17 ar 
    18   13    8 ar 
    19    1    3 ar 
    20    1    2 ar 
    21    1   20 1  
    22    3   21 1  
    23    4   22 1  
    24    5   23 1  
    25    6   24 1  
    26    8   25 1  
    27   10   26 1  
    28   16   27 1  
    29   17   28 1  
    30   18   29 1  
    31   19   30 1  
# Name:          frag5-677-62/138278 -- energy: -2.914203
# Creation time: Sat Jun  5 12:51:53 2010


@<TRIPOS>MOLECULE
frag5-677-62/138278 -- energy: -2.914203
   30    31     1     1     1
SMALL
USER_CHARGES


@<TRIPOS>ATOM
      1 C9         -0.9733    1.0600    1.5669 C.ar       1 <1>        0.000
      2 C12        -1.3114   -0.2328    1.9832 C.ar       1 <1>        0.000
      3 C13        -0.0432    1.4049    0.5754 C.ar       1 <1>        0.000
      4 C15        -0.6824   -1.1846    1.1959 C.ar       1 <1>        0.000
      5 O1         -2.1554   -0.5133    2.9628 O.3        1 <1>        0.000
      6 C16         0.6149    0.4037   -0.0817 C.ar       1 <1>        0.000
      7 C17         0.2367   -0.8782    0.2062 C.ar       1 <1>        0.000
      8 C26         3.0445   -3.2270   -3.2210 C.ar       1 <1>        0.000
      9 C20         0.8374   -1.9556   -0.5123 C.2        1 <1>        0.000
     10 N3          2.0127   -2.4142    0.0015 N.am       1 <1>        0.000
     11 O4          0.3328   -2.4154   -1.5015 O.2        1 <1>        0.000
     12 S1          2.9606   -3.5513   -0.5115 S.o2       1 <1>        0.000
     13 C25         3.5318   -2.8511   -1.9670 C.ar       1 <1>        0.000
     14 O5          4.0137   -3.5951    0.4626 O.2        1 <1>        0.000
     15 O6          2.1081   -4.6728   -0.8252 O.2        1 <1>        0.000
     16 C27         4.3408   -1.7012   -2.0704 C.ar       1 <1>        0.000
     17 C28         3.5311   -2.7874   -4.4430 C.ar       1 <1>        0.000
     18 C30         4.9120   -1.2414   -3.2585 C.ar       1 <1>        0.000
     19 C31         4.4798   -1.7879   -4.4512 C.ar       1 <1>        0.000
     20 H          -1.4855    1.8835    2.0644 H.spc      1 <1>        0.000
     21 H           0.1507    2.4500    0.3340 H.spc      1 <1>        0.000
     22 H          -0.9249   -2.2337    1.3653 H.spc      1 <1>        0.000
     23 H          -2.4616    0.3035    3.3635 H.spc      1 <1>        0.000
     24 H           1.4047    0.6172   -0.8019 H.spc      1 <1>        0.000
     25 H           2.2090   -3.9268   -3.2408 H.spc      1 <1>        0.000
     26 H           2.3238   -1.9446    0.8519 H.spc      1 <1>        0.000
     27 H           4.5335   -1.1323   -1.1608 H.spc      1 <1>        0.000
     28 H           3.1715   -3.2224   -5.3755 H.spc      1 <1>        0.000
     29 H           5.6811   -0.4691   -3.2452 H.spc      1 <1>        0.000
     30 H           4.8880   -1.4296   -5.3962 H.spc      1 <1>        0.000
@<TRIPOS>BOND
     1    2    5 1  
     2    2    4 ar 
     3    3    6 ar 
     4   17   19 ar 
     5    4    7 ar 
     6    6    7 ar 
     7    9   11 2  
     8   10   12 1  
     9   16   18 ar 
    10   12   15 2  
    11    9   10 am 
    12   13   16 ar 
    13    7    9 1  
    14   12   14 2  
    15   12   13 1  
    16   18   19 ar 
    17    8   17 ar 
    18   13    8 ar 
    19    1    3 ar 
    20    1    2 ar 
    21    1   20 1  
    22    3   21 1  
    23    4   22 1  
    24    5   23 1  
    25    6   24 1  
    26    8   25 1  
    27   10   26 1  
    28   16   27 1  
    29   17   28 1  
    30   18   29 1  
    31   19   30 1  
# Name:          frag5-677-62/138278 -- energy: -2.953455
# Creation time: Sat Jun  5 12:51:53 2010


@<TRIPOS>MOLECULE
frag5-677-62/138278 -- energy: -2.953455
   30    31     1     1     1
SMALL
USER_CHARGES


@<TRIPOS>ATOM
      1 C9         -1.7246    0.1008    1.5740 C.ar       1 <1>        0.000
      2 C12        -1.2809    0.4182    0.2828 C.ar       1 <1>        0.000
      3 C13        -1.1997   -0.8810    2.4298 C.ar       1 <1>        0.000
      4 C15        -0.1518   -0.3106   -0.0337 C.ar       1 <1>        0.000
      5 O1         -1.8359    1.3289   -0.5019 O.3        1 <1>        0.000
      6 C16        -0.1397   -1.6191    2.0025 C.ar       1 <1>        0.000
      7 C17         0.4019   -1.2761    0.7974 C.ar       1 <1>        0.000
      8 C26         2.8427   -1.6624   -3.0309 C.ar       1 <1>        0.000
      9 C20         1.5446   -2.0091    0.3618 C.2        1 <1>        0.000
     10 N3          1.3494   -2.8821   -0.6684 N.am       1 <1>        0.000
     11 O4          2.6182   -1.8413    0.9036 O.2        1 <1>        0.000
     12 S1          2.3816   -3.8559   -1.3361 S.o2       1 <1>        0.000
     13 C25         3.3235   -2.6978   -2.1842 C.ar       1 <1>        0.000
     14 O5          3.1225   -4.4525   -0.2616 O.2        1 <1>        0.000
     15 O6          1.6651   -4.6425   -2.3204 O.2        1 <1>        0.000
     16 C27         4.6768   -2.5246   -1.9287 C.ar       1 <1>        0.000
     17 C28         3.6469   -0.7761   -3.7541 C.ar       1 <1>        0.000
     18 C30         5.5384   -1.7284   -2.6595 C.ar       1 <1>        0.000
     19 C31         5.0124   -0.8293   -3.5617 C.ar       1 <1>        0.000
     20 H          -2.5674    0.6779    1.9545 H.spc      1 <1>        0.000
     21 H          -1.6326   -1.0483    3.4161 H.spc      1 <1>        0.000
     22 H           0.3329   -0.1173   -0.9906 H.spc      1 <1>        0.000
     23 H          -2.6075    1.6979   -0.0660 H.spc      1 <1>        0.000
     24 H           0.2577   -2.4441    2.5937 H.spc      1 <1>        0.000
     25 H           1.7624   -1.5505   -3.1238 H.spc      1 <1>        0.000
     26 H           0.4062   -2.9044   -1.0561 H.spc      1 <1>        0.000
     27 H           5.0961   -3.0628   -1.0786 H.spc      1 <1>        0.000
     28 H           3.2072   -0.0625   -4.4509 H.spc      1 <1>        0.000
     29 H           6.6169   -1.8104   -2.5243 H.spc      1 <1>        0.000
     30 H           5.6710   -0.1641   -4.1201 H.spc      1 <1>        0.000
@<TRIPOS>BOND
     1    2    5 1  
     2    2    4 ar 
     3    3    6 ar 
     4   17   19 ar 
     5    4    7 ar 
     6    6    7 ar 
     7    9   11 2  
     8   10   12 1  
     9   16   18 ar 
    10   12   15 2  
    11    9   10 am 
    12   13   16 ar 
    13    7    9 1  
    14   12   14 2  
    15   12   13 1  
    16   18   19 ar 
    17    8   17 ar 
    18   13    8 ar 
    19    1    3 ar 
    20    1    2 ar 
    21    1   20 1  
    22    3   21 1  
    23    4   22 1  
    24    5   23 1  
    25    6   24 1  
    26    8   25 1  
    27   10   26 1  
    28   16   27 1  
    29   17   28 1  
    30   18   29 1  
    31   19   30 1  
# Name:          frag5-677-62/138278 -- energy: -3.022011
# Creation time: Sat Jun  5 12:51:53 2010


@<TRIPOS>MOLECULE
frag5-677-62/138278 -- energy: -3.022011
   30    31     1     1     1
SMALL
USER_CHARGES


@<TRIPOS>ATOM
      1 C9         -0.4237    1.2252    1.4996 C.ar       1 <1>        0.000
      2 C12        -1.3771    0.1982    1.4577 C.ar       1 <1>        0.000
      3 C13         0.8980    1.1667    1.0411 C.ar       1 <1>        0.000
      4 C15        -0.8857   -0.8954    0.7800 C.ar       1 <1>        0.000
      5 O1         -2.6016    0.2747    1.9431 O.3        1 <1>        0.000
      6 C16         1.3389   -0.0043    0.4878 C.ar       1 <1>        0.000
      7 C17         0.4165   -1.0214    0.3397 C.ar       1 <1>        0.000
      8 C26         2.8609   -3.0364   -3.2419 C.ar       1 <1>        0.000
      9 C20         0.7584   -2.2831   -0.2455 C.2        1 <1>        0.000
     10 N3          1.9687   -2.7975    0.1096 N.am       1 <1>        0.000
     11 O4          0.0543   -2.8135   -1.0708 O.2        1 <1>        0.000
     12 S1          2.8955   -3.8231   -0.6221 S.o2       1 <1>        0.000
     13 C25         3.3995   -2.8772   -1.9621 C.ar       1 <1>        0.000
     14 O5          3.9964   -4.0094    0.2857 O.2        1 <1>        0.000
     15 O6          2.0547   -4.8953   -1.0931 O.2        1 <1>        0.000
     16 C27         4.1946   -1.7123   -1.9082 C.ar       1 <1>        0.000
     17 C28         3.2947   -2.3935   -4.3928 C.ar       1 <1>        0.000
     18 C30         4.7126   -1.0496   -3.0237 C.ar       1 <1>        0.000
     19 C31         4.2357   -1.3939   -4.2731 C.ar       1 <1>        0.000
     20 H          -0.7459    2.1707    1.9359 H.spc      1 <1>        0.000
     21 H           1.5577    2.0306    1.1228 H.spc      1 <1>        0.000
     22 H          -1.5720   -1.7177    0.5775 H.spc      1 <1>        0.000
     23 H          -2.7216    1.1245    2.3733 H.spc      1 <1>        0.000
     24 H           2.3760   -0.1294    0.1765 H.spc      1 <1>        0.000
     25 H           2.0247   -3.7279   -3.3454 H.spc      1 <1>        0.000
     26 H           2.3306   -2.4574    1.0005 H.spc      1 <1>        0.000
     27 H           4.4209   -1.2998   -0.9250 H.spc      1 <1>        0.000
     28 H           2.8999   -2.6730   -5.3696 H.spc      1 <1>        0.000
     29 H           5.4751   -0.2790   -2.9105 H.spc      1 <1>        0.000
     30 H           4.6018   -0.8774   -5.1604 H.spc      1 <1>        0.000
@<TRIPOS>BOND
     1    2    5 1  
     2    2    4 ar 
     3    3    6 ar 
     4   17   19 ar 
     5    4    7 ar 
     6    6    7 ar 
     7    9   11 2  
     8   10   12 1  
     9   16   18 ar 
    10   12   15 2  
    11    9   10 am 
    12   13   16 ar 
    13    7    9 1  
    14   12   14 2  
    15   12   13 1  
    16   18   19 ar 
    17    8   17 ar 
    18   13    8 ar 
    19    1    3 ar 
    20    1    2 ar 
    21    1   20 1  
    22    3   21 1  
    23    4   22 1  
    24    5   23 1  
    25    6   24 1  
    26    8   25 1  
    27   10   26 1  
    28   16   27 1  
    29   17   28 1  
    30   18   29 1  
    31   19   30 1  
# Name:          frag5-677-62/138278 -- energy: -1.992476
# Creation time: Sat Jun  5 12:51:53 2010


@<TRIPOS>MOLECULE
frag5-677-62/138278 -- energy: -1.992476
   30    31     1     1     1
SMALL
USER_CHARGES


@<TRIPOS>ATOM
      1 C9         -0.9668    0.3283    2.4161 C.ar       1 <1>        0.000
      2 C12        -1.7570   -0.0014    1.3054 C.ar       1 <1>        0.000
      3 C13         0.3836    0.0186    2.6070 C.ar       1 <1>        0.000
      4 C15        -0.9963   -0.6002    0.3215 C.ar       1 <1>        0.000
      5 O1         -3.0439    0.2719    1.1880 O.3        1 <1>        0.000
      6 C16         1.0316   -0.6759    1.6288 C.ar       1 <1>        0.000
      7 C17         0.3475   -0.9108    0.4605 C.ar       1 <1>        0.000
      8 C26         4.7459   -2.4015   -1.7139 C.ar       1 <1>        0.000
      9 C20         0.9776   -1.5828   -0.6317 C.2        1 <1>        0.000
     10 N3          1.8130   -2.6019   -0.2841 N.am       1 <1>        0.000
     11 O4          0.7343   -1.3150   -1.7813 O.2        1 <1>        0.000
     12 S1          2.4172   -3.7549   -1.1493 S.o2       1 <1>        0.000
     13 C25         3.4921   -2.8665   -2.1329 C.ar       1 <1>        0.000
     14 O5          3.1365   -4.5439   -0.1833 O.2        1 <1>        0.000
     15 O6          1.3392   -4.2636   -1.9610 O.2        1 <1>        0.000
     16 C27         3.1244   -2.2618   -3.3465 C.ar       1 <1>        0.000
     17 C28         5.7000   -1.8552   -2.5657 C.ar       1 <1>        0.000
     18 C30         4.0023   -1.6514   -4.2321 C.ar       1 <1>        0.000
     19 C31         5.3099   -1.4728   -3.8344 C.ar       1 <1>        0.000
     20 H          -1.4569    0.8847    3.2150 H.spc      1 <1>        0.000
     21 H           0.9046    0.3245    3.5143 H.spc      1 <1>        0.000
     22 H          -1.4823   -0.8439   -0.6232 H.spc      1 <1>        0.000
     23 H          -3.3570    0.6856    1.9957 H.spc      1 <1>        0.000
     24 H           2.0527   -1.0310    1.7682 H.spc      1 <1>        0.000
     25 H           4.9887   -2.4724   -0.6536 H.spc      1 <1>        0.000
     26 H           2.0880   -2.6142    0.6980 H.spc      1 <1>        0.000
     27 H           2.0677   -2.2727   -3.6136 H.spc      1 <1>        0.000
     28 H           6.7326   -1.7316   -2.2394 H.spc      1 <1>        0.000
     29 H           3.6665   -1.3223   -5.2155 H.spc      1 <1>        0.000
     30 H           6.0340   -1.0311   -4.5190 H.spc      1 <1>        0.000
@<TRIPOS>BOND
     1    2    5 1  
     2    2    4 ar 
     3    3    6 ar 
     4   17   19 ar 
     5    4    7 ar 
     6    6    7 ar 
     7    9   11 2  
     8   10   12 1  
     9   16   18 ar 
    10   12   15 2  
    11    9   10 am 
    12   13   16 ar 
    13    7    9 1  
    14   12   14 2  
    15   12   13 1  
    16   18   19 ar 
    17    8   17 ar 
    18   13    8 ar 
    19    1    3 ar 
    20    1    2 ar 
    21    1   20 1  
    22    3   21 1  
    23    4   22 1  
    24    5   23 1  
    25    6   24 1  
    26    8   25 1  
    27   10   26 1  
    28   16   27 1  
    29   17   28 1  
    30   18   29 1  
    31   19   30 1  
# Name:          frag5-677-62/138278 -- energy: -3.183788
# Creation time: Sat Jun  5 12:51:54 2010


@<TRIPOS>MOLECULE
frag5-677-62/138278 -- energy: -3.183788
   30    31     1     1     1
SMALL
USER_CHARGES


@<TRIPOS>ATOM
      1 C9         -2.0150   -1.4808    1.9056 C.ar       1 <1>        0.000
      2 C12        -0.8476   -1.2565    2.6392 C.ar       1 <1>        0.000
      3 C13        -2.1608   -1.3498    0.5244 C.ar       1 <1>        0.000
      4 C15         0.2363   -0.9783    1.7828 C.ar       1 <1>        0.000
      5 O1         -0.7648   -1.3443    3.9632 O.3        1 <1>        0.000
      6 C16        -1.0512   -0.9761   -0.2230 C.ar       1 <1>        0.000
      7 C17         0.1634   -0.6947    0.4003 C.ar       1 <1>        0.000
      8 C26         4.7384   -2.8449   -1.9650 C.ar       1 <1>        0.000
      9 C20         1.3145   -0.1127   -0.3303 C.2        1 <1>        0.000
     10 N3          2.0734   -0.8957   -1.1241 N.am       1 <1>        0.000
     11 O4          1.6302    1.0578   -0.2115 O.2        1 <1>        0.000
     12 S1          2.1382   -2.4637   -1.3645 S.o2       1 <1>        0.000
     13 C25         3.4581   -2.5730   -2.4144 C.ar       1 <1>        0.000
     14 O5          2.4603   -2.9743   -0.0641 O.2        1 <1>        0.000
     15 O6          0.9334   -2.8062   -2.0912 O.2        1 <1>        0.000
     16 C27         3.4700   -2.1034   -3.7370 C.ar       1 <1>        0.000
     17 C28         5.8076   -3.1519   -2.7995 C.ar       1 <1>        0.000
     18 C30         4.5192   -2.3211   -4.6347 C.ar       1 <1>        0.000
     19 C31         5.6879   -2.8712   -4.1453 C.ar       1 <1>        0.000
     20 H          -2.8975   -1.7879    2.4667 H.spc      1 <1>        0.000
     21 H          -3.1212   -1.5360    0.0438 H.spc      1 <1>        0.000
     22 H           1.2297   -0.9822    2.2313 H.spc      1 <1>        0.000
     23 H          -1.6321   -1.5415    4.3246 H.spc      1 <1>        0.000
     24 H          -1.1311   -0.9022   -1.3076 H.spc      1 <1>        0.000
     25 H           4.9200   -2.8167   -0.8906 H.spc      1 <1>        0.000
     26 H           2.7445   -0.3722   -1.6862 H.spc      1 <1>        0.000
     27 H           2.6083   -1.5341   -4.0855 H.spc      1 <1>        0.000
     28 H           6.7166   -3.6025   -2.4010 H.spc      1 <1>        0.000
     29 H           4.4181   -2.0645   -5.6892 H.spc      1 <1>        0.000
     30 H           6.5155   -3.0836   -4.8221 H.spc      1 <1>        0.000
@<TRIPOS>BOND
     1    2    5 1  
     2    2    4 ar 
     3    3    6 ar 
     4   17   19 ar 
     5    4    7 ar 
     6    6    7 ar 
     7    9   11 2  
     8   10   12 1  
     9   16   18 ar 
    10   12   15 2  
    11    9   10 am 
    12   13   16 ar 
    13    7    9 1  
    14   12   14 2  
    15   12   13 1  
    16   18   19 ar 
    17    8   17 ar 
    18   13    8 ar 
    19    1    3 ar 
    20    1    2 ar 
    21    1   20 1  
    22    3   21 1  
    23    4   22 1  
    24    5   23 1  
    25    6   24 1  
    26    8   25 1  
    27   10   26 1  
    28   16   27 1  
    29   17   28 1  
    30   18   29 1  
    31   19   30 1  
# Name:          frag5-677-62/138278 -- energy: -2.972367
# Creation time: Sat Jun  5 12:51:54 2010


@<TRIPOS>MOLECULE
frag5-677-62/138278 -- energy: -2.972367
   30    31     1     1     1
SMALL
USER_CHARGES


@<TRIPOS>ATOM
      1 C9          0.3343    0.8558    1.2010 C.ar       1 <1>        0.000
      2 C12        -0.4624    0.6012    0.0830 C.ar       1 <1>        0.000
      3 C13         1.1869   -0.0366    1.8257 C.ar       1 <1>        0.000
      4 C15        -0.2134   -0.6696   -0.4372 C.ar       1 <1>        0.000
      5 O1         -1.3062    1.4798   -0.4488 O.3        1 <1>        0.000
      6 C16         1.2324   -1.3171    1.3119 C.ar       1 <1>        0.000
      7 C17         0.4748   -1.7173    0.1988 C.ar       1 <1>        0.000
      8 C26         2.3385   -2.5211   -2.8163 C.ar       1 <1>        0.000
      9 C20         0.3845   -3.1036   -0.3620 C.2        1 <1>        0.000
     10 N3          1.4626   -3.9490   -0.2919 N.am       1 <1>        0.000
     11 O4         -0.6004   -3.4675   -0.9902 O.2        1 <1>        0.000
     12 S1          3.0412   -3.7131   -0.3327 S.o2       1 <1>        0.000
     13 C25         3.1073   -2.5642   -1.6041 C.ar       1 <1>        0.000
     14 O5          3.3699   -3.1456    0.9422 O.2        1 <1>        0.000
     15 O6          3.6709   -4.9219   -0.7955 O.2        1 <1>        0.000
     16 C27         3.8271   -1.3962   -1.4604 C.ar       1 <1>        0.000
     17 C28         2.4811   -1.5630   -3.8347 C.ar       1 <1>        0.000
     18 C30         4.0821   -0.4564   -2.4481 C.ar       1 <1>        0.000
     19 C31         3.3802   -0.5353   -3.6299 C.ar       1 <1>        0.000
     20 H           0.2789    1.8588    1.6242 H.spc      1 <1>        0.000
     21 H           1.7935    0.2571    2.6823 H.spc      1 <1>        0.000
     22 H          -0.5914   -0.8703   -1.4397 H.spc      1 <1>        0.000
     23 H          -1.3099    2.2798    0.0818 H.spc      1 <1>        0.000
     24 H           1.8838   -2.0486    1.7902 H.spc      1 <1>        0.000
     25 H           1.5832   -3.2941   -2.9581 H.spc      1 <1>        0.000
     26 H           1.2021   -4.9303   -0.1935 H.spc      1 <1>        0.000
     27 H           4.2366   -1.1913   -0.4713 H.spc      1 <1>        0.000
     28 H           1.9013   -1.6290   -4.7554 H.spc      1 <1>        0.000
     29 H           4.8226    0.3281   -2.2920 H.spc      1 <1>        0.000
     30 H           3.5346    0.2150   -4.4054 H.spc      1 <1>        0.000
@<TRIPOS>BOND
     1    2    5 1  
     2    2    4 ar 
     3    3    6 ar 
     4   17   19 ar 
     5    4    7 ar 
     6    6    7 ar 
     7    9   11 2  
     8   10   12 1  
     9   16   18 ar 
    10   12   15 2  
    11    9   10 am 
    12   13   16 ar 
    13    7    9 1  
    14   12   14 2  
    15   12   13 1  
    16   18   19 ar 
    17    8   17 ar 
    18   13    8 ar 
    19    1    3 ar 
    20    1    2 ar 
    21    1   20 1  
    22    3   21 1  
    23    4   22 1  
    24    5   23 1  
    25    6   24 1  
    26    8   25 1  
    27   10   26 1  
    28   16   27 1  
    29   17   28 1  
    30   18   29 1  
    31   19   30 1  
# Name:          frag5-677-62/138278 -- energy: -4.827670
# Creation time: Sat Jun  5 12:51:54 2010


@<TRIPOS>MOLECULE
frag5-677-62/138278 -- energy: -4.827670
   30    31     1     1     1
SMALL
USER_CHARGES


@<TRIPOS>ATOM
      1 C9         -0.1793    0.5456    1.5073 C.ar       1 <1>        0.000
      2 C12        -0.1736    0.6701    0.1163 C.ar       1 <1>        0.000
      3 C13         0.0409   -0.6268    2.2313 C.ar       1 <1>        0.000
      4 C15         0.2077   -0.5338   -0.4974 C.ar       1 <1>        0.000
      5 O1         -0.4553    1.7960   -0.5315 O.3        1 <1>        0.000
      6 C16         0.3248   -1.7863    1.5318 C.ar       1 <1>        0.000
      7 C17         0.3210   -1.7895    0.1380 C.ar       1 <1>        0.000
      8 C26         2.9667   -2.7107   -2.9582 C.ar       1 <1>        0.000
      9 C20         0.4285   -3.0545   -0.6189 C.2        1 <1>        0.000
     10 N3          1.4803   -3.8904   -0.3992 N.am       1 <1>        0.000
     11 O4         -0.3344   -3.3077   -1.5388 O.2        1 <1>        0.000
     12 S1          3.0391   -3.5985   -0.2979 S.o2       1 <1>        0.000
     13 C25         3.2279   -2.4775   -1.5794 C.ar       1 <1>        0.000
     14 O5          3.1625   -2.9636    0.9890 O.2        1 <1>        0.000
     15 O6          3.7141   -4.8079   -0.6819 O.2        1 <1>        0.000
     16 C27         3.4458   -1.1241   -1.3501 C.ar       1 <1>        0.000
     17 C28         3.2066   -1.7905   -3.9900 C.ar       1 <1>        0.000
     18 C30         3.7549   -0.1747   -2.3157 C.ar       1 <1>        0.000
     19 C31         3.6131   -0.5162   -3.6438 C.ar       1 <1>        0.000
     20 H          -0.3744    1.4508    2.0824 H.spc      1 <1>        0.000
     21 H          -0.0095   -0.6291    3.3201 H.spc      1 <1>        0.000
     22 H           0.4373   -0.4954   -1.5622 H.spc      1 <1>        0.000
     23 H          -0.6890    2.4784    0.1020 H.spc      1 <1>        0.000
     24 H           0.5530   -2.7036    2.0745 H.spc      1 <1>        0.000
     25 H           2.5481   -3.6785   -3.2344 H.spc      1 <1>        0.000
     26 H           1.2244   -4.8705   -0.2792 H.spc      1 <1>        0.000
     27 H           3.3670   -0.7765   -0.3200 H.spc      1 <1>        0.000
     28 H           3.0760   -2.0729   -5.0347 H.spc      1 <1>        0.000
     29 H           4.1019    0.8183   -2.0298 H.spc      1 <1>        0.000
     30 H           3.8217    0.2192   -4.4208 H.spc      1 <1>        0.000
@<TRIPOS>BOND
     1    2    5 1  
     2    2    4 ar 
     3    3    6 ar 
     4   17   19 ar 
     5    4    7 ar 
     6    6    7 ar 
     7    9   11 2  
     8   10   12 1  
     9   16   18 ar 
    10   12   15 2  
    11    9   10 am 
    12   13   16 ar 
    13    7    9 1  
    14   12   14 2  
    15   12   13 1  
    16   18   19 ar 
    17    8   17 ar 
    18   13    8 ar 
    19    1    3 ar 
    20    1    2 ar 
    21    1   20 1  
    22    3   21 1  
    23    4   22 1  
    24    5   23 1  
    25    6   24 1  
    26    8   25 1  
    27   10   26 1  
    28   16   27 1  
    29   17   28 1  
    30   18   29 1  
    31   19   30 1  
# Name:          frag5-677-62/138278 -- energy: -2.978059
# Creation time: Sat Jun  5 12:51:54 2010


@<TRIPOS>MOLECULE
frag5-677-62/138278 -- energy: -2.978059
   30    31     1     1     1
SMALL
USER_CHARGES


@<TRIPOS>ATOM
      1 C9         -1.4078    0.3417    1.7425 C.ar       1 <1>        0.000
      2 C12        -0.2527    0.8679    1.1468 C.ar       1 <1>        0.000
      3 C13        -1.8609   -0.9823    1.6689 C.ar       1 <1>        0.000
      4 C15         0.4809   -0.1349    0.5332 C.ar       1 <1>        0.000
      5 O1          0.1286    2.1337    1.2266 O.3        1 <1>        0.000
      6 C16        -1.1291   -1.8840    0.9555 C.ar       1 <1>        0.000
      7 C17        -0.0080   -1.4206    0.3301 C.ar       1 <1>        0.000
      8 C26         3.2692   -3.0341   -3.2081 C.ar       1 <1>        0.000
      9 C20         0.7336   -2.3749   -0.4331 C.2        1 <1>        0.000
     10 N3          1.9547   -2.7200    0.0634 N.am       1 <1>        0.000
     11 O4          0.2935   -2.8318   -1.4554 O.2        1 <1>        0.000
     12 S1          3.0798   -3.6145   -0.5581 S.o2       1 <1>        0.000
     13 C25         3.5339   -2.6440   -1.8981 C.ar       1 <1>        0.000
     14 O5          4.1260   -3.6137    0.4222 O.2        1 <1>        0.000
     15 O6          2.4265   -4.8119   -1.0319 O.2        1 <1>        0.000
     16 C27         3.9820   -1.3033   -1.8580 C.ar       1 <1>        0.000
     17 C28         3.6832   -2.3730   -4.3525 C.ar       1 <1>        0.000
     18 C30         4.4657   -0.5967   -2.9635 C.ar       1 <1>        0.000
     19 C31         4.2922   -1.1444   -4.2197 C.ar       1 <1>        0.000
     20 H          -2.0167    1.0346    2.3233 H.spc      1 <1>        0.000
     21 H          -2.7795   -1.2847    2.1717 H.spc      1 <1>        0.000
     22 H           1.4905    0.0955    0.1931 H.spc      1 <1>        0.000
     23 H          -0.5400    2.6392    1.6947 H.spc      1 <1>        0.000
     24 H          -1.4265   -2.9304    0.8873 H.spc      1 <1>        0.000
     25 H           2.6827   -3.9425   -3.3456 H.spc      1 <1>        0.000
     26 H           2.1695   -2.3357    0.9835 H.spc      1 <1>        0.000
     27 H           3.9480   -0.7852   -0.8996 H.spc      1 <1>        0.000
     28 H           3.5305   -2.8152   -5.3370 H.spc      1 <1>        0.000
     29 H           4.9673    0.3627   -2.8371 H.spc      1 <1>        0.000
     30 H           4.6360   -0.6063   -5.1030 H.spc      1 <1>        0.000
@<TRIPOS>BOND
     1    2    5 1  
     2    2    4 ar 
     3    3    6 ar 
     4   17   19 ar 
     5    4    7 ar 
     6    6    7 ar 
     7    9   11 2  
     8   10   12 1  
     9   16   18 ar 
    10   12   15 2  
    11    9   10 am 
    12   13   16 ar 
    13    7    9 1  
    14   12   14 2  
    15   12   13 1  
    16   18   19 ar 
    17    8   17 ar 
    18   13    8 ar 
    19    1    3 ar 
    20    1    2 ar 
    21    1   20 1  
    22    3   21 1  
    23    4   22 1  
    24    5   23 1  
    25    6   24 1  
    26    8   25 1  
    27   10   26 1  
    28   16   27 1  
    29   17   28 1  
    30   18   29 1  
    31   19   30 1  
# Name:          frag5-677-62/138278 -- energy: -2.485107
# Creation time: Sat Jun  5 12:51:54 2010


@<TRIPOS>MOLECULE
frag5-677-62/138278 -- energy: -2.485107
   30    31     1     1     1
SMALL
USER_CHARGES


@<TRIPOS>ATOM
      1 C9         -1.6400    0.6183    1.4463 C.ar       1 <1>        0.000
      2 C12        -0.7059   -0.0270    2.2644 C.ar       1 <1>        0.000
      3 C13        -1.7685    0.4955    0.0585 C.ar       1 <1>        0.000
      4 C15         0.0638   -0.9096    1.5196 C.ar       1 <1>        0.000
      5 O1         -0.6247    0.1407    3.5733 O.3        1 <1>        0.000
      6 C16        -0.9113   -0.3198   -0.6101 C.ar       1 <1>        0.000
      7 C17        -0.0085   -1.0299    0.1262 C.ar       1 <1>        0.000
      8 C26         4.2857   -1.5220   -2.2909 C.ar       1 <1>        0.000
      9 C20         0.8619   -1.8905   -0.6046 C.2        1 <1>        0.000
     10 N3          2.0951   -2.0813   -0.0642 N.am       1 <1>        0.000
     11 O4          0.5085   -2.4655   -1.6123 O.2        1 <1>        0.000
     12 S1          3.1726   -3.1734   -0.3585 S.o2       1 <1>        0.000
     13 C25         3.6491   -2.7288   -1.9344 C.ar       1 <1>        0.000
     14 O5          4.2144   -2.8857    0.5906 O.2        1 <1>        0.000
     15 O6          2.4546   -4.4272   -0.4039 O.2        1 <1>        0.000
     16 C27         3.1882   -3.3904   -3.0770 C.ar       1 <1>        0.000
     17 C28         4.8253   -1.2655   -3.5508 C.ar       1 <1>        0.000
     18 C30         3.6437   -3.1724   -4.3674 C.ar       1 <1>        0.000
     19 C31         4.4874   -2.1063   -4.5937 C.ar       1 <1>        0.000
     20 H          -2.3422    1.2878    1.9431 H.spc      1 <1>        0.000
     21 H          -2.5430    1.0444   -0.4772 H.spc      1 <1>        0.000
     22 H           0.7682   -1.5487    2.0521 H.spc      1 <1>        0.000
     23 H          -1.2598    0.8054    3.8496 H.spc      1 <1>        0.000
     24 H          -0.9438   -0.4035   -1.6964 H.spc      1 <1>        0.000
     25 H           4.3606   -0.7409   -1.5343 H.spc      1 <1>        0.000
     26 H           2.3593   -1.4013    0.6487 H.spc      1 <1>        0.000
     27 H           2.4071   -4.1384   -2.9415 H.spc      1 <1>        0.000
     28 H           5.4974   -0.4221   -3.7090 H.spc      1 <1>        0.000
     29 H           3.3420   -3.8284   -5.1840 H.spc      1 <1>        0.000
     30 H           4.8867   -1.9271   -5.5920 H.spc      1 <1>        0.000
@<TRIPOS>BOND
     1    2    5 1  
     2    2    4 ar 
     3    3    6 ar 
     4   17   19 ar 
     5    4    7 ar 
     6    6    7 ar 
     7    9   11 2  
     8   10   12 1  
     9   16   18 ar 
    10   12   15 2  
    11    9   10 am 
    12   13   16 ar 
    13    7    9 1  
    14   12   14 2  
    15   12   13 1  
    16   18   19 ar 
    17    8   17 ar 
    18   13    8 ar 
    19    1    3 ar 
    20    1    2 ar 
    21    1   20 1  
    22    3   21 1  
    23    4   22 1  
    24    5   23 1  
    25    6   24 1  
    26    8   25 1  
    27   10   26 1  
    28   16   27 1  
    29   17   28 1  
    30   18   29 1  
    31   19   30 1  
# Name:          frag5-677-62/138278 -- energy: -4.518834
# Creation time: Sat Jun  5 12:51:54 2010


@<TRIPOS>MOLECULE
frag5-677-62/138278 -- energy: -4.518834
   30    31     1     1     1
SMALL
USER_CHARGES


@<TRIPOS>ATOM
      1 C9         -1.0703    0.3481   -0.2678 C.ar       1 <1>        0.000
      2 C12        -0.2345    0.4600    0.8448 C.ar       1 <1>        0.000
      3 C13        -1.1507   -0.7435   -1.1352 C.ar       1 <1>        0.000
      4 C15         0.4544   -0.7474    1.0656 C.ar       1 <1>        0.000
      5 O1         -0.1315    1.5392    1.6163 O.3        1 <1>        0.000
      6 C16        -0.3353   -1.8398   -0.8942 C.ar       1 <1>        0.000
      7 C17         0.4440   -1.9148    0.2556 C.ar       1 <1>        0.000
      8 C26         3.0969   -3.2986   -2.4960 C.ar       1 <1>        0.000
      9 C20         1.1710   -3.1788    0.5892 C.2        1 <1>        0.000
     10 N3          2.5320   -3.2445    0.5083 N.am       1 <1>        0.000
     11 O4          0.5401   -4.1770    0.9066 O.2        1 <1>        0.000
     12 S1          3.6731   -2.2459    0.0313 S.o2       1 <1>        0.000
     13 C25         3.2954   -2.1907   -1.6292 C.ar       1 <1>        0.000
     14 O5          3.3466   -1.0021    0.6868 O.2        1 <1>        0.000
     15 O6          4.9429   -2.8832    0.1986 O.2        1 <1>        0.000
     16 C27         2.9139   -1.0174   -2.2514 C.ar       1 <1>        0.000
     17 C28         2.8617   -3.2099   -3.8758 C.ar       1 <1>        0.000
     18 C30         2.7452   -0.8402   -3.6162 C.ar       1 <1>        0.000
     19 C31         2.6965   -1.9544   -4.4263 C.ar       1 <1>        0.000
     20 H          -1.7233    1.1946   -0.4800 H.spc      1 <1>        0.000
     21 H          -1.8377   -0.7344   -1.9814 H.spc      1 <1>        0.000
     22 H           1.0689   -0.7922    1.9648 H.spc      1 <1>        0.000
     23 H          -0.6930    2.2353    1.2675 H.spc      1 <1>        0.000
     24 H          -0.3049   -2.6550   -1.6171 H.spc      1 <1>        0.000
     25 H           3.1299   -4.2947   -2.0546 H.spc      1 <1>        0.000
     26 H           2.9017   -4.1401    0.8272 H.spc      1 <1>        0.000
     27 H           2.7291   -0.1540   -1.6122 H.spc      1 <1>        0.000
     28 H           2.8108   -4.1054   -4.4952 H.spc      1 <1>        0.000
     29 H           2.6530    0.1598   -4.0399 H.spc      1 <1>        0.000
     30 H           2.5282   -1.8448   -5.4976 H.spc      1 <1>        0.000
@<TRIPOS>BOND
     1    2    5 1  
     2    2    4 ar 
     3    3    6 ar 
     4   17   19 ar 
     5    4    7 ar 
     6    6    7 ar 
     7    9   11 2  
     8   10   12 1  
     9   16   18 ar 
    10   12   15 2  
    11    9   10 am 
    12   13   16 ar 
    13    7    9 1  
    14   12   14 2  
    15   12   13 1  
    16   18   19 ar 
    17    8   17 ar 
    18   13    8 ar 
    19    1    3 ar 
    20    1    2 ar 
    21    1   20 1  
    22    3   21 1  
    23    4   22 1  
    24    5   23 1  
    25    6   24 1  
    26    8   25 1  
    27   10   26 1  
    28   16   27 1  
    29   17   28 1  
    30   18   29 1  
    31   19   30 1  
# Name:          frag5-677-62/138278 -- energy: -2.867837
# Creation time: Sat Jun  5 12:51:54 2010


@<TRIPOS>MOLECULE
frag5-677-62/138278 -- energy: -2.867837
   30    31     1     1     1
SMALL
USER_CHARGES


@<TRIPOS>ATOM
      1 C9         -2.2463   -1.1327    1.4855 C.ar       1 <1>        0.000
      2 C12        -1.5863    0.0399    1.1278 C.ar       1 <1>        0.000
      3 C13        -1.6837   -2.4100    1.5729 C.ar       1 <1>        0.000
      4 C15        -0.2090   -0.1972    0.9608 C.ar       1 <1>        0.000
      5 O1         -2.1726    1.2318    1.0059 O.3        1 <1>        0.000
      6 C16        -0.3304   -2.5520    1.2907 C.ar       1 <1>        0.000
      7 C17         0.4604   -1.4364    1.0519 C.ar       1 <1>        0.000
      8 C26         4.5789   -2.9640   -2.0139 C.ar       1 <1>        0.000
      9 C20         1.9327   -1.5187    0.9685 C.2        1 <1>        0.000
     10 N3          2.5079   -1.6780   -0.2313 N.am       1 <1>        0.000
     11 O4          2.6468   -1.4944    1.9604 O.2        1 <1>        0.000
     12 S1          1.9706   -2.0030   -1.6906 S.o2       1 <1>        0.000
     13 C25         3.4235   -2.3186   -2.5100 C.ar       1 <1>        0.000
     14 O5          1.2089   -3.2029   -1.5806 O.2        1 <1>        0.000
     15 O6          1.4030   -0.7622   -2.1660 O.2        1 <1>        0.000
     16 C27         3.6684   -1.7183   -3.7192 C.ar       1 <1>        0.000
     17 C28         5.6997   -3.2840   -2.7900 C.ar       1 <1>        0.000
     18 C30         4.7531   -1.9679   -4.5415 C.ar       1 <1>        0.000
     19 C31         5.7658   -2.7725   -4.0706 C.ar       1 <1>        0.000
     20 H          -3.3071   -1.0465    1.7208 H.spc      1 <1>        0.000
     21 H          -2.2901   -3.2708    1.8547 H.spc      1 <1>        0.000
     22 H           0.4089    0.6722    0.7363 H.spc      1 <1>        0.000
     23 H          -3.1150    1.1413    1.1649 H.spc      1 <1>        0.000
     24 H           0.1135   -3.5469    1.2566 H.spc      1 <1>        0.000
     25 H           4.5989   -3.2303   -0.9571 H.spc      1 <1>        0.000
     26 H           3.5211   -1.5649   -0.2006 H.spc      1 <1>        0.000
     27 H           2.9444   -0.9793   -4.0626 H.spc      1 <1>        0.000
     28 H           6.4947   -3.9168   -2.3955 H.spc      1 <1>        0.000
     29 H           4.8045   -1.5364   -5.5411 H.spc      1 <1>        0.000
     30 H           6.6188   -3.0055   -4.7079 H.spc      1 <1>        0.000
@<TRIPOS>BOND
     1    2    5 1  
     2    2    4 ar 
     3    3    6 ar 
     4   17   19 ar 
     5    4    7 ar 
     6    6    7 ar 
     7    9   11 2  
     8   10   12 1  
     9   16   18 ar 
    10   12   15 2  
    11    9   10 am 
    12   13   16 ar 
    13    7    9 1  
    14   12   14 2  
    15   12   13 1  
    16   18   19 ar 
    17    8   17 ar 
    18   13    8 ar 
    19    1    3 ar 
    20    1    2 ar 
    21    1   20 1  
    22    3   21 1  
    23    4   22 1  
    24    5   23 1  
    25    6   24 1  
    26    8   25 1  
    27   10   26 1  
    28   16   27 1  
    29   17   28 1  
    30   18   29 1  
    31   19   30 1  
# Name:          frag5-677-62/138278 -- energy: -2.880483
# Creation time: Sat Jun  5 12:51:54 2010


@<TRIPOS>MOLECULE
frag5-677-62/138278 -- energy: -2.880483
   30    31     1     1     1
SMALL
USER_CHARGES


@<TRIPOS>ATOM
      1 C9         -1.9616   -0.1696    1.5786 C.ar       1 <1>        0.000
      2 C12        -1.0991    0.7345    0.9451 C.ar       1 <1>        0.000
      3 C13        -1.7775   -1.5486    1.7229 C.ar       1 <1>        0.000
      4 C15         0.0641    0.1043    0.5441 C.ar       1 <1>        0.000
      5 O1         -1.3245    2.0265    0.7973 O.3        1 <1>        0.000
      6 C16        -0.6503   -2.1128    1.1907 C.ar       1 <1>        0.000
      7 C17         0.2865   -1.2571    0.6415 C.ar       1 <1>        0.000
      8 C26         4.7099   -2.4848   -1.8946 C.ar       1 <1>        0.000
      9 C20         1.4958   -1.7505    0.0988 C.2        1 <1>        0.000
     10 N3          1.3709   -2.8293   -0.7249 N.am       1 <1>        0.000
     11 O4          2.5741   -1.2710    0.3882 O.2        1 <1>        0.000
     12 S1          2.4842   -3.8287   -1.1970 S.o2       1 <1>        0.000
     13 C25         3.3884   -2.7832   -2.1829 C.ar       1 <1>        0.000
     14 O5          3.1792   -4.1752    0.0199 O.2        1 <1>        0.000
     15 O6          1.8275   -4.8070   -2.0291 O.2        1 <1>        0.000
     16 C27         2.8931   -1.9173   -3.1989 C.ar       1 <1>        0.000
     17 C28         5.5771   -1.8030   -2.7302 C.ar       1 <1>        0.000
     18 C30         3.6968   -1.1480   -4.0489 C.ar       1 <1>        0.000
     19 C31         5.0566   -1.1201   -3.8099 C.ar       1 <1>        0.000
     20 H          -2.8744    0.2464    2.0050 H.spc      1 <1>        0.000
     21 H          -2.5137   -2.1586    2.2463 H.spc      1 <1>        0.000
     22 H           0.8583    0.7211    0.1234 H.spc      1 <1>        0.000
     23 H          -2.1929    2.2406    1.1461 H.spc      1 <1>        0.000
     24 H          -0.4973   -3.1920    1.1994 H.spc      1 <1>        0.000
     25 H           5.0985   -2.8139   -0.9309 H.spc      1 <1>        0.000
     26 H           0.4321   -3.0102   -1.0803 H.spc      1 <1>        0.000
     27 H           1.8125   -1.8485   -3.3237 H.spc      1 <1>        0.000
     28 H           6.6502   -1.8055   -2.5390 H.spc      1 <1>        0.000
     29 H           3.2615   -0.5870   -4.8759 H.spc      1 <1>        0.000
     30 H           5.7167   -0.5602   -4.4724 H.spc      1 <1>        0.000
@<TRIPOS>BOND
     1    2    5 1  
     2    2    4 ar 
     3    3    6 ar 
     4   17   19 ar 
     5    4    7 ar 
     6    6    7 ar 
     7    9   11 2  
     8   10   12 1  
     9   16   18 ar 
    10   12   15 2  
    11    9   10 am 
    12   13   16 ar 
    13    7    9 1  
    14   12   14 2  
    15   12   13 1  
    16   18   19 ar 
    17    8   17 ar 
    18   13    8 ar 
    19    1    3 ar 
    20    1    2 ar 
    21    1   20 1  
    22    3   21 1  
    23    4   22 1  
    24    5   23 1  
    25    6   24 1  
    26    8   25 1  
    27   10   26 1  
    28   16   27 1  
    29   17   28 1  
    30   18   29 1  
    31   19   30 1  
# Name:          frag5-677-62/138278 -- energy: -3.212881
# Creation time: Sat Jun  5 12:51:54 2010


@<TRIPOS>MOLECULE
frag5-677-62/138278 -- energy: -3.212881
   30    31     1     1     1
SMALL
USER_CHARGES


@<TRIPOS>ATOM
      1 C9         -2.2564   -0.9518    1.1683 C.ar       1 <1>        0.000
      2 C12        -1.4867    0.1867    0.9371 C.ar       1 <1>        0.000
      3 C13        -1.7927   -2.2684    1.2332 C.ar       1 <1>        0.000
      4 C15        -0.1188   -0.1387    0.9065 C.ar       1 <1>        0.000
      5 O1         -1.9804    1.4147    0.8033 O.3        1 <1>        0.000
      6 C16        -0.4269   -2.4943    1.0758 C.ar       1 <1>        0.000
      7 C17         0.4585   -1.4186    0.9974 C.ar       1 <1>        0.000
      8 C26         4.5291   -3.2162   -2.5120 C.ar       1 <1>        0.000
      9 C20         1.9374   -1.5601    1.0133 C.2        1 <1>        0.000
     10 N3          2.5526   -2.1340   -0.0353 N.am       1 <1>        0.000
     11 O4          2.6003   -1.1696    1.9606 O.2        1 <1>        0.000
     12 S1          2.0861   -2.7781   -1.4118 S.o2       1 <1>        0.000
     13 C25         3.4058   -2.4147   -2.4172 C.ar       1 <1>        0.000
     14 O5          2.0255   -4.1745   -1.1118 O.2        1 <1>        0.000
     15 O6          0.9568   -2.0151   -1.8756 O.2        1 <1>        0.000
     16 C27         3.6225   -1.1659   -2.9992 C.ar       1 <1>        0.000
     17 C28         5.5159   -3.0609   -3.4802 C.ar       1 <1>        0.000
     18 C30         4.6105   -0.9014   -3.9478 C.ar       1 <1>        0.000
     19 C31         5.5521   -1.8800   -4.1939 C.ar       1 <1>        0.000
     20 H          -3.3261   -0.8003    1.3128 H.spc      1 <1>        0.000
     21 H          -2.4810   -3.0964    1.4024 H.spc      1 <1>        0.000
     22 H           0.5735    0.6964    0.8002 H.spc      1 <1>        0.000
     23 H          -2.9382    1.3811    0.8588 H.spc      1 <1>        0.000
     24 H          -0.0487   -3.5147    1.0137 H.spc      1 <1>        0.000
     25 H           4.6484   -4.0184   -1.7837 H.spc      1 <1>        0.000
     26 H           3.5656   -2.1633    0.0805 H.spc      1 <1>        0.000
     27 H           2.9774   -0.3425   -2.6927 H.spc      1 <1>        0.000
     28 H           6.2418   -3.8514   -3.6703 H.spc      1 <1>        0.000
     29 H           4.6380    0.0500   -4.4790 H.spc      1 <1>        0.000
     30 H           6.3217   -1.7209   -4.9492 H.spc      1 <1>        0.000
@<TRIPOS>BOND
     1    2    5 1  
     2    2    4 ar 
     3    3    6 ar 
     4   17   19 ar 
     5    4    7 ar 
     6    6    7 ar 
     7    9   11 2  
     8   10   12 1  
     9   16   18 ar 
    10   12   15 2  
    11    9   10 am 
    12   13   16 ar 
    13    7    9 1  
    14   12   14 2  
    15   12   13 1  
    16   18   19 ar 
    17    8   17 ar 
    18   13    8 ar 
    19    1    3 ar 
    20    1    2 ar 
    21    1   20 1  
    22    3   21 1  
    23    4   22 1  
    24    5   23 1  
    25    6   24 1  
    26    8   25 1  
    27   10   26 1  
    28   16   27 1  
    29   17   28 1  
    30   18   29 1  
    31   19   30 1  
# Name:          frag5-677-62/138278 -- energy: -2.862700
# Creation time: Sat Jun  5 12:51:54 2010


@<TRIPOS>MOLECULE
frag5-677-62/138278 -- energy: -2.862700
   30    31     1     1     1
SMALL
USER_CHARGES


@<TRIPOS>ATOM
      1 C9         -1.5002   -0.2949    2.4586 C.ar       1 <1>        0.000
      2 C12        -1.2022    0.6592    1.4764 C.ar       1 <1>        0.000
      3 C13        -1.0762   -1.6300    2.4912 C.ar       1 <1>        0.000
      4 C15        -0.3244    0.1439    0.5485 C.ar       1 <1>        0.000
      5 O1         -1.6363    1.9052    1.4602 O.3        1 <1>        0.000
      6 C16        -0.2694   -2.0786    1.4771 C.ar       1 <1>        0.000
      7 C17         0.0571   -1.1782    0.4765 C.ar       1 <1>        0.000
      8 C26         3.1997   -2.2401   -3.4047 C.ar       1 <1>        0.000
      9 C20         0.9073   -1.5208   -0.6295 C.2        1 <1>        0.000
     10 N3          1.9434   -2.3424   -0.3145 N.am       1 <1>        0.000
     11 O4          0.6391   -1.2255   -1.7714 O.2        1 <1>        0.000
     12 S1          2.5412   -3.5643   -1.0894 S.o2       1 <1>        0.000
     13 C25         3.5934   -2.7837   -2.1719 C.ar       1 <1>        0.000
     14 O5          3.2802   -4.2697   -0.0704 O.2        1 <1>        0.000
     15 O6          1.4665   -4.1662   -1.8397 O.2        1 <1>        0.000
     16 C27         4.8987   -2.3999   -1.8519 C.ar       1 <1>        0.000
     17 C28         4.0582   -1.6940   -4.3507 C.ar       1 <1>        0.000
     18 C30         5.8272   -1.9171   -2.7645 C.ar       1 <1>        0.000
     19 C31         5.3882   -1.5440   -4.0189 C.ar       1 <1>        0.000
     20 H          -2.1286    0.0369    3.2851 H.spc      1 <1>        0.000
     21 H          -1.3794   -2.2940    3.3007 H.spc      1 <1>        0.000
     22 H           0.0996    0.8324   -0.1825 H.spc      1 <1>        0.000
     23 H          -2.2362    2.0435    2.1968 H.spc      1 <1>        0.000
     24 H           0.1005   -3.1038    1.4592 H.spc      1 <1>        0.000
     25 H           2.1351   -2.2470   -3.6386 H.spc      1 <1>        0.000
     26 H           2.4059   -2.1283    0.5691 H.spc      1 <1>        0.000
     27 H           5.2102   -2.4858   -0.8109 H.spc      1 <1>        0.000
     28 H           3.6896   -1.3916   -5.3309 H.spc      1 <1>        0.000
     29 H           6.8804   -1.8345   -2.4961 H.spc      1 <1>        0.000
     30 H           6.0901   -1.1325   -4.7443 H.spc      1 <1>        0.000
@<TRIPOS>BOND
     1    2    5 1  
     2    2    4 ar 
     3    3    6 ar 
     4   17   19 ar 
     5    4    7 ar 
     6    6    7 ar 
     7    9   11 2  
     8   10   12 1  
     9   16   18 ar 
    10   12   15 2  
    11    9   10 am 
    12   13   16 ar 
    13    7    9 1  
    14   12   14 2  
    15   12   13 1  
    16   18   19 ar 
    17    8   17 ar 
    18   13    8 ar 
    19    1    3 ar 
    20    1    2 ar 
    21    1   20 1  
    22    3   21 1  
    23    4   22 1  
    24    5   23 1  
    25    6   24 1  
    26    8   25 1  
    27   10   26 1  
    28   16   27 1  
    29   17   28 1  
    30   18   29 1  
    31   19   30 1  
# Name:          frag5-677-62/138278 -- energy: -3.114134
# Creation time: Sat Jun  5 12:51:54 2010


@<TRIPOS>MOLECULE
frag5-677-62/138278 -- energy: -3.114134
   30    31     1     1     1
SMALL
USER_CHARGES


@<TRIPOS>ATOM
      1 C9         -2.2440   -0.6168    1.0203 C.ar       1 <1>        0.000
      2 C12        -1.5901   -1.3786    1.9912 C.ar       1 <1>        0.000
      3 C13        -1.6489    0.0339   -0.0609 C.ar       1 <1>        0.000
      4 C15        -0.2225   -1.5155    1.6824 C.ar       1 <1>        0.000
      5 O1         -2.1903   -1.9407    3.0346 O.3        1 <1>        0.000
      6 C16        -0.2740   -0.0725   -0.2133 C.ar       1 <1>        0.000
      7 C17         0.4902   -0.7867    0.7076 C.ar       1 <1>        0.000
      8 C26         3.3441   -1.7042   -3.4999 C.ar       1 <1>        0.000
      9 C20         1.9785   -0.7846    0.6799 C.2        1 <1>        0.000
     10 N3          2.6282   -1.5558   -0.2197 N.am       1 <1>        0.000
     11 O4          2.6338   -0.1417    1.4730 O.2        1 <1>        0.000
     12 S1          2.1876   -2.6797   -1.2512 S.o2       1 <1>        0.000
     13 C25         3.4167   -2.5664   -2.4090 C.ar       1 <1>        0.000
     14 O5          2.2975   -3.8839   -0.4906 O.2        1 <1>        0.000
     15 O6          0.9596   -2.2146   -1.8623 O.2        1 <1>        0.000
     16 C27         4.6919   -3.0991   -2.2507 C.ar       1 <1>        0.000
     17 C28         4.2676   -1.6682   -4.5410 C.ar       1 <1>        0.000
     18 C30         5.6428   -3.1550   -3.2686 C.ar       1 <1>        0.000
     19 C31         5.4227   -2.4107   -4.4109 C.ar       1 <1>        0.000
     20 H          -3.3255   -0.5212    1.1167 H.spc      1 <1>        0.000
     21 H          -2.2476    0.6100   -0.7664 H.spc      1 <1>        0.000
     22 H           0.3391   -2.2561    2.2517 H.spc      1 <1>        0.000
     23 H          -3.1204   -1.7030    3.0336 H.spc      1 <1>        0.000
     24 H           0.2134    0.4074   -1.0620 H.spc      1 <1>        0.000
     25 H           2.5057   -1.0089   -3.5417 H.spc      1 <1>        0.000
     26 H           3.6317   -1.3743   -0.2410 H.spc      1 <1>        0.000
     27 H           4.9638   -3.4964   -1.2728 H.spc      1 <1>        0.000
     28 H           4.0831   -1.0703   -5.4335 H.spc      1 <1>        0.000
     29 H           6.5367   -3.7701   -3.1656 H.spc      1 <1>        0.000
     30 H           6.1630   -2.4100   -5.2109 H.spc      1 <1>        0.000
@<TRIPOS>BOND
     1    2    5 1  
     2    2    4 ar 
     3    3    6 ar 
     4   17   19 ar 
     5    4    7 ar 
     6    6    7 ar 
     7    9   11 2  
     8   10   12 1  
     9   16   18 ar 
    10   12   15 2  
    11    9   10 am 
    12   13   16 ar 
    13    7    9 1  
    14   12   14 2  
    15   12   13 1  
    16   18   19 ar 
    17    8   17 ar 
    18   13    8 ar 
    19    1    3 ar 
    20    1    2 ar 
    21    1   20 1  
    22    3   21 1  
    23    4   22 1  
    24    5   23 1  
    25    6   24 1  
    26    8   25 1  
    27   10   26 1  
    28   16   27 1  
    29   17   28 1  
    30   18   29 1  
    31   19   30 1  
# Name:          frag5-677-62/138278 -- energy: -4.205649
# Creation time: Sat Jun  5 12:51:54 2010


@<TRIPOS>MOLECULE
frag5-677-62/138278 -- energy: -4.205649
   30    31     1     1     1
SMALL
USER_CHARGES


@<TRIPOS>ATOM
      1 C9         -0.8236    0.9263    0.4734 C.ar       1 <1>        0.000
      2 C12        -0.5742    0.2108    1.6425 C.ar       1 <1>        0.000
      3 C13        -0.4998    0.5316   -0.8285 C.ar       1 <1>        0.000
      4 C15        -0.0269   -1.0455    1.3483 C.ar       1 <1>        0.000
      5 O1         -0.8597    0.6404    2.8703 O.3        1 <1>        0.000
      6 C16         0.1264   -0.6976   -1.0075 C.ar       1 <1>        0.000
      7 C17         0.3119   -1.5546    0.0755 C.ar       1 <1>        0.000
      8 C26         2.6892   -3.3692   -2.6214 C.ar       1 <1>        0.000
      9 C20         0.7795   -2.9488   -0.0297 C.2        1 <1>        0.000
     10 N3          2.0620   -3.2630    0.3107 N.am       1 <1>        0.000
     11 O4          0.0683   -3.8071   -0.5281 O.2        1 <1>        0.000
     12 S1          3.4341   -2.5203   -0.0032 S.o2       1 <1>        0.000
     13 C25         3.3526   -2.4825   -1.7120 C.ar       1 <1>        0.000
     14 O5          3.2667   -1.2016    0.5523 O.2        1 <1>        0.000
     15 O6          4.5112   -3.3910    0.3671 O.2        1 <1>        0.000
     16 C27         3.9007   -1.4225   -2.4018 C.ar       1 <1>        0.000
     17 C28         2.6882   -3.2578   -4.0263 C.ar       1 <1>        0.000
     18 C30         4.0101   -1.2869   -3.7807 C.ar       1 <1>        0.000
     19 C31         3.3748   -2.2016   -4.5902 C.ar       1 <1>        0.000
     20 H          -1.3207    1.8899    0.5846 H.spc      1 <1>        0.000
     21 H          -0.7320    1.1704   -1.6807 H.spc      1 <1>        0.000
     22 H           0.1580   -1.7035    2.1974 H.spc      1 <1>        0.000
     23 H          -1.2237    1.5274    2.8212 H.spc      1 <1>        0.000
     24 H           0.4731   -0.9914   -1.9982 H.spc      1 <1>        0.000
     25 H           2.1368   -4.2032   -2.1885 H.spc      1 <1>        0.000
     26 H           2.1581   -4.1179    0.8587 H.spc      1 <1>        0.000
     27 H           4.2908   -0.6013   -1.8005 H.spc      1 <1>        0.000
     28 H           2.1621   -3.9825   -4.6476 H.spc      1 <1>        0.000
     29 H           4.5886   -0.4708   -4.2136 H.spc      1 <1>        0.000
     30 H           3.4140   -2.0919   -5.6740 H.spc      1 <1>        0.000
@<TRIPOS>BOND
     1    2    5 1  
     2    2    4 ar 
     3    3    6 ar 
     4   17   19 ar 
     5    4    7 ar 
     6    6    7 ar 
     7    9   11 2  
     8   10   12 1  
     9   16   18 ar 
    10   12   15 2  
    11    9   10 am 
    12   13   16 ar 
    13    7    9 1  
    14   12   14 2  
    15   12   13 1  
    16   18   19 ar 
    17    8   17 ar 
    18   13    8 ar 
    19    1    3 ar 
    20    1    2 ar 
    21    1   20 1  
    22    3   21 1  
    23    4   22 1  
    24    5   23 1  
    25    6   24 1  
    26    8   25 1  
    27   10   26 1  
    28   16   27 1  
    29   17   28 1  
    30   18   29 1  
    31   19   30 1  
# Name:          frag5-677-62/138278 -- energy: -2.477702
# Creation time: Sat Jun  5 12:51:54 2010


@<TRIPOS>MOLECULE
frag5-677-62/138278 -- energy: -2.477702
   30    31     1     1     1
SMALL
USER_CHARGES


@<TRIPOS>ATOM
      1 C9         -1.2760   -0.0074    2.3754 C.ar       1 <1>        0.000
      2 C12        -0.9735    0.8036    1.2765 C.ar       1 <1>        0.000
      3 C13        -0.9286   -1.3542    2.5544 C.ar       1 <1>        0.000
      4 C15        -0.1613    0.1288    0.3885 C.ar       1 <1>        0.000
      5 O1         -1.3507    2.0602    1.1219 O.3        1 <1>        0.000
      6 C16        -0.2055   -1.9692    1.5739 C.ar       1 <1>        0.000
      7 C17         0.1029   -1.2208    0.4600 C.ar       1 <1>        0.000
      8 C26         3.7858   -3.1549   -3.3444 C.ar       1 <1>        0.000
      9 C20         0.8556   -1.7835   -0.6152 C.2        1 <1>        0.000
     10 N3          1.7769   -2.7080   -0.2357 N.am       1 <1>        0.000
     11 O4          0.6625   -1.4903   -1.7734 O.2        1 <1>        0.000
     12 S1          2.5286   -3.7784   -1.0714 S.o2       1 <1>        0.000
     13 C25         3.5147   -2.7764   -2.0466 C.ar       1 <1>        0.000
     14 O5          3.3439   -4.4944   -0.1267 O.2        1 <1>        0.000
     15 O6          1.5261   -4.4187   -1.8888 O.2        1 <1>        0.000
     16 C27         4.0085   -1.4675   -1.7839 C.ar       1 <1>        0.000
     17 C28         4.5873   -2.4855   -4.2442 C.ar       1 <1>        0.000
     18 C30         4.8614   -0.7493   -2.6310 C.ar       1 <1>        0.000
     19 C31         5.1327   -1.2750   -3.8783 C.ar       1 <1>        0.000
     20 H          -1.8439    0.4585    3.1807 H.spc      1 <1>        0.000
     21 H          -1.2279   -1.8951    3.4522 H.spc      1 <1>        0.000
     22 H           0.2992    0.6985   -0.4186 H.spc      1 <1>        0.000
     23 H          -1.9102    2.3181    1.8581 H.spc      1 <1>        0.000
     24 H           0.1138   -3.0071    1.6684 H.spc      1 <1>        0.000
     25 H           3.3195   -4.0760   -3.6940 H.spc      1 <1>        0.000
     26 H           2.0118   -2.6965    0.7568 H.spc      1 <1>        0.000
     27 H           3.6999   -0.9888   -0.8545 H.spc      1 <1>        0.000
     28 H           4.7862   -2.9074   -5.2294 H.spc      1 <1>        0.000
     29 H           5.2986    0.1977   -2.3146 H.spc      1 <1>        0.000
     30 H           5.7766   -0.7337   -4.5714 H.spc      1 <1>        0.000
@<TRIPOS>BOND
     1    2    5 1  
     2    2    4 ar 
     3    3    6 ar 
     4   17   19 ar 
     5    4    7 ar 
     6    6    7 ar 
     7    9   11 2  
     8   10   12 1  
     9   16   18 ar 
    10   12   15 2  
    11    9   10 am 
    12   13   16 ar 
    13    7    9 1  
    14   12   14 2  
    15   12   13 1  
    16   18   19 ar 
    17    8   17 ar 
    18   13    8 ar 
    19    1    3 ar 
    20    1    2 ar 
    21    1   20 1  
    22    3   21 1  
    23    4   22 1  
    24    5   23 1  
    25    6   24 1  
    26    8   25 1  
    27   10   26 1  
    28   16   27 1  
    29   17   28 1  
    30   18   29 1  
    31   19   30 1  
# Name:          frag5-677-62/138278 -- energy: -2.959985
# Creation time: Sat Jun  5 12:51:54 2010


@<TRIPOS>MOLECULE
frag5-677-62/138278 -- energy: -2.959985
   30    31     1     1     1
SMALL
USER_CHARGES


@<TRIPOS>ATOM
      1 C9         -1.6819    0.6564    0.8495 C.ar       1 <1>        0.000
      2 C12        -1.5521   -0.4475    1.7023 C.ar       1 <1>        0.000
      3 C13        -0.7974    1.0413   -0.1675 C.ar       1 <1>        0.000
      4 C15        -0.4613   -1.2174    1.3467 C.ar       1 <1>        0.000
      5 O1         -2.4017   -0.7506    2.6748 O.3        1 <1>        0.000
      6 C16         0.3174    0.2819   -0.3812 C.ar       1 <1>        0.000
      7 C17         0.5067   -0.7862    0.4502 C.ar       1 <1>        0.000
      8 C26         2.6465   -2.2759   -3.1862 C.ar       1 <1>        0.000
      9 C20         1.6718   -1.5828    0.2654 C.2        1 <1>        0.000
     10 N3          1.5115   -2.7585   -0.3848 N.am       1 <1>        0.000
     11 O4          2.7575   -1.1674    0.6410 O.2        1 <1>        0.000
     12 S1          2.6020   -3.8044   -0.8316 S.o2       1 <1>        0.000
     13 C25         3.3214   -2.9045   -2.1046 C.ar       1 <1>        0.000
     14 O5          3.4929   -3.9145    0.3023 O.2        1 <1>        0.000
     15 O6          1.9214   -4.9202   -1.4040 O.2        1 <1>        0.000
     16 C27         4.6554   -2.5411   -2.0797 C.ar       1 <1>        0.000
     17 C28         3.2775   -1.6156   -4.2502 C.ar       1 <1>        0.000
     18 C30         5.3539   -1.9603   -3.1257 C.ar       1 <1>        0.000
     19 C31         4.6501   -1.4735   -4.2060 C.ar       1 <1>        0.000
     20 H          -2.5633    1.2817    0.9918 H.spc      1 <1>        0.000
     21 H          -0.9947    1.9257   -0.7734 H.spc      1 <1>        0.000
     22 H          -0.3562   -2.2076    1.7900 H.spc      1 <1>        0.000
     23 H          -3.0746   -0.0685    2.7345 H.spc      1 <1>        0.000
     24 H           1.0234    0.5167   -1.1778 H.spc      1 <1>        0.000
     25 H           1.5570   -2.3097   -3.1887 H.spc      1 <1>        0.000
     26 H           0.5490   -3.0021   -0.6187 H.spc      1 <1>        0.000
     27 H           5.2050   -2.7278   -1.1571 H.spc      1 <1>        0.000
     28 H           2.7005   -1.2255   -5.0887 H.spc      1 <1>        0.000
     29 H           6.4412   -1.8896   -3.0948 H.spc      1 <1>        0.000
     30 H           5.1752   -0.9781   -5.0226 H.spc      1 <1>        0.000
@<TRIPOS>BOND
     1    2    5 1  
     2    2    4 ar 
     3    3    6 ar 
     4   17   19 ar 
     5    4    7 ar 
     6    6    7 ar 
     7    9   11 2  
     8   10   12 1  
     9   16   18 ar 
    10   12   15 2  
    11    9   10 am 
    12   13   16 ar 
    13    7    9 1  
    14   12   14 2  
    15   12   13 1  
    16   18   19 ar 
    17    8   17 ar 
    18   13    8 ar 
    19    1    3 ar 
    20    1    2 ar 
    21    1   20 1  
    22    3   21 1  
    23    4   22 1  
    24    5   23 1  
    25    6   24 1  
    26    8   25 1  
    27   10   26 1  
    28   16   27 1  
    29   17   28 1  
    30   18   29 1  
    31   19   30 1  
# Name:          frag5-677-62/138278 -- energy: -3.155701
# Creation time: Sat Jun  5 12:51:54 2010


@<TRIPOS>MOLECULE
frag5-677-62/138278 -- energy: -3.155701
   30    31     1     1     1
SMALL
USER_CHARGES


@<TRIPOS>ATOM
      1 C9         -1.0855   -0.0303    2.3391 C.ar       1 <1>        0.000
      2 C12        -1.3139    0.2999    0.9995 C.ar       1 <1>        0.000
      3 C13        -0.3755   -1.1393    2.8074 C.ar       1 <1>        0.000
      4 C15        -0.6422   -0.5958    0.1478 C.ar       1 <1>        0.000
      5 O1         -2.0162    1.3512    0.6004 O.3        1 <1>        0.000
      6 C16         0.1764   -2.0112    1.8835 C.ar       1 <1>        0.000
      7 C17        -0.0425   -1.8178    0.5236 C.ar       1 <1>        0.000
      8 C26         4.3993   -3.2945   -2.5614 C.ar       1 <1>        0.000
      9 C20         0.3815   -2.8288   -0.4876 C.2        1 <1>        0.000
     10 N3          1.7022   -2.9620   -0.8007 N.am       1 <1>        0.000
     11 O4         -0.4253   -3.5099   -1.0890 O.2        1 <1>        0.000
     12 S1          2.9803   -2.0566   -0.5606 S.o2       1 <1>        0.000
     13 C25         3.7403   -2.1519   -2.0685 C.ar       1 <1>        0.000
     14 O5          2.4587   -0.7171   -0.3836 O.2        1 <1>        0.000
     15 O6          3.7793   -2.7507    0.4173 O.2        1 <1>        0.000
     16 C27         3.5659   -1.1997   -3.0749 C.ar       1 <1>        0.000
     17 C28         5.1246   -3.3383   -3.7499 C.ar       1 <1>        0.000
     18 C30         4.3096   -1.1460   -4.2442 C.ar       1 <1>        0.000
     19 C31         5.0745   -2.2418   -4.5875 C.ar       1 <1>        0.000
     20 H          -1.5011    0.6417    3.0900 H.spc      1 <1>        0.000
     21 H          -0.2586   -1.3143    3.8769 H.spc      1 <1>        0.000
     22 H          -0.5784   -0.3197   -0.9047 H.spc      1 <1>        0.000
     23 H          -2.3762    1.8037    1.3667 H.spc      1 <1>        0.000
     24 H           0.7834   -2.8505    2.2228 H.spc      1 <1>        0.000
     25 H           4.3376   -4.2090   -1.9715 H.spc      1 <1>        0.000
     26 H           1.9120   -3.8294   -1.2948 H.spc      1 <1>        0.000
     27 H           2.7914   -0.4463   -2.9315 H.spc      1 <1>        0.000
     28 H           5.7163   -4.2154   -4.0118 H.spc      1 <1>        0.000
     29 H           4.2903   -0.2589   -4.8772 H.spc      1 <1>        0.000
     30 H           5.6392   -2.2419   -5.5198 H.spc      1 <1>        0.000
@<TRIPOS>BOND
     1    2    5 1  
     2    2    4 ar 
     3    3    6 ar 
     4   17   19 ar 
     5    4    7 ar 
     6    6    7 ar 
     7    9   11 2  
     8   10   12 1  
     9   16   18 ar 
    10   12   15 2  
    11    9   10 am 
    12   13   16 ar 
    13    7    9 1  
    14   12   14 2  
    15   12   13 1  
    16   18   19 ar 
    17    8   17 ar 
    18   13    8 ar 
    19    1    3 ar 
    20    1    2 ar 
    21    1   20 1  
    22    3   21 1  
    23    4   22 1  
    24    5   23 1  
    25    6   24 1  
    26    8   25 1  
    27   10   26 1  
    28   16   27 1  
    29   17   28 1  
    30   18   29 1  
    31   19   30 1  
# Name:          frag5-677-62/138278 -- energy: -2.851851
# Creation time: Sat Jun  5 12:51:54 2010


@<TRIPOS>MOLECULE
frag5-677-62/138278 -- energy: -2.851851
   30    31     1     1     1
SMALL
USER_CHARGES


@<TRIPOS>ATOM
      1 C9         -1.2620    0.6779    0.6969 C.ar       1 <1>        0.000
      2 C12         0.1124    0.8457    0.9107 C.ar       1 <1>        0.000
      3 C13        -1.9139   -0.4863    0.2941 C.ar       1 <1>        0.000
      4 C15         0.7770   -0.3646    0.7654 C.ar       1 <1>        0.000
      5 O1          0.6853    1.9883    1.2536 O.3        1 <1>        0.000
      6 C16        -1.1695   -1.6058    0.0740 C.ar       1 <1>        0.000
      7 C17         0.1722   -1.5700    0.3698 C.ar       1 <1>        0.000
      8 C26         2.4222   -2.7830   -2.8197 C.ar       1 <1>        0.000
      9 C20         0.8900   -2.8035    0.2154 C.2        1 <1>        0.000
     10 N3          2.2228   -2.8022    0.4704 N.am       1 <1>        0.000
     11 O4          0.3637   -3.7874   -0.2609 O.2        1 <1>        0.000
     12 S1          3.4069   -3.4641   -0.3237 S.o2       1 <1>        0.000
     13 C25         3.3615   -2.5815   -1.7841 C.ar       1 <1>        0.000
     14 O5          4.5581   -3.0857    0.4646 O.2        1 <1>        0.000
     15 O6          3.0391   -4.8241   -0.6037 O.2        1 <1>        0.000
     16 C27         4.1025   -1.4205   -2.0225 C.ar       1 <1>        0.000
     17 C28         2.4391   -2.1482   -4.0633 C.ar       1 <1>        0.000
     18 C30         4.2220   -0.7824   -3.2541 C.ar       1 <1>        0.000
     19 C31         3.3621   -1.1437   -4.2720 C.ar       1 <1>        0.000
     20 H          -1.8899    1.5531    0.8637 H.spc      1 <1>        0.000
     21 H          -2.9953   -0.5007    0.1582 H.spc      1 <1>        0.000
     22 H           1.8468   -0.3812    0.9735 H.spc      1 <1>        0.000
     23 H           0.0209    2.6804    1.2880 H.spc      1 <1>        0.000
     24 H          -1.6277   -2.5096   -0.3277 H.spc      1 <1>        0.000
     25 H           1.6169   -3.4933   -2.6324 H.spc      1 <1>        0.000
     26 H           2.4997   -2.2916    1.3089 H.spc      1 <1>        0.000
     27 H           4.6290   -0.9793   -1.1762 H.spc      1 <1>        0.000
     28 H           1.7414   -2.4385   -4.8488 H.spc      1 <1>        0.000
     29 H           4.9786   -0.0137   -3.4114 H.spc      1 <1>        0.000
     30 H           3.4120   -0.6378   -5.2362 H.spc      1 <1>        0.000
@<TRIPOS>BOND
     1    2    5 1  
     2    2    4 ar 
     3    3    6 ar 
     4   17   19 ar 
     5    4    7 ar 
     6    6    7 ar 
     7    9   11 2  
     8   10   12 1  
     9   16   18 ar 
    10   12   15 2  
    11    9   10 am 
    12   13   16 ar 
    13    7    9 1  
    14   12   14 2  
    15   12   13 1  
    16   18   19 ar 
    17    8   17 ar 
    18   13    8 ar 
    19    1    3 ar 
    20    1    2 ar 
    21    1   20 1  
    22    3   21 1  
    23    4   22 1  
    24    5   23 1  
    25    6   24 1  
    26    8   25 1  
    27   10   26 1  
    28   16   27 1  
    29   17   28 1  
    30   18   29 1  
    31   19   30 1  
# Name:          frag5-677-62/138278 -- energy: -4.014667
# Creation time: Sat Jun  5 12:51:54 2010


@<TRIPOS>MOLECULE
frag5-677-62/138278 -- energy: -4.014667
   30    31     1     1     1
SMALL
USER_CHARGES


@<TRIPOS>ATOM
      1 C9         -1.4893   -0.0553    0.5262 C.ar       1 <1>        0.000
      2 C12        -0.4764    0.1478   -0.4082 C.ar       1 <1>        0.000
      3 C13        -1.4931   -0.9975    1.5630 C.ar       1 <1>        0.000
      4 C15         0.6317   -0.6600   -0.0928 C.ar       1 <1>        0.000
      5 O1         -0.5505    1.0206   -1.4094 O.3        1 <1>        0.000
      6 C16        -0.3957   -1.8207    1.7102 C.ar       1 <1>        0.000
      7 C17         0.7416   -1.5992    0.9719 C.ar       1 <1>        0.000
      8 C26         4.0236   -1.4595   -1.5396 C.ar       1 <1>        0.000
      9 C20         1.9440   -2.4275    1.3025 C.2        1 <1>        0.000
     10 N3          2.5386   -3.1709    0.3429 N.am       1 <1>        0.000
     11 O4          2.3643   -2.4828    2.4398 O.2        1 <1>        0.000
     12 S1          2.2408   -3.6401   -1.1505 S.o2       1 <1>        0.000
     13 C25         3.0654   -2.4024   -2.0024 C.ar       1 <1>        0.000
     14 O5          2.9143   -4.8991   -1.3491 O.2        1 <1>        0.000
     15 O6          0.8384   -3.4928   -1.3688 O.2        1 <1>        0.000
     16 C27         2.6714   -2.1059   -3.2845 C.ar       1 <1>        0.000
     17 C28         4.6849   -0.5204   -2.3478 C.ar       1 <1>        0.000
     18 C30         3.2554   -1.1774   -4.1344 C.ar       1 <1>        0.000
     19 C31         4.2818   -0.3979   -3.6579 C.ar       1 <1>        0.000
     20 H          -2.3683    0.5838    0.4422 H.spc      1 <1>        0.000
     21 H          -2.3445   -1.0785    2.2387 H.spc      1 <1>        0.000
     22 H           1.5050   -0.5549   -0.7365 H.spc      1 <1>        0.000
     23 H          -1.4140    1.4399   -1.4036 H.spc      1 <1>        0.000
     24 H          -0.4312   -2.6508    2.4157 H.spc      1 <1>        0.000
     25 H           4.2633   -1.4660   -0.4763 H.spc      1 <1>        0.000
     26 H           3.4340   -3.5359    0.6676 H.spc      1 <1>        0.000
     27 H           1.8139   -2.6551   -3.6733 H.spc      1 <1>        0.000
     28 H           5.4931    0.0930   -1.9494 H.spc      1 <1>        0.000
     29 H           2.9063   -1.0684   -5.1612 H.spc      1 <1>        0.000
     30 H           4.7759    0.3163   -4.3165 H.spc      1 <1>        0.000
@<TRIPOS>BOND
     1    2    5 1  
     2    2    4 ar 
     3    3    6 ar 
     4   17   19 ar 
     5    4    7 ar 
     6    6    7 ar 
     7    9   11 2  
     8   10   12 1  
     9   16   18 ar 
    10   12   15 2  
    11    9   10 am 
    12   13   16 ar 
    13    7    9 1  
    14   12   14 2  
    15   12   13 1  
    16   18   19 ar 
    17    8   17 ar 
    18   13    8 ar 
    19    1    3 ar 
    20    1    2 ar 
    21    1   20 1  
    22    3   21 1  
    23    4   22 1  
    24    5   23 1  
    25    6   24 1  
    26    8   25 1  
    27   10   26 1  
    28   16   27 1  
    29   17   28 1  
    30   18   29 1  
    31   19   30 1  
# Name:          frag5-677-62/138278 -- energy: -3.488376
# Creation time: Sat Jun  5 12:51:54 2010


@<TRIPOS>MOLECULE
frag5-677-62/138278 -- energy: -3.488376
   30    31     1     1     1
SMALL
USER_CHARGES


@<TRIPOS>ATOM
      1 C9         -1.4275    0.5478    0.7063 C.ar       1 <1>        0.000
      2 C12        -0.5088    0.2933    1.7289 C.ar       1 <1>        0.000
      3 C13        -1.5625   -0.1665   -0.4882 C.ar       1 <1>        0.000
      4 C15         0.2082   -0.8805    1.4620 C.ar       1 <1>        0.000
      5 O1         -0.3721    1.0445    2.8184 O.3        1 <1>        0.000
      6 C16        -0.7244   -1.2447   -0.7075 C.ar       1 <1>        0.000
      7 C17         0.1168   -1.6927    0.3010 C.ar       1 <1>        0.000
      8 C26         3.9284   -1.3886   -2.7932 C.ar       1 <1>        0.000
      9 C20         0.8822   -2.9604    0.1623 C.2        1 <1>        0.000
     10 N3          2.2464   -2.9455    0.2177 N.am       1 <1>        0.000
     11 O4          0.3137   -4.0113   -0.1021 O.2        1 <1>        0.000
     12 S1          3.3413   -1.8876   -0.2448 S.o2       1 <1>        0.000
     13 C25         3.4836   -2.3296   -1.8881 C.ar       1 <1>        0.000
     14 O5          2.7181   -0.5822   -0.1668 O.2        1 <1>        0.000
     15 O6          4.5657   -2.1986    0.4307 O.2        1 <1>        0.000
     16 C27         3.1015   -3.5317   -2.5701 C.ar       1 <1>        0.000
     17 C28         4.2399   -1.6008   -4.1247 C.ar       1 <1>        0.000
     18 C30         3.3225   -3.7956   -3.9351 C.ar       1 <1>        0.000
     19 C31         3.9183   -2.8103   -4.6959 C.ar       1 <1>        0.000
     20 H          -2.1067    1.3872    0.8551 H.spc      1 <1>        0.000
     21 H          -2.3099    0.1194   -1.2283 H.spc      1 <1>        0.000
     22 H           0.9121   -1.2052    2.2283 H.spc      1 <1>        0.000
     23 H          -0.9720    1.7922    2.7675 H.spc      1 <1>        0.000
     24 H          -0.7247   -1.7444   -1.6762 H.spc      1 <1>        0.000
     25 H           4.0470   -0.3712   -2.4206 H.spc      1 <1>        0.000
     26 H           2.6448   -3.7832    0.6420 H.spc      1 <1>        0.000
     27 H           2.6000   -4.3026   -1.9850 H.spc      1 <1>        0.000
     28 H           4.7312   -0.8237   -4.7103 H.spc      1 <1>        0.000
     29 H           3.0321   -4.7486   -4.3774 H.spc      1 <1>        0.000
     30 H           4.1340   -2.9904   -5.7491 H.spc      1 <1>        0.000
@<TRIPOS>BOND
     1    2    5 1  
     2    2    4 ar 
     3    3    6 ar 
     4   17   19 ar 
     5    4    7 ar 
     6    6    7 ar 
     7    9   11 2  
     8   10   12 1  
     9   16   18 ar 
    10   12   15 2  
    11    9   10 am 
    12   13   16 ar 
    13    7    9 1  
    14   12   14 2  
    15   12   13 1  
    16   18   19 ar 
    17    8   17 ar 
    18   13    8 ar 
    19    1    3 ar 
    20    1    2 ar 
    21    1   20 1  
    22    3   21 1  
    23    4   22 1  
    24    5   23 1  
    25    6   24 1  
    26    8   25 1  
    27   10   26 1  
    28   16   27 1  
    29   17   28 1  
    30   18   29 1  
    31   19   30 1  
# Name:          frag5-677-62/138278 -- energy: -4.388226
# Creation time: Sat Jun  5 12:51:54 2010


@<TRIPOS>MOLECULE
frag5-677-62/138278 -- energy: -4.388226
   30    31     1     1     1
SMALL
USER_CHARGES


@<TRIPOS>ATOM
      1 C9         -1.0636    0.4955   -0.1706 C.ar       1 <1>        0.000
      2 C12        -1.3759   -0.4378    0.8214 C.ar       1 <1>        0.000
      3 C13         0.1796    0.6611   -0.7873 C.ar       1 <1>        0.000
      4 C15        -0.2839   -1.2936    1.0522 C.ar       1 <1>        0.000
      5 O1         -2.5578   -0.5318    1.4149 O.3        1 <1>        0.000
      6 C16         1.2222   -0.1683   -0.4043 C.ar       1 <1>        0.000
      7 C17         1.0386   -1.1067    0.6059 C.ar       1 <1>        0.000
      8 C26         4.2924   -2.1748   -1.9257 C.ar       1 <1>        0.000
      9 C20         2.1572   -1.9209    1.1744 C.2        1 <1>        0.000
     10 N3          2.6252   -3.0012    0.4885 N.am       1 <1>        0.000
     11 O4          2.6405   -1.6579    2.2566 O.2        1 <1>        0.000
     12 S1          2.2579   -3.7646   -0.8370 S.o2       1 <1>        0.000
     13 C25         2.9867   -2.7284   -1.9796 C.ar       1 <1>        0.000
     14 O5          2.9556   -5.0202   -0.7825 O.2        1 <1>        0.000
     15 O6          0.8176   -3.6630   -0.9420 O.2        1 <1>        0.000
     16 C27         2.2274   -2.0676   -2.9376 C.ar       1 <1>        0.000
     17 C28         4.8799   -1.4470   -2.9653 C.ar       1 <1>        0.000
     18 C30         2.7230   -1.3024   -3.9761 C.ar       1 <1>        0.000
     19 C31         4.0689   -1.0110   -3.9947 C.ar       1 <1>        0.000
     20 H          -1.8665    1.1578   -0.4944 H.spc      1 <1>        0.000
     21 H           0.3259    1.4245   -1.5515 H.spc      1 <1>        0.000
     22 H          -0.4813   -2.1928    1.6358 H.spc      1 <1>        0.000
     23 H          -3.1337    0.1645    1.0907 H.spc      1 <1>        0.000
     24 H           2.1908   -0.0847   -0.8972 H.spc      1 <1>        0.000
     25 H           4.8741   -2.3265   -1.0165 H.spc      1 <1>        0.000
     26 H           3.4242   -3.4271    0.9582 H.spc      1 <1>        0.000
     27 H           1.1440   -2.1612   -2.8633 H.spc      1 <1>        0.000
     28 H           5.9481   -1.2299   -2.9632 H.spc      1 <1>        0.000
     29 H           2.0632   -0.9375   -4.7632 H.spc      1 <1>        0.000
     30 H           4.4928   -0.4380   -4.8194 H.spc      1 <1>        0.000
@<TRIPOS>BOND
     1    2    5 1  
     2    2    4 ar 
     3    3    6 ar 
     4   17   19 ar 
     5    4    7 ar 
     6    6    7 ar 
     7    9   11 2  
     8   10   12 1  
     9   16   18 ar 
    10   12   15 2  
    11    9   10 am 
    12   13   16 ar 
    13    7    9 1  
    14   12   14 2  
    15   12   13 1  
    16   18   19 ar 
    17    8   17 ar 
    18   13    8 ar 
    19    1    3 ar 
    20    1    2 ar 
    21    1   20 1  
    22    3   21 1  
    23    4   22 1  
    24    5   23 1  
    25    6   24 1  
    26    8   25 1  
    27   10   26 1  
    28   16   27 1  
    29   17   28 1  
    30   18   29 1  
    31   19   30 1  
# Name:          frag5-677-62/138278 -- energy: -2.845274
# Creation time: Sat Jun  5 12:51:54 2010


@<TRIPOS>MOLECULE
frag5-677-62/138278 -- energy: -2.845274
   30    31     1     1     1
SMALL
USER_CHARGES


@<TRIPOS>ATOM
      1 C9         -2.1896   -0.7631    1.4386 C.ar       1 <1>        0.000
      2 C12        -1.5271   -0.1021    0.4042 C.ar       1 <1>        0.000
      3 C13        -1.6608   -1.7571    2.2628 C.ar       1 <1>        0.000
      4 C15        -0.1806   -0.5032    0.3553 C.ar       1 <1>        0.000
      5 O1         -2.0859    0.8287   -0.3588 O.3        1 <1>        0.000
      6 C16        -0.3599   -2.1638    2.0554 C.ar       1 <1>        0.000
      7 C17         0.4375   -1.5218    1.1279 C.ar       1 <1>        0.000
      8 C26         3.5326   -1.2172   -3.3086 C.ar       1 <1>        0.000
      9 C20         1.8802   -1.8501    1.0841 C.2        1 <1>        0.000
     10 N3          2.5079   -1.9916   -0.1089 N.am       1 <1>        0.000
     11 O4          2.5221   -2.0989    2.0896 O.2        1 <1>        0.000
     12 S1          2.0299   -2.5365   -1.5240 S.o2       1 <1>        0.000
     13 C25         3.4184   -2.3020   -2.4457 C.ar       1 <1>        0.000
     14 O5          1.8024   -3.9429   -1.3124 O.2        1 <1>        0.000
     15 O6          1.0039   -1.6304   -1.9935 O.2        1 <1>        0.000
     16 C27         4.6528   -2.9456   -2.2587 C.ar       1 <1>        0.000
     17 C28         4.5846   -1.0036   -4.1814 C.ar       1 <1>        0.000
     18 C30         5.7327   -2.8187   -3.1299 C.ar       1 <1>        0.000
     19 C31         5.6901   -1.8212   -4.0852 C.ar       1 <1>        0.000
     20 H          -3.2245   -0.4740    1.6214 H.spc      1 <1>        0.000
     21 H          -2.2636   -2.2027    3.0541 H.spc      1 <1>        0.000
     22 H           0.4583    0.0250   -0.3525 H.spc      1 <1>        0.000
     23 H          -3.0141    0.9142   -0.1293 H.spc      1 <1>        0.000
     24 H           0.0429   -2.9991    2.6282 H.spc      1 <1>        0.000
     25 H           2.7314   -0.4783   -3.2963 H.spc      1 <1>        0.000
     26 H           3.4815   -1.6878   -0.0963 H.spc      1 <1>        0.000
     27 H           4.7728   -3.5811   -1.3813 H.spc      1 <1>        0.000
     28 H           4.5403   -0.2090   -4.9262 H.spc      1 <1>        0.000
     29 H           6.5892   -3.4891   -3.0597 H.spc      1 <1>        0.000
     30 H           6.5317   -1.6807   -4.7635 H.spc      1 <1>        0.000
@<TRIPOS>BOND
     1    2    5 1  
     2    2    4 ar 
     3    3    6 ar 
     4   17   19 ar 
     5    4    7 ar 
     6    6    7 ar 
     7    9   11 2  
     8   10   12 1  
     9   16   18 ar 
    10   12   15 2  
    11    9   10 am 
    12   13   16 ar 
    13    7    9 1  
    14   12   14 2  
    15   12   13 1  
    16   18   19 ar 
    17    8   17 ar 
    18   13    8 ar 
    19    1    3 ar 
    20    1    2 ar 
    21    1   20 1  
    22    3   21 1  
    23    4   22 1  
    24    5   23 1  
    25    6   24 1  
    26    8   25 1  
    27   10   26 1  
    28   16   27 1  
    29   17   28 1  
    30   18   29 1  
    31   19   30 1  
# Name:          frag5-677-62/138278 -- energy: -3.722323
# Creation time: Sat Jun  5 12:51:54 2010


@<TRIPOS>MOLECULE
frag5-677-62/138278 -- energy: -3.722323
   30    31     1     1     1
SMALL
USER_CHARGES


@<TRIPOS>ATOM
      1 C9         -0.6600    0.1507    2.0841 C.ar       1 <1>        0.000
      2 C12        -0.4612    0.6836    0.8058 C.ar       1 <1>        0.000
      3 C13        -0.5185   -1.1907    2.4477 C.ar       1 <1>        0.000
      4 C15         0.0325   -0.2897   -0.0751 C.ar       1 <1>        0.000
      5 O1         -0.6724    1.9530    0.4933 O.3        1 <1>        0.000
      6 C16        -0.1195   -2.0948    1.4828 C.ar       1 <1>        0.000
      7 C17         0.0732   -1.6721    0.1706 C.ar       1 <1>        0.000
      8 C26         3.4617   -2.9899   -3.1072 C.ar       1 <1>        0.000
      9 C20         0.3187   -2.6562   -0.9152 C.2        1 <1>        0.000
     10 N3          1.3512   -3.5468   -0.7882 N.am       1 <1>        0.000
     11 O4         -0.2939   -2.6206   -1.9622 O.2        1 <1>        0.000
     12 S1          2.8657   -3.3347   -0.3905 S.o2       1 <1>        0.000
     13 C25         3.4419   -2.4976   -1.7705 C.ar       1 <1>        0.000
     14 O5          2.8200   -2.4489    0.7493 O.2        1 <1>        0.000
     15 O6          3.4731   -4.6416   -0.3867 O.2        1 <1>        0.000
     16 C27         3.7559   -1.1383   -1.7504 C.ar       1 <1>        0.000
     17 C28         4.0331   -2.3246   -4.1990 C.ar       1 <1>        0.000
     18 C30         4.3885   -0.4423   -2.7698 C.ar       1 <1>        0.000
     19 C31         4.5014   -1.0395   -4.0078 C.ar       1 <1>        0.000
     20 H          -0.9526    0.8473    2.8697 H.spc      1 <1>        0.000
     21 H          -0.7182   -1.5161    3.4686 H.spc      1 <1>        0.000
     22 H           0.4182    0.0568   -1.0339 H.spc      1 <1>        0.000
     23 H          -1.0112    2.4184    1.2615 H.spc      1 <1>        0.000
     24 H           0.0445   -3.1391    1.7488 H.spc      1 <1>        0.000
     25 H           2.9968   -3.9579   -3.2943 H.spc      1 <1>        0.000
     26 H           1.0987   -4.5154   -0.9844 H.spc      1 <1>        0.000
     27 H           3.4808   -0.5758   -0.8582 H.spc      1 <1>        0.000
     28 H           4.1063   -2.8079   -5.1733 H.spc      1 <1>        0.000
     29 H           4.7884    0.5567   -2.5959 H.spc      1 <1>        0.000
     30 H           4.9600   -0.4975   -4.8349 H.spc      1 <1>        0.000
@<TRIPOS>BOND
     1    2    5 1  
     2    2    4 ar 
     3    3    6 ar 
     4   17   19 ar 
     5    4    7 ar 
     6    6    7 ar 
     7    9   11 2  
     8   10   12 1  
     9   16   18 ar 
    10   12   15 2  
    11    9   10 am 
    12   13   16 ar 
    13    7    9 1  
    14   12   14 2  
    15   12   13 1  
    16   18   19 ar 
    17    8   17 ar 
    18   13    8 ar 
    19    1    3 ar 
    20    1    2 ar 
    21    1   20 1  
    22    3   21 1  
    23    4   22 1  
    24    5   23 1  
    25    6   24 1  
    26    8   25 1  
    27   10   26 1  
    28   16   27 1  
    29   17   28 1  
    30   18   29 1  
    31   19   30 1  
# Name:          frag5-677-62/138278 -- energy: -3.795425
# Creation time: Sat Jun  5 12:51:54 2010


@<TRIPOS>MOLECULE
frag5-677-62/138278 -- energy: -3.795425
   30    31     1     1     1
SMALL
USER_CHARGES


@<TRIPOS>ATOM
      1 C9         -1.6083    0.3433    0.4973 C.ar       1 <1>        0.000
      2 C12        -0.9309    0.0911    1.6944 C.ar       1 <1>        0.000
      3 C13        -1.3643   -0.2653   -0.7360 C.ar       1 <1>        0.000
      4 C15        -0.0186   -0.9595    1.5424 C.ar       1 <1>        0.000
      5 O1         -1.1397    0.7377    2.8381 O.3        1 <1>        0.000
      6 C16        -0.3655   -1.2305   -0.8047 C.ar       1 <1>        0.000
      7 C17         0.2931   -1.6561    0.3527 C.ar       1 <1>        0.000
      8 C26         4.2094   -3.3701   -2.2864 C.ar       1 <1>        0.000
      9 C20         1.2424   -2.7852    0.3983 C.2        1 <1>        0.000
     10 N3          2.5861   -2.5515    0.3718 N.am       1 <1>        0.000
     11 O4          0.8394   -3.9395    0.3761 O.2        1 <1>        0.000
     12 S1          3.4759   -1.4722   -0.4017 S.o2       1 <1>        0.000
     13 C25         3.5232   -2.1799   -1.9484 C.ar       1 <1>        0.000
     14 O5          2.6647   -0.2802   -0.4226 O.2        1 <1>        0.000
     15 O6          4.7866   -1.5310    0.1780 O.2        1 <1>        0.000
     16 C27         2.7232   -1.7687   -3.0095 C.ar       1 <1>        0.000
     17 C28         4.3528   -3.8829   -3.5846 C.ar       1 <1>        0.000
     18 C30         2.8564   -2.1790   -4.3355 C.ar       1 <1>        0.000
     19 C31         3.6655   -3.2617   -4.6089 C.ar       1 <1>        0.000
     20 H          -2.4042    1.0873    0.5298 H.spc      1 <1>        0.000
     21 H          -1.9406    0.0086   -1.6198 H.spc      1 <1>        0.000
     22 H           0.5103   -1.2756    2.4415 H.spc      1 <1>        0.000
     23 H          -1.8062    1.4155    2.7041 H.spc      1 <1>        0.000
     24 H          -0.0937   -1.6590   -1.7694 H.spc      1 <1>        0.000
     25 H           4.6636   -3.9346   -1.4721 H.spc      1 <1>        0.000
     26 H           3.1267   -3.1875    0.9580 H.spc      1 <1>        0.000
     27 H           1.9223   -1.0643   -2.7848 H.spc      1 <1>        0.000
     28 H           4.9884   -4.7468   -3.7791 H.spc      1 <1>        0.000
     29 H           2.3336   -1.6565   -5.1366 H.spc      1 <1>        0.000
     30 H           3.7624   -3.6265   -5.6314 H.spc      1 <1>        0.000
@<TRIPOS>BOND
     1    2    5 1  
     2    2    4 ar 
     3    3    6 ar 
     4   17   19 ar 
     5    4    7 ar 
     6    6    7 ar 
     7    9   11 2  
     8   10   12 1  
     9   16   18 ar 
    10   12   15 2  
    11    9   10 am 
    12   13   16 ar 
    13    7    9 1  
    14   12   14 2  
    15   12   13 1  
    16   18   19 ar 
    17    8   17 ar 
    18   13    8 ar 
    19    1    3 ar 
    20    1    2 ar 
    21    1   20 1  
    22    3   21 1  
    23    4   22 1  
    24    5   23 1  
    25    6   24 1  
    26    8   25 1  
    27   10   26 1  
    28   16   27 1  
    29   17   28 1  
    30   18   29 1  
    31   19   30 1  
# Name:          frag5-677-62/138278 -- energy: -3.353920
# Creation time: Sat Jun  5 12:51:54 2010


@<TRIPOS>MOLECULE
frag5-677-62/138278 -- energy: -3.353920
   30    31     1     1     1
SMALL
USER_CHARGES


@<TRIPOS>ATOM
      1 C9         -1.7246    0.1187    1.0324 C.ar       1 <1>        0.000
      2 C12        -0.7122    0.7252    0.2733 C.ar       1 <1>        0.000
      3 C13        -1.7208   -1.1817    1.5478 C.ar       1 <1>        0.000
      4 C15         0.3982   -0.1020    0.1854 C.ar       1 <1>        0.000
      5 O1         -0.7737    1.9321   -0.2633 O.3        1 <1>        0.000
      6 C16        -0.6380   -1.9772    1.3036 C.ar       1 <1>        0.000
      7 C17         0.4436   -1.4006    0.6909 C.ar       1 <1>        0.000
      8 C26         2.4913   -1.9189   -2.9396 C.ar       1 <1>        0.000
      9 C20         1.6133   -2.1889    0.5108 C.2        1 <1>        0.000
     10 N3          1.4793   -3.2832   -0.3038 N.am       1 <1>        0.000
     11 O4          2.6760   -1.8413    0.9650 O.2        1 <1>        0.000
     12 S1          2.6068   -4.0332   -1.1109 S.o2       1 <1>        0.000
     13 C25         3.2196   -2.7242   -2.0258 C.ar       1 <1>        0.000
     14 O5          3.5335   -4.4817   -0.1140 O.2        1 <1>        0.000
     15 O6          1.9196   -4.9254   -2.0206 O.2        1 <1>        0.000
     16 C27         4.4711   -2.1724   -1.7829 C.ar       1 <1>        0.000
     17 C28         3.0403   -0.9010   -3.7309 C.ar       1 <1>        0.000
     18 C30         5.1019   -1.2186   -2.5696 C.ar       1 <1>        0.000
     19 C31         4.3660   -0.5666   -3.5369 C.ar       1 <1>        0.000
     20 H          -2.6062    0.7243    1.2424 H.spc      1 <1>        0.000
     21 H          -2.5636   -1.5519    2.1315 H.spc      1 <1>        0.000
     22 H           1.2887    0.2868   -0.3086 H.spc      1 <1>        0.000
     23 H          -1.6321    2.3201   -0.0781 H.spc      1 <1>        0.000
     24 H          -0.6342   -3.0302    1.5852 H.spc      1 <1>        0.000
     25 H           1.4217   -2.1067   -3.0332 H.spc      1 <1>        0.000
     26 H           0.5354   -3.6577   -0.3993 H.spc      1 <1>        0.000
     27 H           5.0041   -2.5186   -0.8974 H.spc      1 <1>        0.000
     28 H           2.4372   -0.3870   -4.4794 H.spc      1 <1>        0.000
     29 H           6.1578   -0.9894   -2.4258 H.spc      1 <1>        0.000
     30 H           4.8291    0.2097   -4.1459 H.spc      1 <1>        0.000
@<TRIPOS>BOND
     1    2    5 1  
     2    2    4 ar 
     3    3    6 ar 
     4   17   19 ar 
     5    4    7 ar 
     6    6    7 ar 
     7    9   11 2  
     8   10   12 1  
     9   16   18 ar 
    10   12   15 2  
    11    9   10 am 
    12   13   16 ar 
    13    7    9 1  
    14   12   14 2  
    15   12   13 1  
    16   18   19 ar 
    17    8   17 ar 
    18   13    8 ar 
    19    1    3 ar 
    20    1    2 ar 
    21    1   20 1  
    22    3   21 1  
    23    4   22 1  
    24    5   23 1  
    25    6   24 1  
    26    8   25 1  
    27   10   26 1  
    28   16   27 1  
    29   17   28 1  
    30   18   29 1  
    31   19   30 1  
# Name:          frag5-677-62/138278 -- energy: -3.441405
# Creation time: Sat Jun  5 12:51:54 2010


@<TRIPOS>MOLECULE
frag5-677-62/138278 -- energy: -3.441405
   30    31     1     1     1
SMALL
USER_CHARGES


@<TRIPOS>ATOM
      1 C9         -1.6362    0.1869    0.3994 C.ar       1 <1>        0.000
      2 C12        -0.6500    0.3846    1.3678 C.ar       1 <1>        0.000
      3 C13        -1.6971   -0.8691   -0.5173 C.ar       1 <1>        0.000
      4 C15         0.2294   -0.7168    1.4003 C.ar       1 <1>        0.000
      5 O1         -0.5934    1.4386    2.1732 O.3        1 <1>        0.000
      6 C16        -0.7086   -1.8356   -0.4834 C.ar       1 <1>        0.000
      7 C17         0.2286   -1.8387    0.5364 C.ar       1 <1>        0.000
      8 C26         4.4254   -3.0297   -2.4918 C.ar       1 <1>        0.000
      9 C20         1.1812   -2.9894    0.6561 C.2        1 <1>        0.000
     10 N3          2.4495   -2.8738    0.1519 N.am       1 <1>        0.000
     11 O4          0.8370   -4.0233    1.1959 O.2        1 <1>        0.000
     12 S1          3.3636   -1.6825   -0.3692 S.o2       1 <1>        0.000
     13 C25         3.4899   -2.1084   -2.0050 C.ar       1 <1>        0.000
     14 O5          2.5837   -0.4734   -0.2625 O.2        1 <1>        0.000
     15 O6          4.6481   -1.8226    0.2690 O.2        1 <1>        0.000
     16 C27         2.5239   -1.8140   -2.9755 C.ar       1 <1>        0.000
     17 C28         4.6412   -3.3037   -3.8346 C.ar       1 <1>        0.000
     18 C30         2.7067   -1.9982   -4.3386 C.ar       1 <1>        0.000
     19 C31         3.7685   -2.7720   -4.7612 C.ar       1 <1>        0.000
     20 H          -2.4358    0.9262    0.3528 H.spc      1 <1>        0.000
     21 H          -2.5077   -0.9285   -1.2436 H.spc      1 <1>        0.000
     22 H           0.9947   -0.7032    2.1764 H.spc      1 <1>        0.000
     23 H          -1.3004    2.0486    1.9503 H.spc      1 <1>        0.000
     24 H          -0.6669   -2.5975   -1.2618 H.spc      1 <1>        0.000
     25 H           5.0280   -3.5711   -1.7625 H.spc      1 <1>        0.000
     26 H           2.9247   -3.7747    0.0974 H.spc      1 <1>        0.000
     27 H           1.5673   -1.4146   -2.6384 H.spc      1 <1>        0.000
     28 H           5.4801   -3.9242   -4.1498 H.spc      1 <1>        0.000
     29 H           2.0274   -1.5423   -5.0589 H.spc      1 <1>        0.000
     30 H           3.9171   -2.9625   -5.8241 H.spc      1 <1>        0.000
@<TRIPOS>BOND
     1    2    5 1  
     2    2    4 ar 
     3    3    6 ar 
     4   17   19 ar 
     5    4    7 ar 
     6    6    7 ar 
     7    9   11 2  
     8   10   12 1  
     9   16   18 ar 
    10   12   15 2  
    11    9   10 am 
    12   13   16 ar 
    13    7    9 1  
    14   12   14 2  
    15   12   13 1  
    16   18   19 ar 
    17    8   17 ar 
    18   13    8 ar 
    19    1    3 ar 
    20    1    2 ar 
    21    1   20 1  
    22    3   21 1  
    23    4   22 1  
    24    5   23 1  
    25    6   24 1  
    26    8   25 1  
    27   10   26 1  
    28   16   27 1  
    29   17   28 1  
    30   18   29 1  
    31   19   30 1  
# Name:          frag5-677-62/138278 -- energy: -1.175854
# Creation time: Sat Jun  5 12:51:54 2010


@<TRIPOS>MOLECULE
frag5-677-62/138278 -- energy: -1.175854
   30    31     1     1     1
SMALL
USER_CHARGES


@<TRIPOS>ATOM
      1 C9         -2.0003    0.1600    0.8306 C.ar       1 <1>        0.000
      2 C12        -0.9431    0.5961    1.6412 C.ar       1 <1>        0.000
      3 C13        -1.9570   -0.8300   -0.1539 C.ar       1 <1>        0.000
      4 C15         0.1792   -0.1682    1.4260 C.ar       1 <1>        0.000
      5 O1         -1.0175    1.5613    2.5383 O.3        1 <1>        0.000
      6 C16        -0.7735   -1.4637   -0.3702 C.ar       1 <1>        0.000
      7 C17         0.3075   -1.0907    0.4037 C.ar       1 <1>        0.000
      8 C26         2.6199   -2.3514   -3.1714 C.ar       1 <1>        0.000
      9 C20         1.5784   -1.7236    0.2597 C.2        1 <1>        0.000
     10 N3          1.5794   -2.9319   -0.3654 N.am       1 <1>        0.000
     11 O4          2.6078   -1.1981    0.6446 O.2        1 <1>        0.000
     12 S1          2.7742   -3.8399   -0.7930 S.o2       1 <1>        0.000
     13 C25         3.3672   -2.8923   -2.0872 C.ar       1 <1>        0.000
     14 O5          3.6724   -3.8460    0.3295 O.2        1 <1>        0.000
     15 O6          2.2026   -5.0469   -1.3499 O.2        1 <1>        0.000
     16 C27         4.6491   -2.3654   -2.0748 C.ar       1 <1>        0.000
     17 C28         3.1638   -1.6405   -4.2473 C.ar       1 <1>        0.000
     18 C30         5.2702   -1.7281   -3.1329 C.ar       1 <1>        0.000
     19 C31         4.5109   -1.3415   -4.2164 C.ar       1 <1>        0.000
     20 H          -2.9628    0.6474    0.9857 H.spc      1 <1>        0.000
     21 H          -2.8451   -1.0868   -0.7313 H.spc      1 <1>        0.000
     22 H           1.0221   -0.0388    2.1048 H.spc      1 <1>        0.000
     23 H          -1.8925    1.9552    2.5111 H.spc      1 <1>        0.000
     24 H          -0.6812   -2.2404   -1.1294 H.spc      1 <1>        0.000
     25 H           1.5405   -2.5026   -3.1630 H.spc      1 <1>        0.000
     26 H           0.6556   -3.3018   -0.5894 H.spc      1 <1>        0.000
     27 H           5.2174   -2.4619   -1.1497 H.spc      1 <1>        0.000
     28 H           2.5407   -1.3315   -5.0866 H.spc      1 <1>        0.000
     29 H           6.3426   -1.5346   -3.1107 H.spc      1 <1>        0.000
     30 H           4.9718   -0.8026   -5.0442 H.spc      1 <1>        0.000
@<TRIPOS>BOND
     1    2    5 1  
     2    2    4 ar 
     3    3    6 ar 
     4   17   19 ar 
     5    4    7 ar 
     6    6    7 ar 
     7    9   11 2  
     8   10   12 1  
     9   16   18 ar 
    10   12   15 2  
    11    9   10 am 
    12   13   16 ar 
    13    7    9 1  
    14   12   14 2  
    15   12   13 1  
    16   18   19 ar 
    17    8   17 ar 
    18   13    8 ar 
    19    1    3 ar 
    20    1    2 ar 
    21    1   20 1  
    22    3   21 1  
    23    4   22 1  
    24    5   23 1  
    25    6   24 1  
    26    8   25 1  
    27   10   26 1  
    28   16   27 1  
    29   17   28 1  
    30   18   29 1  
    31   19   30 1  
# Name:          frag5-677-62/138278 -- energy: -3.132473
# Creation time: Sat Jun  5 12:51:54 2010


@<TRIPOS>MOLECULE
frag5-677-62/138278 -- energy: -3.132473
   30    31     1     1     1
SMALL
USER_CHARGES


@<TRIPOS>ATOM
      1 C9         -2.0298   -0.2263    1.2542 C.ar       1 <1>        0.000
      2 C12        -0.8186    0.4575    1.1942 C.ar       1 <1>        0.000
      3 C13        -2.2227   -1.5954    1.0707 C.ar       1 <1>        0.000
      4 C15         0.2537   -0.4561    1.0553 C.ar       1 <1>        0.000
      5 O1         -0.7017    1.7843    1.2958 O.3        1 <1>        0.000
      6 C16        -1.1156   -2.3850    0.8214 C.ar       1 <1>        0.000
      7 C17         0.1637   -1.8695    0.8804 C.ar       1 <1>        0.000
      8 C26         4.8929   -2.3418   -2.3298 C.ar       1 <1>        0.000
      9 C20         1.2700   -2.8303    0.6968 C.2        1 <1>        0.000
     10 N3          2.1994   -2.6291   -0.2589 N.am       1 <1>        0.000
     11 O4          1.3540   -3.8251    1.4087 O.2        1 <1>        0.000
     12 S1          2.7585   -1.3401   -1.0177 S.o2       1 <1>        0.000
     13 C25         3.5477   -2.0353   -2.3330 C.ar       1 <1>        0.000
     14 O5          1.6192   -0.6138   -1.4739 O.2        1 <1>        0.000
     15 O6          3.7264   -0.7689   -0.1157 O.2        1 <1>        0.000
     16 C27         2.8832   -2.5697   -3.4278 C.ar       1 <1>        0.000
     17 C28         5.5994   -2.7968   -3.4359 C.ar       1 <1>        0.000
     18 C30         3.5185   -2.9858   -4.5952 C.ar       1 <1>        0.000
     19 C31         4.8931   -3.1138   -4.5788 C.ar       1 <1>        0.000
     20 H          -2.9179    0.3690    1.4662 H.spc      1 <1>        0.000
     21 H          -3.2203   -2.0315    1.1225 H.spc      1 <1>        0.000
     22 H           1.2581   -0.0338    1.0852 H.spc      1 <1>        0.000
     23 H          -1.5742    2.1758    1.3800 H.spc      1 <1>        0.000
     24 H          -1.2558   -3.4370    0.5730 H.spc      1 <1>        0.000
     25 H           5.4391   -2.2184   -1.3946 H.spc      1 <1>        0.000
     26 H           2.6451   -3.4936   -0.5659 H.spc      1 <1>        0.000
     27 H           1.7993   -2.6698   -3.3706 H.spc      1 <1>        0.000
     28 H           6.6839   -2.9009   -3.4022 H.spc      1 <1>        0.000
     29 H           2.9463   -3.2044   -5.4968 H.spc      1 <1>        0.000
     30 H           5.4196   -3.4644   -5.4665 H.spc      1 <1>        0.000
@<TRIPOS>BOND
     1    2    5 1  
     2    2    4 ar 
     3    3    6 ar 
     4   17   19 ar 
     5    4    7 ar 
     6    6    7 ar 
     7    9   11 2  
     8   10   12 1  
     9   16   18 ar 
    10   12   15 2  
    11    9   10 am 
    12   13   16 ar 
    13    7    9 1  
    14   12   14 2  
    15   12   13 1  
    16   18   19 ar 
    17    8   17 ar 
    18   13    8 ar 
    19    1    3 ar 
    20    1    2 ar 
    21    1   20 1  
    22    3   21 1  
    23    4   22 1  
    24    5   23 1  
    25    6   24 1  
    26    8   25 1  
    27   10   26 1  
    28   16   27 1  
    29   17   28 1  
    30   18   29 1  
    31   19   30 1  
# Name:          frag5-677-62/138278 -- energy: -1.890865
# Creation time: Sat Jun  5 12:51:54 2010


@<TRIPOS>MOLECULE
frag5-677-62/138278 -- energy: -1.890865
   30    31     1     1     1
SMALL
USER_CHARGES


@<TRIPOS>ATOM
      1 C9         -0.7810    0.5403    2.1010 C.ar       1 <1>        0.000
      2 C12        -0.9992    0.7484    0.7345 C.ar       1 <1>        0.000
      3 C13        -0.0968   -0.5293    2.6871 C.ar       1 <1>        0.000
      4 C15        -0.3564   -0.2153   -0.0218 C.ar       1 <1>        0.000
      5 O1         -1.6636    1.7777    0.2366 O.3        1 <1>        0.000
      6 C16         0.4238   -1.4901    1.8688 C.ar       1 <1>        0.000
      7 C17         0.1946   -1.3672    0.5188 C.ar       1 <1>        0.000
      8 C26         4.4581   -1.8312   -1.6922 C.ar       1 <1>        0.000
      9 C20         0.6760   -2.3585   -0.3957 C.2        1 <1>        0.000
     10 N3          1.8547   -2.9498   -0.0635 N.am       1 <1>        0.000
     11 O4          0.1008   -2.6174   -1.4203 O.2        1 <1>        0.000
     12 S1          2.7927   -3.8880   -0.8947 S.o2       1 <1>        0.000
     13 C25         3.4463   -2.7558   -2.0014 C.ar       1 <1>        0.000
     14 O5          3.7785   -4.2906    0.0667 O.2        1 <1>        0.000
     15 O6          1.9337   -4.8000   -1.6091 O.2        1 <1>        0.000
     16 C27         2.8567   -2.4389   -3.2360 C.ar       1 <1>        0.000
     17 C28         5.1307   -1.0597   -2.6380 C.ar       1 <1>        0.000
     18 C30         3.4405   -1.6468   -4.2193 C.ar       1 <1>        0.000
     19 C31         4.6013   -0.9688   -3.9104 C.ar       1 <1>        0.000
     20 H          -1.1868    1.2905    2.7797 H.spc      1 <1>        0.000
     21 H           0.0178   -0.5942    3.7691 H.spc      1 <1>        0.000
     22 H          -0.2791   -0.0612   -1.0981 H.spc      1 <1>        0.000
     23 H          -2.0203    2.3048    0.9553 H.spc      1 <1>        0.000
     24 H           0.9997   -2.3236    2.2708 H.spc      1 <1>        0.000
     25 H           4.7348   -1.7095   -0.6450 H.spc      1 <1>        0.000
     26 H           2.1810   -2.7492    0.8818 H.spc      1 <1>        0.000
     27 H           1.8657   -2.8447   -3.4393 H.spc      1 <1>        0.000
     28 H           6.0533   -0.5400   -2.3795 H.spc      1 <1>        0.000
     29 H           2.9918   -1.5640   -5.2092 H.spc      1 <1>        0.000
     30 H           5.0991   -0.3634   -4.6679 H.spc      1 <1>        0.000
@<TRIPOS>BOND
     1    2    5 1  
     2    2    4 ar 
     3    3    6 ar 
     4   17   19 ar 
     5    4    7 ar 
     6    6    7 ar 
     7    9   11 2  
     8   10   12 1  
     9   16   18 ar 
    10   12   15 2  
    11    9   10 am 
    12   13   16 ar 
    13    7    9 1  
    14   12   14 2  
    15   12   13 1  
    16   18   19 ar 
    17    8   17 ar 
    18   13    8 ar 
    19    1    3 ar 
    20    1    2 ar 
    21    1   20 1  
    22    3   21 1  
    23    4   22 1  
    24    5   23 1  
    25    6   24 1  
    26    8   25 1  
    27   10   26 1  
    28   16   27 1  
    29   17   28 1  
    30   18   29 1  
    31   19   30 1  
# Name:          frag5-677-62/138278 -- energy: -2.908433
# Creation time: Sat Jun  5 12:51:54 2010


@<TRIPOS>MOLECULE
frag5-677-62/138278 -- energy: -2.908433
   30    31     1     1     1
SMALL
USER_CHARGES


@<TRIPOS>ATOM
      1 C9         -2.1759   -1.1627    1.6121 C.ar       1 <1>        0.000
      2 C12        -1.1152   -1.5515    2.4293 C.ar       1 <1>        0.000
      3 C13        -2.0764   -0.5661    0.3521 C.ar       1 <1>        0.000
      4 C15         0.1134   -1.3700    1.7678 C.ar       1 <1>        0.000
      5 O1         -1.2543   -2.0716    3.6481 O.3        1 <1>        0.000
      6 C16        -0.8103   -0.3412   -0.1715 C.ar       1 <1>        0.000
      7 C17         0.3229   -0.6460    0.5738 C.ar       1 <1>        0.000
      8 C26         4.7560   -2.2066   -2.0144 C.ar       1 <1>        0.000
      9 C20         1.6809   -0.2442    0.1429 C.2        1 <1>        0.000
     10 N3          2.2928   -0.9353   -0.8313 N.am       1 <1>        0.000
     11 O4          2.2974    0.6653    0.6732 O.2        1 <1>        0.000
     12 S1          1.9939   -2.3120   -1.5607 S.o2       1 <1>        0.000
     13 C25         3.4381   -2.5374   -2.4219 C.ar       1 <1>        0.000
     14 O5          1.8861   -3.2883   -0.5281 O.2        1 <1>        0.000
     15 O6          0.9173   -2.0099   -2.4844 O.2        1 <1>        0.000
     16 C27         3.3923   -2.8516   -3.7569 C.ar       1 <1>        0.000
     17 C28         5.9074   -2.5278   -2.7442 C.ar       1 <1>        0.000
     18 C30         4.4807   -3.1676   -4.5500 C.ar       1 <1>        0.000
     19 C31         5.7441   -3.0162   -4.0251 C.ar       1 <1>        0.000
     20 H          -3.1813   -1.3416    1.9933 H.spc      1 <1>        0.000
     21 H          -2.9699   -0.2846   -0.2052 H.spc      1 <1>        0.000
     22 H           0.9892   -1.8338    2.2216 H.spc      1 <1>        0.000
     23 H          -2.1852   -2.0922    3.8817 H.spc      1 <1>        0.000
     24 H          -0.7043    0.0767   -1.1726 H.spc      1 <1>        0.000
     25 H           4.8803   -1.6688   -1.0745 H.spc      1 <1>        0.000
     26 H           3.1340   -0.4747   -1.1787 H.spc      1 <1>        0.000
     27 H           2.4124   -2.8522   -4.2342 H.spc      1 <1>        0.000
     28 H           6.9005   -2.3964   -2.3147 H.spc      1 <1>        0.000
     29 H           4.3408   -3.5288   -5.5689 H.spc      1 <1>        0.000
     30 H           6.6168   -3.2823   -4.6215 H.spc      1 <1>        0.000
@<TRIPOS>BOND
     1    2    5 1  
     2    2    4 ar 
     3    3    6 ar 
     4   17   19 ar 
     5    4    7 ar 
     6    6    7 ar 
     7    9   11 2  
     8   10   12 1  
     9   16   18 ar 
    10   12   15 2  
    11    9   10 am 
    12   13   16 ar 
    13    7    9 1  
    14   12   14 2  
    15   12   13 1  
    16   18   19 ar 
    17    8   17 ar 
    18   13    8 ar 
    19    1    3 ar 
    20    1    2 ar 
    21    1   20 1  
    22    3   21 1  
    23    4   22 1  
    24    5   23 1  
    25    6   24 1  
    26    8   25 1  
    27   10   26 1  
    28   16   27 1  
    29   17   28 1  
    30   18   29 1  
    31   19   30 1  
# Name:          frag5-677-62/138278 -- energy: -4.460285
# Creation time: Sat Jun  5 12:51:54 2010


@<TRIPOS>MOLECULE
frag5-677-62/138278 -- energy: -4.460285
   30    31     1     1     1
SMALL
USER_CHARGES


@<TRIPOS>ATOM
      1 C9         -1.5627   -0.2401    0.1933 C.ar       1 <1>        0.000
      2 C12        -0.4151    0.3031   -0.3837 C.ar       1 <1>        0.000
      3 C13        -1.6303   -1.3995    0.9724 C.ar       1 <1>        0.000
      4 C15         0.7201   -0.4256    0.0243 C.ar       1 <1>        0.000
      5 O1         -0.4080    1.3948   -1.1385 O.3        1 <1>        0.000
      6 C16        -0.4693   -2.1170    1.1982 C.ar       1 <1>        0.000
      7 C17         0.7535   -1.6086    0.7962 C.ar       1 <1>        0.000
      8 C26         4.3568   -2.0803   -1.8965 C.ar       1 <1>        0.000
      9 C20         2.0086   -2.2933    1.2150 C.2        1 <1>        0.000
     10 N3          2.5184   -3.2916    0.4270 N.am       1 <1>        0.000
     11 O4          2.5825   -1.9647    2.2361 O.2        1 <1>        0.000
     12 S1          2.3270   -3.8008   -1.0627 S.o2       1 <1>        0.000
     13 C25         3.0085   -2.4864   -1.9239 C.ar       1 <1>        0.000
     14 O5          3.1597   -4.9668   -1.2067 O.2        1 <1>        0.000
     15 O6          0.9009   -3.8207   -1.2957 O.2        1 <1>        0.000
     16 C27         2.2410   -1.4791   -2.5198 C.ar       1 <1>        0.000
     17 C28         4.9183   -1.1220   -2.7460 C.ar       1 <1>        0.000
     18 C30         2.7105   -0.4455   -3.3200 C.ar       1 <1>        0.000
     19 C31         4.0709   -0.2970   -3.4582 C.ar       1 <1>        0.000
     20 H          -2.4986    0.2910    0.0201 H.spc      1 <1>        0.000
     21 H          -2.5793   -1.7314    1.3935 H.spc      1 <1>        0.000
     22 H           1.6852   -0.0304   -0.2927 H.spc      1 <1>        0.000
     23 H          -1.3096    1.6966   -1.2712 H.spc      1 <1>        0.000
     24 H          -0.5178   -3.0862    1.6945 H.spc      1 <1>        0.000
     25 H           5.0102   -2.5470   -1.1594 H.spc      1 <1>        0.000
     26 H           3.2014   -3.8564    0.9319 H.spc      1 <1>        0.000
     27 H           1.1667   -1.5087   -2.3376 H.spc      1 <1>        0.000
     28 H           5.9999   -1.0285   -2.8436 H.spc      1 <1>        0.000
     29 H           2.0196    0.2297   -3.8248 H.spc      1 <1>        0.000
     30 H           4.4762    0.4650   -4.1239 H.spc      1 <1>        0.000
@<TRIPOS>BOND
     1    2    5 1  
     2    2    4 ar 
     3    3    6 ar 
     4   17   19 ar 
     5    4    7 ar 
     6    6    7 ar 
     7    9   11 2  
     8   10   12 1  
     9   16   18 ar 
    10   12   15 2  
    11    9   10 am 
    12   13   16 ar 
    13    7    9 1  
    14   12   14 2  
    15   12   13 1  
    16   18   19 ar 
    17    8   17 ar 
    18   13    8 ar 
    19    1    3 ar 
    20    1    2 ar 
    21    1   20 1  
    22    3   21 1  
    23    4   22 1  
    24    5   23 1  
    25    6   24 1  
    26    8   25 1  
    27   10   26 1  
    28   16   27 1  
    29   17   28 1  
    30   18   29 1  
    31   19   30 1  
# Name:          frag5-677-62/138278 -- energy: -2.413521
# Creation time: Sat Jun  5 12:51:54 2010


@<TRIPOS>MOLECULE
frag5-677-62/138278 -- energy: -2.413521
   30    31     1     1     1
SMALL
USER_CHARGES


@<TRIPOS>ATOM
      1 C9         -1.6818    0.4632    1.5150 C.ar       1 <1>        0.000
      2 C12        -1.4682   -0.8638    1.8985 C.ar       1 <1>        0.000
      3 C13        -0.9436    1.2031    0.5835 C.ar       1 <1>        0.000
      4 C15        -0.4637   -1.4283    1.1271 C.ar       1 <1>        0.000
      5 O1         -2.1625   -1.5050    2.8260 O.3        1 <1>        0.000
      6 C16         0.1000    0.6048   -0.0461 C.ar       1 <1>        0.000
      7 C17         0.3402   -0.7050    0.2465 C.ar       1 <1>        0.000
      8 C26         2.8879   -2.4418   -3.2899 C.ar       1 <1>        0.000
      9 C20         1.4248   -1.3125   -0.4588 C.2        1 <1>        0.000
     10 N3          1.3712   -2.6689   -0.6299 N.am       1 <1>        0.000
     11 O4          2.3696   -0.6405   -0.8088 O.2        1 <1>        0.000
     12 S1          2.5483   -3.6863   -0.8100 S.o2       1 <1>        0.000
     13 C25         3.4200   -2.9113   -2.0633 C.ar       1 <1>        0.000
     14 O5          3.2560   -3.6354    0.4405 O.2        1 <1>        0.000
     15 O6          1.9772   -4.9008   -1.3441 O.2        1 <1>        0.000
     16 C27         4.6997   -2.4187   -1.8613 C.ar       1 <1>        0.000
     17 C28         3.6324   -1.8346   -4.3056 C.ar       1 <1>        0.000
     18 C30         5.5166   -1.8845   -2.8412 C.ar       1 <1>        0.000
     19 C31         4.9671   -1.5747   -4.0673 C.ar       1 <1>        0.000
     20 H          -2.5145    0.9786    1.9937 H.spc      1 <1>        0.000
     21 H          -1.2018    2.2399    0.3678 H.spc      1 <1>        0.000
     22 H          -0.2922   -2.5012    1.2142 H.spc      1 <1>        0.000
     23 H          -2.7982   -0.9038    3.2210 H.spc      1 <1>        0.000
     24 H           0.7210    1.1498   -0.7571 H.spc      1 <1>        0.000
     25 H           1.8172   -2.5633   -3.4539 H.spc      1 <1>        0.000
     26 H           0.4350   -3.0736   -0.6418 H.spc      1 <1>        0.000
     27 H           5.0950   -2.4553   -0.8462 H.spc      1 <1>        0.000
     28 H           3.1721   -1.5738   -5.2586 H.spc      1 <1>        0.000
     29 H           6.5753   -1.7116   -2.6478 H.spc      1 <1>        0.000
     30 H           5.5844   -1.1262   -4.8457 H.spc      1 <1>        0.000
@<TRIPOS>BOND
     1    2    5 1  
     2    2    4 ar 
     3    3    6 ar 
     4   17   19 ar 
     5    4    7 ar 
     6    6    7 ar 
     7    9   11 2  
     8   10   12 1  
     9   16   18 ar 
    10   12   15 2  
    11    9   10 am 
    12   13   16 ar 
    13    7    9 1  
    14   12   14 2  
    15   12   13 1  
    16   18   19 ar 
    17    8   17 ar 
    18   13    8 ar 
    19    1    3 ar 
    20    1    2 ar 
    21    1   20 1  
    22    3   21 1  
    23    4   22 1  
    24    5   23 1  
    25    6   24 1  
    26    8   25 1  
    27   10   26 1  
    28   16   27 1  
    29   17   28 1  
    30   18   29 1  
    31   19   30 1  
# Name:          frag5-677-62/138278 -- energy: -3.640363
# Creation time: Sat Jun  5 12:51:54 2010


@<TRIPOS>MOLECULE
frag5-677-62/138278 -- energy: -3.640363
   30    31     1     1     1
SMALL
USER_CHARGES


@<TRIPOS>ATOM
      1 C9         -1.6328   -0.2149    0.3443 C.ar       1 <1>        0.000
      2 C12        -0.4862    0.5725    0.2277 C.ar       1 <1>        0.000
      3 C13        -1.6725   -1.5909    0.5896 C.ar       1 <1>        0.000
      4 C15         0.6578   -0.1865    0.5157 C.ar       1 <1>        0.000
      5 O1         -0.5023    1.8638   -0.0760 O.3        1 <1>        0.000
      6 C16        -0.4764   -2.2618    0.7801 C.ar       1 <1>        0.000
      7 C17         0.7203   -1.5543    0.8410 C.ar       1 <1>        0.000
      8 C26         2.8042   -2.4671   -3.3317 C.ar       1 <1>        0.000
      9 C20         2.0177   -2.1944    1.2194 C.2        1 <1>        0.000
     10 N3          2.5277   -3.1792    0.4139 N.am       1 <1>        0.000
     11 O4          2.6448   -1.8276    2.1966 O.2        1 <1>        0.000
     12 S1          2.2655   -3.7292   -1.0504 S.o2       1 <1>        0.000
     13 C25         3.0603   -2.5284   -1.9705 C.ar       1 <1>        0.000
     14 O5          2.9577   -4.9810   -1.1632 O.2        1 <1>        0.000
     15 O6          0.8476   -3.6269   -1.3364 O.2        1 <1>        0.000
     16 C27         3.9341   -1.4691   -1.5873 C.ar       1 <1>        0.000
     17 C28         3.3399   -1.5782   -4.2412 C.ar       1 <1>        0.000
     18 C30         4.5547   -0.5635   -2.4613 C.ar       1 <1>        0.000
     19 C31         4.2292   -0.6242   -3.7994 C.ar       1 <1>        0.000
     20 H          -2.5911    0.2925    0.2333 H.spc      1 <1>        0.000
     21 H          -2.6229   -2.1230    0.6299 H.spc      1 <1>        0.000
     22 H           1.6089    0.3449    0.4838 H.spc      1 <1>        0.000
     23 H          -1.4076    2.1441   -0.2290 H.spc      1 <1>        0.000
     24 H          -0.4722   -3.3470    0.8826 H.spc      1 <1>        0.000
     25 H           2.1026   -3.2018   -3.7269 H.spc      1 <1>        0.000
     26 H           3.2739   -3.6953    0.8799 H.spc      1 <1>        0.000
     27 H           4.1378   -1.3525   -0.5229 H.spc      1 <1>        0.000
     28 H           3.0631   -1.6305   -5.2942 H.spc      1 <1>        0.000
     29 H           5.2741    0.1676   -2.0924 H.spc      1 <1>        0.000
     30 H           4.6733    0.0791   -4.5039 H.spc      1 <1>        0.000
@<TRIPOS>BOND
     1    2    5 1  
     2    2    4 ar 
     3    3    6 ar 
     4   17   19 ar 
     5    4    7 ar 
     6    6    7 ar 
     7    9   11 2  
     8   10   12 1  
     9   16   18 ar 
    10   12   15 2  
    11    9   10 am 
    12   13   16 ar 
    13    7    9 1  
    14   12   14 2  
    15   12   13 1  
    16   18   19 ar 
    17    8   17 ar 
    18   13    8 ar 
    19    1    3 ar 
    20    1    2 ar 
    21    1   20 1  
    22    3   21 1  
    23    4   22 1  
    24    5   23 1  
    25    6   24 1  
    26    8   25 1  
    27   10   26 1  
    28   16   27 1  
    29   17   28 1  
    30   18   29 1  
    31   19   30 1  
# Name:          frag5-677-62/138278 -- energy: -2.718228
# Creation time: Sat Jun  5 12:51:54 2010


@<TRIPOS>MOLECULE
frag5-677-62/138278 -- energy: -2.718228
   30    31     1     1     1
SMALL
USER_CHARGES


@<TRIPOS>ATOM
      1 C9         -0.9439   -1.0960    2.8639 C.ar       1 <1>        0.000
      2 C12        -0.6183    0.1535    2.3281 C.ar       1 <1>        0.000
      3 C13        -0.8782   -2.3243    2.2036 C.ar       1 <1>        0.000
      4 C15        -0.0964    0.0164    1.0376 C.ar       1 <1>        0.000
      5 O1         -0.7383    1.3066    2.9846 O.3        1 <1>        0.000
      6 C16        -0.4361   -2.3358    0.8841 C.ar       1 <1>        0.000
      7 C17        -0.1462   -1.1352    0.2268 C.ar       1 <1>        0.000
      8 C26         4.8265   -2.3142   -1.9352 C.ar       1 <1>        0.000
      9 C20         0.1956   -1.0093   -1.2098 C.2        1 <1>        0.000
     10 N3          1.2568   -1.6718   -1.7040 N.am       1 <1>        0.000
     11 O4         -0.4421   -0.3042   -1.9733 O.2        1 <1>        0.000
     12 S1          2.3394   -2.6602   -1.0956 S.o2       1 <1>        0.000
     13 C25         3.5355   -2.6100   -2.2905 C.ar       1 <1>        0.000
     14 O5          2.7757   -2.0026    0.0962 O.2        1 <1>        0.000
     15 O6          1.7522   -3.9806   -1.0915 O.2        1 <1>        0.000
     16 C27         3.3636   -2.5902   -3.6951 C.ar       1 <1>        0.000
     17 C28         5.9233   -2.4171   -2.7741 C.ar       1 <1>        0.000
     18 C30         4.4166   -2.6137   -4.6182 C.ar       1 <1>        0.000
     19 C31         5.7056   -2.5519   -4.1268 C.ar       1 <1>        0.000
     20 H          -1.2826   -1.1129    3.8998 H.spc      1 <1>        0.000
     21 H          -1.1649   -3.2476    2.7070 H.spc      1 <1>        0.000
     22 H           0.3999    0.8903    0.6156 H.spc      1 <1>        0.000
     23 H          -1.1222    1.1429    3.8491 H.spc      1 <1>        0.000
     24 H          -0.3152   -3.2841    0.3605 H.spc      1 <1>        0.000
     25 H           5.0026   -1.9722   -0.9153 H.spc      1 <1>        0.000
     26 H           1.3984   -1.4992   -2.6993 H.spc      1 <1>        0.000
     27 H           2.3458   -2.5543   -4.0836 H.spc      1 <1>        0.000
     28 H           6.9363   -2.3919   -2.3725 H.spc      1 <1>        0.000
     29 H           4.2250   -2.6786   -5.6893 H.spc      1 <1>        0.000
     30 H           6.5521   -2.6099   -4.8110 H.spc      1 <1>        0.000
@<TRIPOS>BOND
     1    2    5 1  
     2    2    4 ar 
     3    3    6 ar 
     4   17   19 ar 
     5    4    7 ar 
     6    6    7 ar 
     7    9   11 2  
     8   10   12 1  
     9   16   18 ar 
    10   12   15 2  
    11    9   10 am 
    12   13   16 ar 
    13    7    9 1  
    14   12   14 2  
    15   12   13 1  
    16   18   19 ar 
    17    8   17 ar 
    18   13    8 ar 
    19    1    3 ar 
    20    1    2 ar 
    21    1   20 1  
    22    3   21 1  
    23    4   22 1  
    24    5   23 1  
    25    6   24 1  
    26    8   25 1  
    27   10   26 1  
    28   16   27 1  
    29   17   28 1  
    30   18   29 1  
    31   19   30 1  
# Name:          frag5-677-62/138278 -- energy: -3.283581
# Creation time: Sat Jun  5 12:51:54 2010


@<TRIPOS>MOLECULE
frag5-677-62/138278 -- energy: -3.283581
   30    31     1     1     1
SMALL
USER_CHARGES


@<TRIPOS>ATOM
      1 C9         -2.1774   -0.7219    0.9709 C.ar       1 <1>        0.000
      2 C12        -1.3338    0.3898    0.9455 C.ar       1 <1>        0.000
      3 C13        -1.8077   -2.0563    0.8167 C.ar       1 <1>        0.000
      4 C15        -0.0045   -0.0061    0.8417 C.ar       1 <1>        0.000
      5 O1         -1.7293    1.6551    1.0511 O.3        1 <1>        0.000
      6 C16        -0.4631   -2.3354    0.6395 C.ar       1 <1>        0.000
      7 C17         0.4875   -1.3058    0.7131 C.ar       1 <1>        0.000
      8 C26         3.3096   -1.2251   -2.4466 C.ar       1 <1>        0.000
      9 C20         1.9412   -1.5060    0.6802 C.2        1 <1>        0.000
     10 N3          2.3789   -2.6996    0.2381 N.am       1 <1>        0.000
     11 O4          2.7358   -0.6022    0.9179 O.2        1 <1>        0.000
     12 S1          2.2288   -3.4609   -1.1596 S.o2       1 <1>        0.000
     13 C25         3.3343   -2.6019   -2.1387 C.ar       1 <1>        0.000
     14 O5          2.7066   -4.7831   -0.8676 O.2        1 <1>        0.000
     15 O6          0.9328   -3.2025   -1.7151 O.2        1 <1>        0.000
     16 C27         4.4996   -3.1795   -2.6082 C.ar       1 <1>        0.000
     17 C28         4.1805   -0.5700   -3.3304 C.ar       1 <1>        0.000
     18 C30         5.3629   -2.6282   -3.5490 C.ar       1 <1>        0.000
     19 C31         5.2089   -1.3014   -3.8887 C.ar       1 <1>        0.000
     20 H          -3.2379   -0.5252    1.1280 H.spc      1 <1>        0.000
     21 H          -2.5513   -2.8531    0.8349 H.spc      1 <1>        0.000
     22 H           0.7389    0.7908    0.8633 H.spc      1 <1>        0.000
     23 H          -2.6870    1.6860    1.1093 H.spc      1 <1>        0.000
     24 H          -0.1420   -3.3582    0.4422 H.spc      1 <1>        0.000
     25 H           2.5487   -0.6184   -1.9557 H.spc      1 <1>        0.000
     26 H           2.9123   -3.2222    0.9329 H.spc      1 <1>        0.000
     27 H           4.7659   -4.1561   -2.2040 H.spc      1 <1>        0.000
     28 H           4.0486    0.4854   -3.5689 H.spc      1 <1>        0.000
     29 H           6.1450   -3.2329   -4.0081 H.spc      1 <1>        0.000
     30 H           5.8952   -0.8327   -4.5940 H.spc      1 <1>        0.000
@<TRIPOS>BOND
     1    2    5 1  
     2    2    4 ar 
     3    3    6 ar 
     4   17   19 ar 
     5    4    7 ar 
     6    6    7 ar 
     7    9   11 2  
     8   10   12 1  
     9   16   18 ar 
    10   12   15 2  
    11    9   10 am 
    12   13   16 ar 
    13    7    9 1  
    14   12   14 2  
    15   12   13 1  
    16   18   19 ar 
    17    8   17 ar 
    18   13    8 ar 
    19    1    3 ar 
    20    1    2 ar 
    21    1   20 1  
    22    3   21 1  
    23    4   22 1  
    24    5   23 1  
    25    6   24 1  
    26    8   25 1  
    27   10   26 1  
    28   16   27 1  
    29   17   28 1  
    30   18   29 1  
    31   19   30 1  
# Name:          frag5-677-62/138278 -- energy: -2.578994
# Creation time: Sat Jun  5 12:51:54 2010


@<TRIPOS>MOLECULE
frag5-677-62/138278 -- energy: -2.578994
   30    31     1     1     1
SMALL
USER_CHARGES


@<TRIPOS>ATOM
      1 C9         -1.7118    0.5669    0.5868 C.ar       1 <1>        0.000
      2 C12        -1.0229    0.4155    1.7960 C.ar       1 <1>        0.000
      3 C13        -1.3734    0.0033   -0.6483 C.ar       1 <1>        0.000
      4 C15         0.0051   -0.4944    1.6654 C.ar       1 <1>        0.000
      5 O1         -1.3364    1.0189    2.9270 O.3        1 <1>        0.000
      6 C16        -0.2775   -0.8092   -0.7120 C.ar       1 <1>        0.000
      7 C17         0.4340   -1.0072    0.4554 C.ar       1 <1>        0.000
      8 C26         4.0922   -1.7367   -2.0148 C.ar       1 <1>        0.000
      9 C20         1.5773   -1.8430    0.4922 C.2        1 <1>        0.000
     10 N3          1.5809   -2.9090   -0.3477 N.am       1 <1>        0.000
     11 O4          2.5294   -1.5670    1.2062 O.2        1 <1>        0.000
     12 S1          2.7754   -3.8386   -0.7845 S.o2       1 <1>        0.000
     13 C25         3.3355   -2.9185   -2.1066 C.ar       1 <1>        0.000
     14 O5          3.7345   -3.8132    0.2912 O.2        1 <1>        0.000
     15 O6          2.1562   -5.0477   -1.2640 O.2        1 <1>        0.000
     16 C27         2.8492   -3.0791   -3.4154 C.ar       1 <1>        0.000
     17 C28         4.7137   -1.1165   -3.0971 C.ar       1 <1>        0.000
     18 C30         3.3870   -2.4725   -4.5461 C.ar       1 <1>        0.000
     19 C31         4.3429   -1.4929   -4.3731 C.ar       1 <1>        0.000
     20 H          -2.6062    1.1895    0.6099 H.spc      1 <1>        0.000
     21 H          -1.9696    0.2076   -1.5376 H.spc      1 <1>        0.000
     22 H           0.5101   -0.8296    2.5713 H.spc      1 <1>        0.000
     23 H          -2.0815    1.6060    2.7793 H.spc      1 <1>        0.000
     24 H           0.0237   -1.2825   -1.6466 H.spc      1 <1>        0.000
     25 H           4.1996   -1.2756   -1.0330 H.spc      1 <1>        0.000
     26 H           0.6763   -3.1429   -0.7567 H.spc      1 <1>        0.000
     27 H           1.9849   -3.7283   -3.5553 H.spc      1 <1>        0.000
     28 H           5.4748   -0.3521   -2.9402 H.spc      1 <1>        0.000
     29 H           3.0610   -2.7642   -5.5445 H.spc      1 <1>        0.000
     30 H           4.8034   -1.0182   -5.2395 H.spc      1 <1>        0.000
@<TRIPOS>BOND
     1    2    5 1  
     2    2    4 ar 
     3    3    6 ar 
     4   17   19 ar 
     5    4    7 ar 
     6    6    7 ar 
     7    9   11 2  
     8   10   12 1  
     9   16   18 ar 
    10   12   15 2  
    11    9   10 am 
    12   13   16 ar 
    13    7    9 1  
    14   12   14 2  
    15   12   13 1  
    16   18   19 ar 
    17    8   17 ar 
    18   13    8 ar 
    19    1    3 ar 
    20    1    2 ar 
    21    1   20 1  
    22    3   21 1  
    23    4   22 1  
    24    5   23 1  
    25    6   24 1  
    26    8   25 1  
    27   10   26 1  
    28   16   27 1  
    29   17   28 1  
    30   18   29 1  
    31   19   30 1  
# Name:          frag5-677-62/138278 -- energy: -2.785789
# Creation time: Sat Jun  5 12:51:54 2010


@<TRIPOS>MOLECULE
frag5-677-62/138278 -- energy: -2.785789
   30    31     1     1     1
SMALL
USER_CHARGES


@<TRIPOS>ATOM
      1 C9         -1.4514    0.3483    1.3769 C.ar       1 <1>        0.000
      2 C12        -0.9783    0.4478    0.0616 C.ar       1 <1>        0.000
      3 C13        -1.0210   -0.5525    2.3586 C.ar       1 <1>        0.000
      4 C15         0.0783   -0.4280   -0.1479 C.ar       1 <1>        0.000
      5 O1         -1.4452    1.3157   -0.8214 O.3        1 <1>        0.000
      6 C16        -0.0452   -1.4454    2.0458 C.ar       1 <1>        0.000
      7 C17         0.5097   -1.3566    0.8032 C.ar       1 <1>        0.000
      8 C26         2.9474   -2.3146   -3.4125 C.ar       1 <1>        0.000
      9 C20         1.5446   -2.2834    0.5238 C.2        1 <1>        0.000
     10 N3          1.3451   -3.1360   -0.5183 N.am       1 <1>        0.000
     11 O4          2.5856   -2.2423    1.1568 O.2        1 <1>        0.000
     12 S1          2.4182   -3.9778   -1.3018 S.o2       1 <1>        0.000
     13 C25         3.2322   -2.6967   -2.0974 C.ar       1 <1>        0.000
     14 O5          3.2666   -4.5927   -0.3270 O.2        1 <1>        0.000
     15 O6          1.6554   -4.7293   -2.2830 O.2        1 <1>        0.000
     16 C27         4.0727   -1.7398   -1.4864 C.ar       1 <1>        0.000
     17 C28         3.6429   -1.3638   -4.1481 C.ar       1 <1>        0.000
     18 C30         4.8347   -0.7908   -2.1634 C.ar       1 <1>        0.000
     19 C31         4.5989   -0.6029   -3.5084 C.ar       1 <1>        0.000
     20 H          -2.2374    1.0458    1.6663 H.spc      1 <1>        0.000
     21 H          -1.4607   -0.5379    3.3559 H.spc      1 <1>        0.000
     22 H           0.5989   -0.3893   -1.1048 H.spc      1 <1>        0.000
     23 H          -2.1765    1.8024   -0.4342 H.spc      1 <1>        0.000
     24 H           0.2808   -2.2021    2.7594 H.spc      1 <1>        0.000
     25 H           2.1067   -2.8057   -3.9025 H.spc      1 <1>        0.000
     26 H           0.3797   -3.2422   -0.8299 H.spc      1 <1>        0.000
     27 H           4.1294   -1.7446   -0.3979 H.spc      1 <1>        0.000
     28 H           3.4374   -1.2219   -5.2091 H.spc      1 <1>        0.000
     29 H           5.5977   -0.2117   -1.6432 H.spc      1 <1>        0.000
     30 H           5.1657    0.1440   -4.0642 H.spc      1 <1>        0.000
@<TRIPOS>BOND
     1    2    5 1  
     2    2    4 ar 
     3    3    6 ar 
     4   17   19 ar 
     5    4    7 ar 
     6    6    7 ar 
     7    9   11 2  
     8   10   12 1  
     9   16   18 ar 
    10   12   15 2  
    11    9   10 am 
    12   13   16 ar 
    13    7    9 1  
    14   12   14 2  
    15   12   13 1  
    16   18   19 ar 
    17    8   17 ar 
    18   13    8 ar 
    19    1    3 ar 
    20    1    2 ar 
    21    1   20 1  
    22    3   21 1  
    23    4   22 1  
    24    5   23 1  
    25    6   24 1  
    26    8   25 1  
    27   10   26 1  
    28   16   27 1  
    29   17   28 1  
    30   18   29 1  
    31   19   30 1  
# Name:          frag5-677-62/138278 -- energy: -0.633137
# Creation time: Sat Jun  5 12:51:54 2010


@<TRIPOS>MOLECULE
frag5-677-62/138278 -- energy: -0.633137
   30    31     1     1     1
SMALL
USER_CHARGES


@<TRIPOS>ATOM
      1 C9         -2.1432   -0.0523    1.3501 C.ar       1 <1>        0.000
      2 C12        -1.0130    0.3541    2.0560 C.ar       1 <1>        0.000
      3 C13        -2.1717   -0.8865    0.2260 C.ar       1 <1>        0.000
      4 C15         0.1307   -0.2543    1.5666 C.ar       1 <1>        0.000
      5 O1         -1.0412    1.1611    3.1155 O.3        1 <1>        0.000
      6 C16        -0.9803   -1.3655   -0.2482 C.ar       1 <1>        0.000
      7 C17         0.1642   -0.9444    0.3705 C.ar       1 <1>        0.000
      8 C26         3.0725   -2.8532   -3.5264 C.ar       1 <1>        0.000
      9 C20         1.4617   -1.3792   -0.1217 C.2        1 <1>        0.000
     10 N3          1.4736   -2.5430   -0.7929 N.am       1 <1>        0.000
     11 O4          2.4782   -0.7789    0.1503 O.2        1 <1>        0.000
     12 S1          2.6165   -3.6135   -0.9053 S.o2       1 <1>        0.000
     13 C25         3.5028   -2.8825   -2.1913 C.ar       1 <1>        0.000
     14 O5          3.3325   -3.5343    0.3271 O.2        1 <1>        0.000
     15 O6          2.0027   -4.8046   -1.4071 O.2        1 <1>        0.000
     16 C27         4.6007   -2.0639   -1.9812 C.ar       1 <1>        0.000
     17 C28         3.8352   -2.3620   -4.5887 C.ar       1 <1>        0.000
     18 C30         5.4373   -1.6004   -2.9889 C.ar       1 <1>        0.000
     19 C31         5.0320   -1.7375   -4.2995 C.ar       1 <1>        0.000
     20 H          -3.1036    0.3170    1.7097 H.spc      1 <1>        0.000
     21 H          -3.1137   -1.1465   -0.2567 H.spc      1 <1>        0.000
     22 H           1.0472   -0.1854    2.1526 H.spc      1 <1>        0.000
     23 H          -1.9410    1.4610    3.2641 H.spc      1 <1>        0.000
     24 H          -0.9451   -2.0580   -1.0892 H.spc      1 <1>        0.000
     25 H           2.0778   -3.2390   -3.7494 H.spc      1 <1>        0.000
     26 H           0.6176   -2.7625   -1.3023 H.spc      1 <1>        0.000
     27 H           4.8228   -1.7636   -0.9572 H.spc      1 <1>        0.000
     28 H           3.4945   -2.4689   -5.6185 H.spc      1 <1>        0.000
     29 H           6.3945   -1.1378   -2.7482 H.spc      1 <1>        0.000
     30 H           5.6558   -1.3532   -5.1065 H.spc      1 <1>        0.000
@<TRIPOS>BOND
     1    2    5 1  
     2    2    4 ar 
     3    3    6 ar 
     4   17   19 ar 
     5    4    7 ar 
     6    6    7 ar 
     7    9   11 2  
     8   10   12 1  
     9   16   18 ar 
    10   12   15 2  
    11    9   10 am 
    12   13   16 ar 
    13    7    9 1  
    14   12   14 2  
    15   12   13 1  
    16   18   19 ar 
    17    8   17 ar 
    18   13    8 ar 
    19    1    3 ar 
    20    1    2 ar 
    21    1   20 1  
    22    3   21 1  
    23    4   22 1  
    24    5   23 1  
    25    6   24 1  
    26    8   25 1  
    27   10   26 1  
    28   16   27 1  
    29   17   28 1  
    30   18   29 1  
    31   19   30 1  
# Name:          frag5-677-62/138278 -- energy: -2.811027
# Creation time: Sat Jun  5 12:51:54 2010


@<TRIPOS>MOLECULE
frag5-677-62/138278 -- energy: -2.811027
   30    31     1     1     1
SMALL
USER_CHARGES


@<TRIPOS>ATOM
      1 C9         -2.2278   -0.6658    1.1384 C.ar       1 <1>        0.000
      2 C12        -1.3585    0.3269    1.5910 C.ar       1 <1>        0.000
      3 C13        -1.8745   -1.8652    0.5244 C.ar       1 <1>        0.000
      4 C15        -0.0351   -0.0929    1.4673 C.ar       1 <1>        0.000
      5 O1         -1.7075    1.5001    2.1019 O.3        1 <1>        0.000
      6 C16        -0.5212   -2.1321    0.3670 C.ar       1 <1>        0.000
      7 C17         0.4538   -1.2579    0.8811 C.ar       1 <1>        0.000
      8 C26         3.8047   -3.5193   -3.2609 C.ar       1 <1>        0.000
      9 C20         1.9334   -1.4458    0.8753 C.2        1 <1>        0.000
     10 N3          2.4518   -2.2562   -0.0659 N.am       1 <1>        0.000
     11 O4          2.6842   -0.8729    1.6466 O.2        1 <1>        0.000
     12 S1          1.9939   -2.7877   -1.4846 S.o2       1 <1>        0.000
     13 C25         3.3740   -2.5262   -2.4197 C.ar       1 <1>        0.000
     14 O5          1.7625   -4.1893   -1.2622 O.2        1 <1>        0.000
     15 O6          0.9801   -1.9306   -2.0379 O.2        1 <1>        0.000
     16 C27         4.2992   -1.4659   -2.3475 C.ar       1 <1>        0.000
     17 C28         4.7967   -3.3894   -4.2096 C.ar       1 <1>        0.000
     18 C30         5.3799   -1.2979   -3.2204 C.ar       1 <1>        0.000
     19 C31         5.6019   -2.2728   -4.1734 C.ar       1 <1>        0.000
     20 H          -3.2932   -0.4842    1.2798 H.spc      1 <1>        0.000
     21 H          -2.6328   -2.5684    0.1801 H.spc      1 <1>        0.000
     22 H           0.7156    0.5786    1.8840 H.spc      1 <1>        0.000
     23 H          -2.6640    1.5808    2.0910 H.spc      1 <1>        0.000
     24 H          -0.2095   -3.0323   -0.1627 H.spc      1 <1>        0.000
     25 H           3.3227   -4.4929   -3.1723 H.spc      1 <1>        0.000
     26 H           3.3673   -2.6177    0.2016 H.spc      1 <1>        0.000
     27 H           4.1639   -0.7264   -1.5582 H.spc      1 <1>        0.000
     28 H           4.9406   -4.1546   -4.9724 H.spc      1 <1>        0.000
     29 H           6.0272   -0.4237   -3.1504 H.spc      1 <1>        0.000
     30 H           6.4115   -2.1587   -4.8942 H.spc      1 <1>        0.000
@<TRIPOS>BOND
     1    2    5 1  
     2    2    4 ar 
     3    3    6 ar 
     4   17   19 ar 
     5    4    7 ar 
     6    6    7 ar 
     7    9   11 2  
     8   10   12 1  
     9   16   18 ar 
    10   12   15 2  
    11    9   10 am 
    12   13   16 ar 
    13    7    9 1  
    14   12   14 2  
    15   12   13 1  
    16   18   19 ar 
    17    8   17 ar 
    18   13    8 ar 
    19    1    3 ar 
    20    1    2 ar 
    21    1   20 1  
    22    3   21 1  
    23    4   22 1  
    24    5   23 1  
    25    6   24 1  
    26    8   25 1  
    27   10   26 1  
    28   16   27 1  
    29   17   28 1  
    30   18   29 1  
    31   19   30 1  
# Name:          frag5-677-62/138278 -- energy: -3.049520
# Creation time: Sat Jun  5 12:51:54 2010


@<TRIPOS>MOLECULE
frag5-677-62/138278 -- energy: -3.049520
   30    31     1     1     1
SMALL
USER_CHARGES


@<TRIPOS>ATOM
      1 C9         -2.1218   -0.3679    1.3312 C.ar       1 <1>        0.000
      2 C12        -1.8705   -1.7296    1.1178 C.ar       1 <1>        0.000
      3 C13        -1.1723    0.6515    1.3796 C.ar       1 <1>        0.000
      4 C15        -0.5073   -1.9421    0.8263 C.ar       1 <1>        0.000
      5 O1         -2.8091   -2.6720    1.1466 O.3        1 <1>        0.000
      6 C16         0.1553    0.3183    1.1951 C.ar       1 <1>        0.000
      7 C17         0.5400   -0.9978    1.0044 C.ar       1 <1>        0.000
      8 C26         3.5032   -1.6052   -3.6135 C.ar       1 <1>        0.000
      9 C20         1.9930   -1.2828    0.9671 C.2        1 <1>        0.000
     10 N3          2.5674   -1.7062   -0.1747 N.am       1 <1>        0.000
     11 O4          2.6963   -1.1707    1.9513 O.2        1 <1>        0.000
     12 S1          2.0212   -2.3333   -1.5198 S.o2       1 <1>        0.000
     13 C25         3.4172   -2.3667   -2.4689 C.ar       1 <1>        0.000
     14 O5          1.6394   -3.6639   -1.1647 O.2        1 <1>        0.000
     15 O6          1.0933   -1.3500   -2.0497 O.2        1 <1>        0.000
     16 C27         4.6634   -2.9242   -2.1158 C.ar       1 <1>        0.000
     17 C28         4.5522   -1.6265   -4.5169 C.ar       1 <1>        0.000
     18 C30         5.7504   -3.0230   -2.9904 C.ar       1 <1>        0.000
     19 C31         5.6801   -2.3487   -4.1942 C.ar       1 <1>        0.000
     20 H          -3.1626   -0.0769    1.4734 H.spc      1 <1>        0.000
     21 H          -1.4698    1.6847    1.5584 H.spc      1 <1>        0.000
     22 H          -0.2318   -2.9188    0.4284 H.spc      1 <1>        0.000
     23 H          -3.6539   -2.2740    1.3693 H.spc      1 <1>        0.000
     24 H           0.9115    1.1033    1.1997 H.spc      1 <1>        0.000
     25 H           2.6754   -0.9286   -3.8260 H.spc      1 <1>        0.000
     26 H           3.5817   -1.5984   -0.1713 H.spc      1 <1>        0.000
     27 H           4.7870   -3.3007   -1.1004 H.spc      1 <1>        0.000
     28 H           4.4872   -1.0849   -5.4606 H.spc      1 <1>        0.000
     29 H           6.6277   -3.6150   -2.7297 H.spc      1 <1>        0.000
     30 H           6.5184   -2.3882   -4.8897 H.spc      1 <1>        0.000
@<TRIPOS>BOND
     1    2    5 1  
     2    2    4 ar 
     3    3    6 ar 
     4   17   19 ar 
     5    4    7 ar 
     6    6    7 ar 
     7    9   11 2  
     8   10   12 1  
     9   16   18 ar 
    10   12   15 2  
    11    9   10 am 
    12   13   16 ar 
    13    7    9 1  
    14   12   14 2  
    15   12   13 1  
    16   18   19 ar 
    17    8   17 ar 
    18   13    8 ar 
    19    1    3 ar 
    20    1    2 ar 
    21    1   20 1  
    22    3   21 1  
    23    4   22 1  
    24    5   23 1  
    25    6   24 1  
    26    8   25 1  
    27   10   26 1  
    28   16   27 1  
    29   17   28 1  
    30   18   29 1  
    31   19   30 1  
# Name:          frag5-677-62/138278 -- energy: -2.772387
# Creation time: Sat Jun  5 12:51:54 2010


@<TRIPOS>MOLECULE
frag5-677-62/138278 -- energy: -2.772387
   30    31     1     1     1
SMALL
USER_CHARGES


@<TRIPOS>ATOM
      1 C9         -1.3178    0.5547    1.2716 C.ar       1 <1>        0.000
      2 C12        -0.2030    0.8376    0.4699 C.ar       1 <1>        0.000
      3 C13        -1.7475   -0.7026    1.7105 C.ar       1 <1>        0.000
      4 C15         0.5254   -0.3188    0.2404 C.ar       1 <1>        0.000
      5 O1          0.1333    2.0467    0.0528 O.3        1 <1>        0.000
      6 C16        -1.0349   -1.7987    1.3434 C.ar       1 <1>        0.000
      7 C17         0.0834   -1.6048    0.5811 C.ar       1 <1>        0.000
      8 C26         2.4892   -2.2823   -2.9617 C.ar       1 <1>        0.000
      9 C20         0.8004   -2.7935    0.2497 C.2        1 <1>        0.000
     10 N3          2.1538   -2.7217    0.2066 N.am       1 <1>        0.000
     11 O4          0.2073   -3.8044   -0.0491 O.2        1 <1>        0.000
     12 S1          3.2135   -3.5665   -0.5973 S.o2       1 <1>        0.000
     13 C25         3.4394   -2.5511   -1.9490 C.ar       1 <1>        0.000
     14 O5          4.3665   -3.5535    0.2647 O.2        1 <1>        0.000
     15 O6          2.5979   -4.7783   -1.0848 O.2        1 <1>        0.000
     16 C27         4.5319   -1.6940   -2.0727 C.ar       1 <1>        0.000
     17 C28         2.7333   -1.5339   -4.1154 C.ar       1 <1>        0.000
     18 C30         4.8716   -0.9858   -3.2156 C.ar       1 <1>        0.000
     19 C31         3.9476   -0.8900   -4.2341 C.ar       1 <1>        0.000
     20 H          -1.9162    1.4090    1.5882 H.spc      1 <1>        0.000
     21 H          -2.6360   -0.8002    2.3343 H.spc      1 <1>        0.000
     22 H           1.5019   -0.2225   -0.2342 H.spc      1 <1>        0.000
     23 H          -0.5310    2.6785    0.3376 H.spc      1 <1>        0.000
     24 H          -1.3440   -2.7991    1.6462 H.spc      1 <1>        0.000
     25 H           1.4874   -2.6915   -2.8314 H.spc      1 <1>        0.000
     26 H           2.5560   -1.9940    0.7975 H.spc      1 <1>        0.000
     27 H           5.1719   -1.5703   -1.1991 H.spc      1 <1>        0.000
     28 H           1.9829   -1.4604   -4.9026 H.spc      1 <1>        0.000
     29 H           5.8500   -0.5142   -3.3068 H.spc      1 <1>        0.000
     30 H           4.1750   -0.3090   -5.1279 H.spc      1 <1>        0.000
@<TRIPOS>BOND
     1    2    5 1  
     2    2    4 ar 
     3    3    6 ar 
     4   17   19 ar 
     5    4    7 ar 
     6    6    7 ar 
     7    9   11 2  
     8   10   12 1  
     9   16   18 ar 
    10   12   15 2  
    11    9   10 am 
    12   13   16 ar 
    13    7    9 1  
    14   12   14 2  
    15   12   13 1  
    16   18   19 ar 
    17    8   17 ar 
    18   13    8 ar 
    19    1    3 ar 
    20    1    2 ar 
    21    1   20 1  
    22    3   21 1  
    23    4   22 1  
    24    5   23 1  
    25    6   24 1  
    26    8   25 1  
    27   10   26 1  
    28   16   27 1  
    29   17   28 1  
    30   18   29 1  
    31   19   30 1  
# Name:          frag5-677-62/138278 -- energy: -3.131252
# Creation time: Sat Jun  5 12:51:54 2010


@<TRIPOS>MOLECULE
frag5-677-62/138278 -- energy: -3.131252
   30    31     1     1     1
SMALL
USER_CHARGES


@<TRIPOS>ATOM
      1 C9         -1.9548   -0.0186    1.0442 C.ar       1 <1>        0.000
      2 C12        -0.7104    0.4920    1.4159 C.ar       1 <1>        0.000
      3 C13        -2.2085   -1.2804    0.4988 C.ar       1 <1>        0.000
      4 C15         0.2857   -0.4957    1.2917 C.ar       1 <1>        0.000
      5 O1         -0.5101    1.7377    1.8600 O.3        1 <1>        0.000
      6 C16        -1.1358   -2.1319    0.3030 C.ar       1 <1>        0.000
      7 C17         0.1218   -1.8165    0.7804 C.ar       1 <1>        0.000
      8 C26         4.6055   -1.6133   -2.8403 C.ar       1 <1>        0.000
      9 C20         1.1793   -2.8490    0.6795 C.2        1 <1>        0.000
     10 N3          2.2355   -2.6504   -0.1310 N.am       1 <1>        0.000
     11 O4          1.1019   -3.9023    1.2956 O.2        1 <1>        0.000
     12 S1          2.8185   -1.3967   -0.9228 S.o2       1 <1>        0.000
     13 C25         3.4900   -2.1603   -2.2724 C.ar       1 <1>        0.000
     14 O5          1.7330   -0.5877   -1.3591 O.2        1 <1>        0.000
     15 O6          3.8669   -0.8822   -0.0748 O.2        1 <1>        0.000
     16 C27         3.1309   -3.3905   -2.8687 C.ar       1 <1>        0.000
     17 C28         5.2472   -2.0733   -3.9749 C.ar       1 <1>        0.000
     18 C30         3.7087   -3.8995   -4.0396 C.ar       1 <1>        0.000
     19 C31         4.7861   -3.2222   -4.5747 C.ar       1 <1>        0.000
     20 H          -2.8161    0.6324    1.1943 H.spc      1 <1>        0.000
     21 H          -3.2216   -1.5845    0.2355 H.spc      1 <1>        0.000
     22 H           1.2878   -0.2215    1.6213 H.spc      1 <1>        0.000
     23 H          -1.3419    2.2169    1.8515 H.spc      1 <1>        0.000
     24 H          -1.2853   -3.0670   -0.2368 H.spc      1 <1>        0.000
     25 H           5.0281   -0.7339   -2.3544 H.spc      1 <1>        0.000
     26 H           2.7892   -3.4957   -0.2700 H.spc      1 <1>        0.000
     27 H           2.3532   -3.9823   -2.3859 H.spc      1 <1>        0.000
     28 H           6.1018   -1.5362   -4.3863 H.spc      1 <1>        0.000
     29 H           3.3199   -4.8013   -4.5127 H.spc      1 <1>        0.000
     30 H           5.2725   -3.5987   -5.4746 H.spc      1 <1>        0.000
@<TRIPOS>BOND
     1    2    5 1  
     2    2    4 ar 
     3    3    6 ar 
     4   17   19 ar 
     5    4    7 ar 
     6    6    7 ar 
     7    9   11 2  
     8   10   12 1  
     9   16   18 ar 
    10   12   15 2  
    11    9   10 am 
    12   13   16 ar 
    13    7    9 1  
    14   12   14 2  
    15   12   13 1  
    16   18   19 ar 
    17    8   17 ar 
    18   13    8 ar 
    19    1    3 ar 
    20    1    2 ar 
    21    1   20 1  
    22    3   21 1  
    23    4   22 1  
    24    5   23 1  
    25    6   24 1  
    26    8   25 1  
    27   10   26 1  
    28   16   27 1  
    29   17   28 1  
    30   18   29 1  
    31   19   30 1  
# Name:          frag5-677-62/138278 -- energy: -2.627528
# Creation time: Sat Jun  5 12:51:54 2010


@<TRIPOS>MOLECULE
frag5-677-62/138278 -- energy: -2.627528
   30    31     1     1     1
SMALL
USER_CHARGES


@<TRIPOS>ATOM
      1 C9         -1.9074   -0.2642    0.5947 C.ar       1 <1>        0.000
      2 C12        -0.9337    0.6207    1.0534 C.ar       1 <1>        0.000
      3 C13        -1.7018   -1.5773    0.1797 C.ar       1 <1>        0.000
      4 C15         0.2942   -0.0226    1.1422 C.ar       1 <1>        0.000
      5 O1         -1.1452    1.8830    1.3879 O.3        1 <1>        0.000
      6 C16        -0.4744   -2.1507    0.4119 C.ar       1 <1>        0.000
      7 C17         0.5835   -1.3581    0.8532 C.ar       1 <1>        0.000
      8 C26         3.4636   -3.0885   -3.4238 C.ar       1 <1>        0.000
      9 C20         1.9719   -1.8277    1.0502 C.2        1 <1>        0.000
     10 N3          2.4289   -2.8809    0.3076 N.am       1 <1>        0.000
     11 O4          2.7551   -1.2570    1.8061 O.2        1 <1>        0.000
     12 S1          2.2071   -3.5653   -1.1277 S.o2       1 <1>        0.000
     13 C25         3.2081   -2.6352   -2.1398 C.ar       1 <1>        0.000
     14 O5          2.7100   -4.9204   -1.0135 O.2        1 <1>        0.000
     15 O6          0.8857   -3.3113   -1.6434 O.2        1 <1>        0.000
     16 C27         3.8819   -1.4082   -1.9133 C.ar       1 <1>        0.000
     17 C28         4.1403   -2.4234   -4.4239 C.ar       1 <1>        0.000
     18 C30         4.6585   -0.7179   -2.8589 C.ar       1 <1>        0.000
     19 C31         4.7650   -1.2360   -4.1318 C.ar       1 <1>        0.000
     20 H          -2.9311    0.1083    0.5570 H.spc      1 <1>        0.000
     21 H          -2.4946   -2.1367   -0.3170 H.spc      1 <1>        0.000
     22 H           1.1325    0.5880    1.4776 H.spc      1 <1>        0.000
     23 H          -2.0683    2.1015    1.2406 H.spc      1 <1>        0.000
     24 H          -0.3293   -3.2191    0.2518 H.spc      1 <1>        0.000
     25 H           3.0878   -4.0814   -3.6707 H.spc      1 <1>        0.000
     26 H           3.1358   -3.3957    0.8327 H.spc      1 <1>        0.000
     27 H           3.7896   -0.9633   -0.9225 H.spc      1 <1>        0.000
     28 H           4.1789   -2.8345   -5.4327 H.spc      1 <1>        0.000
     29 H           5.1665    0.2086   -2.5914 H.spc      1 <1>        0.000
     30 H           5.3373   -0.7103   -4.8961 H.spc      1 <1>        0.000
@<TRIPOS>BOND
     1    2    5 1  
     2    2    4 ar 
     3    3    6 ar 
     4   17   19 ar 
     5    4    7 ar 
     6    6    7 ar 
     7    9   11 2  
     8   10   12 1  
     9   16   18 ar 
    10   12   15 2  
    11    9   10 am 
    12   13   16 ar 
    13    7    9 1  
    14   12   14 2  
    15   12   13 1  
    16   18   19 ar 
    17    8   17 ar 
    18   13    8 ar 
    19    1    3 ar 
    20    1    2 ar 
    21    1   20 1  
    22    3   21 1  
    23    4   22 1  
    24    5   23 1  
    25    6   24 1  
    26    8   25 1  
    27   10   26 1  
    28   16   27 1  
    29   17   28 1  
    30   18   29 1  
    31   19   30 1  
# Name:          frag5-677-62/138278 -- energy: -3.508150
# Creation time: Sat Jun  5 12:51:54 2010


@<TRIPOS>MOLECULE
frag5-677-62/138278 -- energy: -3.508150
   30    31     1     1     1
SMALL
USER_CHARGES


@<TRIPOS>ATOM
      1 C9         -1.8419    0.0019    0.5056 C.ar       1 <1>        0.000
      2 C12        -1.7108   -1.1990    1.2077 C.ar       1 <1>        0.000
      3 C13        -0.8111    0.7225   -0.1040 C.ar       1 <1>        0.000
      4 C15        -0.3825   -1.6657    1.1440 C.ar       1 <1>        0.000
      5 O1         -2.7195   -1.8344    1.7911 O.3        1 <1>        0.000
      6 C16         0.4799    0.2282   -0.0167 C.ar       1 <1>        0.000
      7 C17         0.7406   -0.9232    0.7070 C.ar       1 <1>        0.000
      8 C26         4.5695   -2.9757   -2.3457 C.ar       1 <1>        0.000
      9 C20         2.1390   -1.3856    0.9455 C.2        1 <1>        0.000
     10 N3          2.5954   -2.4787    0.2795 N.am       1 <1>        0.000
     11 O4          2.8754   -0.7907    1.6983 O.2        1 <1>        0.000
     12 S1          2.1858   -3.2850   -1.0194 S.o2       1 <1>        0.000
     13 C25         3.2375   -2.5935   -2.1761 C.ar       1 <1>        0.000
     14 O5          2.5649   -4.6353   -0.7106 O.2        1 <1>        0.000
     15 O6          0.8486   -2.8776   -1.3641 O.2        1 <1>        0.000
     16 C27         2.9784   -1.3993   -2.8670 C.ar       1 <1>        0.000
     17 C28         5.3649   -2.5915   -3.4229 C.ar       1 <1>        0.000
     18 C30         3.7399   -0.9166   -3.9309 C.ar       1 <1>        0.000
     19 C31         4.9373   -1.5417   -4.2106 C.ar       1 <1>        0.000
     20 H          -2.8464    0.4174    0.4255 H.spc      1 <1>        0.000
     21 H          -1.0182    1.6513   -0.6355 H.spc      1 <1>        0.000
     22 H          -0.2035   -2.6933    1.4605 H.spc      1 <1>        0.000
     23 H          -3.5204   -1.3130    1.6998 H.spc      1 <1>        0.000
     24 H           1.2948    0.7483   -0.5203 H.spc      1 <1>        0.000
     25 H           5.0163   -3.6166   -1.5856 H.spc      1 <1>        0.000
     26 H           3.4133   -2.8844    0.7342 H.spc      1 <1>        0.000
     27 H           2.1205   -0.8068   -2.5491 H.spc      1 <1>        0.000
     28 H           6.3010   -3.1067   -3.6382 H.spc      1 <1>        0.000
     29 H           3.3984   -0.0689   -4.5249 H.spc      1 <1>        0.000
     30 H           5.5445   -1.2074   -5.0518 H.spc      1 <1>        0.000
@<TRIPOS>BOND
     1    2    5 1  
     2    2    4 ar 
     3    3    6 ar 
     4   17   19 ar 
     5    4    7 ar 
     6    6    7 ar 
     7    9   11 2  
     8   10   12 1  
     9   16   18 ar 
    10   12   15 2  
    11    9   10 am 
    12   13   16 ar 
    13    7    9 1  
    14   12   14 2  
    15   12   13 1  
    16   18   19 ar 
    17    8   17 ar 
    18   13    8 ar 
    19    1    3 ar 
    20    1    2 ar 
    21    1   20 1  
    22    3   21 1  
    23    4   22 1  
    24    5   23 1  
    25    6   24 1  
    26    8   25 1  
    27   10   26 1  
    28   16   27 1  
    29   17   28 1  
    30   18   29 1  
    31   19   30 1  
# Name:          frag5-677-62/138278 -- energy: -3.031626
# Creation time: Sat Jun  5 12:51:54 2010


@<TRIPOS>MOLECULE
frag5-677-62/138278 -- energy: -3.031626
   30    31     1     1     1
SMALL
USER_CHARGES


@<TRIPOS>ATOM
      1 C9         -2.0688   -0.0945    0.9913 C.ar       1 <1>        0.000
      2 C12        -1.7157   -1.1738    1.8011 C.ar       1 <1>        0.000
      3 C13        -1.2272    0.6024    0.1196 C.ar       1 <1>        0.000
      4 C15        -0.3925   -1.5706    1.5420 C.ar       1 <1>        0.000
      5 O1         -2.5373   -1.7765    2.6549 O.3        1 <1>        0.000
      6 C16         0.0957    0.2000    0.0262 C.ar       1 <1>        0.000
      7 C17         0.5703   -0.8428    0.8149 C.ar       1 <1>        0.000
      8 C26         4.4136   -1.5428   -2.4113 C.ar       1 <1>        0.000
      9 C20         2.0167   -1.1980    0.8914 C.2        1 <1>        0.000
     10 N3          2.5617   -1.9068   -0.1153 N.am       1 <1>        0.000
     11 O4          2.7151   -0.9049    1.8424 O.2        1 <1>        0.000
     12 S1          2.0072   -2.6127   -1.4190 S.o2       1 <1>        0.000
     13 C25         3.3611   -2.5017   -2.4321 C.ar       1 <1>        0.000
     14 O5          1.7695   -3.9605   -0.9912 O.2        1 <1>        0.000
     15 O6          0.9859   -1.7839   -2.0172 O.2        1 <1>        0.000
     16 C27         3.6007   -3.5055   -3.3304 C.ar       1 <1>        0.000
     17 C28         5.4914   -1.5280   -3.3085 C.ar       1 <1>        0.000
     18 C30         4.5903   -3.5110   -4.2912 C.ar       1 <1>        0.000
     19 C31         5.5536   -2.5293   -4.2566 C.ar       1 <1>        0.000
     20 H          -3.1052    0.2391    1.0434 H.spc      1 <1>        0.000
     21 H          -1.6010    1.4392   -0.4704 H.spc      1 <1>        0.000
     22 H          -0.0808   -2.5352    1.9425 H.spc      1 <1>        0.000
     23 H          -3.3834   -1.3229    2.6574 H.spc      1 <1>        0.000
     24 H           0.7677    0.7033   -0.6689 H.spc      1 <1>        0.000
     25 H           4.3792   -0.7675   -1.6459 H.spc      1 <1>        0.000
     26 H           3.5709   -2.0143   -0.0138 H.spc      1 <1>        0.000
     27 H           2.9511   -4.3795   -3.2825 H.spc      1 <1>        0.000
     28 H           6.2547   -0.7515   -3.2588 H.spc      1 <1>        0.000
     29 H           4.6088   -4.2794   -5.0641 H.spc      1 <1>        0.000
     30 H           6.3686   -2.5423   -4.9803 H.spc      1 <1>        0.000
@<TRIPOS>BOND
     1    2    5 1  
     2    2    4 ar 
     3    3    6 ar 
     4   17   19 ar 
     5    4    7 ar 
     6    6    7 ar 
     7    9   11 2  
     8   10   12 1  
     9   16   18 ar 
    10   12   15 2  
    11    9   10 am 
    12   13   16 ar 
    13    7    9 1  
    14   12   14 2  
    15   12   13 1  
    16   18   19 ar 
    17    8   17 ar 
    18   13    8 ar 
    19    1    3 ar 
    20    1    2 ar 
    21    1   20 1  
    22    3   21 1  
    23    4   22 1  
    24    5   23 1  
    25    6   24 1  
    26    8   25 1  
    27   10   26 1  
    28   16   27 1  
    29   17   28 1  
    30   18   29 1  
    31   19   30 1  
# Name:          frag5-677-62/138278 -- energy: -4.854313
# Creation time: Sat Jun  5 12:51:54 2010


@<TRIPOS>MOLECULE
frag5-677-62/138278 -- energy: -4.854313
   30    31     1     1     1
SMALL
USER_CHARGES


@<TRIPOS>ATOM
      1 C9         -0.4004    0.6897    0.7290 C.ar       1 <1>        0.000
      2 C12        -0.4765    0.2190   -0.5811 C.ar       1 <1>        0.000
      3 C13         0.0266   -0.0406    1.8440 C.ar       1 <1>        0.000
      4 C15         0.0323   -1.0797   -0.6848 C.ar       1 <1>        0.000
      5 O1         -0.9346    0.9458   -1.6050 O.3        1 <1>        0.000
      6 C16         0.4169   -1.3576    1.6549 C.ar       1 <1>        0.000
      7 C17         0.3571   -1.9337    0.3935 C.ar       1 <1>        0.000
      8 C26         3.4344   -2.6423   -2.8928 C.ar       1 <1>        0.000
      9 C20         0.5965   -3.3922    0.1461 C.2        1 <1>        0.000
     10 N3          1.7710   -3.7836   -0.4277 N.am       1 <1>        0.000
     11 O4         -0.1807   -4.2236    0.5369 O.2        1 <1>        0.000
     12 S1          3.2705   -3.2947   -0.2332 S.o2       1 <1>        0.000
     13 C25         3.3262   -2.2198   -1.5629 C.ar       1 <1>        0.000
     14 O5          3.2699   -2.5808    1.0071 O.2        1 <1>        0.000
     15 O6          4.1174   -4.4116   -0.5102 O.2        1 <1>        0.000
     16 C27         2.9898   -0.8780   -1.4717 C.ar       1 <1>        0.000
     17 C28         3.5819   -1.7790   -3.9786 C.ar       1 <1>        0.000
     18 C30         3.1519    0.0450   -2.4949 C.ar       1 <1>        0.000
     19 C31         3.4412   -0.4232   -3.7578 C.ar       1 <1>        0.000
     20 H          -0.7016    1.7230    0.9010 H.spc      1 <1>        0.000
     21 H           0.0517    0.4138    2.8345 H.spc      1 <1>        0.000
     22 H           0.1932   -1.4691   -1.6901 H.spc      1 <1>        0.000
     23 H          -1.2289    1.8008   -1.2827 H.spc      1 <1>        0.000
     24 H           0.7728   -1.9441    2.5019 H.spc      1 <1>        0.000
     25 H           3.4013   -3.7133   -3.0927 H.spc      1 <1>        0.000
     26 H           1.6666   -4.5328   -1.1119 H.spc      1 <1>        0.000
     27 H           2.5687   -0.5235   -0.5309 H.spc      1 <1>        0.000
     28 H           3.8022   -2.1642   -4.9742 H.spc      1 <1>        0.000
     29 H           3.0528    1.1136   -2.3043 H.spc      1 <1>        0.000
     30 H           3.5592    0.2778   -4.5841 H.spc      1 <1>        0.000
@<TRIPOS>BOND
     1    2    5 1  
     2    2    4 ar 
     3    3    6 ar 
     4   17   19 ar 
     5    4    7 ar 
     6    6    7 ar 
     7    9   11 2  
     8   10   12 1  
     9   16   18 ar 
    10   12   15 2  
    11    9   10 am 
    12   13   16 ar 
    13    7    9 1  
    14   12   14 2  
    15   12   13 1  
    16   18   19 ar 
    17    8   17 ar 
    18   13    8 ar 
    19    1    3 ar 
    20    1    2 ar 
    21    1   20 1  
    22    3   21 1  
    23    4   22 1  
    24    5   23 1  
    25    6   24 1  
    26    8   25 1  
    27   10   26 1  
    28   16   27 1  
    29   17   28 1  
    30   18   29 1  
    31   19   30 1  
# Name:          frag5-677-62/138278 -- energy: -2.592483
# Creation time: Sat Jun  5 12:51:54 2010


@<TRIPOS>MOLECULE
frag5-677-62/138278 -- energy: -2.592483
   30    31     1     1     1
SMALL
USER_CHARGES


@<TRIPOS>ATOM
      1 C9         -1.8267    0.5084    0.8968 C.ar       1 <1>        0.000
      2 C12        -0.7637    0.4578    1.8081 C.ar       1 <1>        0.000
      3 C13        -1.9910   -0.2549   -0.2708 C.ar       1 <1>        0.000
      4 C15         0.0948   -0.5651    1.4727 C.ar       1 <1>        0.000
      5 O1         -0.6238    1.2433    2.8623 O.3        1 <1>        0.000
      6 C16        -1.0376   -1.1730   -0.5842 C.ar       1 <1>        0.000
      7 C17        -0.0478   -1.3727    0.3408 C.ar       1 <1>        0.000
      8 C26         2.9109   -1.5789   -2.7713 C.ar       1 <1>        0.000
      9 C20         0.9140   -2.3705    0.0611 C.2        1 <1>        0.000
     10 N3          2.2176   -1.9979    0.0902 N.am       1 <1>        0.000
     11 O4          0.5510   -3.4945   -0.2391 O.2        1 <1>        0.000
     12 S1          3.5407   -2.7788   -0.2648 S.o2       1 <1>        0.000
     13 C25         3.6385   -2.4827   -1.9399 C.ar       1 <1>        0.000
     14 O5          4.5994   -2.0678    0.4267 O.2        1 <1>        0.000
     15 O6          3.3098   -4.1830   -0.0609 O.2        1 <1>        0.000
     16 C27         4.4461   -3.2929   -2.7182 C.ar       1 <1>        0.000
     17 C28         3.1355   -1.3716   -4.1405 C.ar       1 <1>        0.000
     18 C30         4.6864   -3.1749   -4.0741 C.ar       1 <1>        0.000
     19 C31         4.0372   -2.1912   -4.7842 C.ar       1 <1>        0.000
     20 H          -2.6185    1.2235    1.1199 H.spc      1 <1>        0.000
     21 H          -2.8622   -0.1148   -0.9108 H.spc      1 <1>        0.000
     22 H           0.9406   -0.7576    2.1328 H.spc      1 <1>        0.000
     23 H          -1.3434    1.8784    2.8845 H.spc      1 <1>        0.000
     24 H          -1.0603   -1.7227   -1.5252 H.spc      1 <1>        0.000
     25 H           2.1139   -1.0013   -2.3031 H.spc      1 <1>        0.000
     26 H           2.3700   -1.0374    0.3978 H.spc      1 <1>        0.000
     27 H           4.9476   -4.1140   -2.2060 H.spc      1 <1>        0.000
     28 H           2.6109   -0.5835   -4.6807 H.spc      1 <1>        0.000
     29 H           5.3801   -3.8512   -4.5737 H.spc      1 <1>        0.000
     30 H           4.2347   -2.0611   -5.8482 H.spc      1 <1>        0.000
@<TRIPOS>BOND
     1    2    5 1  
     2    2    4 ar 
     3    3    6 ar 
     4   17   19 ar 
     5    4    7 ar 
     6    6    7 ar 
     7    9   11 2  
     8   10   12 1  
     9   16   18 ar 
    10   12   15 2  
    11    9   10 am 
    12   13   16 ar 
    13    7    9 1  
    14   12   14 2  
    15   12   13 1  
    16   18   19 ar 
    17    8   17 ar 
    18   13    8 ar 
    19    1    3 ar 
    20    1    2 ar 
    21    1   20 1  
    22    3   21 1  
    23    4   22 1  
    24    5   23 1  
    25    6   24 1  
    26    8   25 1  
    27   10   26 1  
    28   16   27 1  
    29   17   28 1  
    30   18   29 1  
    31   19   30 1  
# Name:          frag5-677-62/138278 -- energy: -3.982540
# Creation time: Sat Jun  5 12:51:54 2010


@<TRIPOS>MOLECULE
frag5-677-62/138278 -- energy: -3.982540
   30    31     1     1     1
SMALL
USER_CHARGES


@<TRIPOS>ATOM
      1 C9         -1.6588    0.2159    0.5414 C.ar       1 <1>        0.000
      2 C12        -0.6087    0.2282    1.4662 C.ar       1 <1>        0.000
      3 C13        -1.7902   -0.6427   -0.5508 C.ar       1 <1>        0.000
      4 C15         0.2734   -0.8328    1.2283 C.ar       1 <1>        0.000
      5 O1         -0.4900    1.1058    2.4549 O.3        1 <1>        0.000
      6 C16        -0.8063   -1.5829   -0.7686 C.ar       1 <1>        0.000
      7 C17         0.2121   -1.7472    0.1526 C.ar       1 <1>        0.000
      8 C26         2.8514   -1.3596   -2.6200 C.ar       1 <1>        0.000
      9 C20         1.1253   -2.8877    0.0173 C.2        1 <1>        0.000
     10 N3          2.4079   -2.7730    0.4780 N.am       1 <1>        0.000
     11 O4          0.8219   -3.8640   -0.6407 O.2        1 <1>        0.000
     12 S1          3.5993   -1.8587   -0.0335 S.o2       1 <1>        0.000
     13 C25         3.5408   -2.1738   -1.7157 C.ar       1 <1>        0.000
     14 O5          3.1741   -0.5166    0.2477 O.2        1 <1>        0.000
     15 O6          4.8104   -2.4513    0.4935 O.2        1 <1>        0.000
     16 C27         3.9126   -3.3833   -2.3464 C.ar       1 <1>        0.000
     17 C28         2.9347   -1.4525   -4.0062 C.ar       1 <1>        0.000
     18 C30         3.9809   -3.5808   -3.7305 C.ar       1 <1>        0.000
     19 C31         3.5006   -2.5840   -4.5566 C.ar       1 <1>        0.000
     20 H          -2.4520    0.9489    0.6886 H.spc      1 <1>        0.000
     21 H          -2.6507   -0.5714   -1.2160 H.spc      1 <1>        0.000
     22 H           1.0863   -0.9664    1.9421 H.spc      1 <1>        0.000
     23 H          -1.2129    1.7359    2.4104 H.spc      1 <1>        0.000
     24 H          -0.8308   -2.1979   -1.6682 H.spc      1 <1>        0.000
     25 H           2.1974   -0.5918   -2.2066 H.spc      1 <1>        0.000
     26 H           2.6338   -3.3682    1.2749 H.spc      1 <1>        0.000
     27 H           4.1657   -4.2275   -1.7051 H.spc      1 <1>        0.000
     28 H           2.5615   -0.6499   -4.6423 H.spc      1 <1>        0.000
     29 H           4.4019   -4.4968   -4.1450 H.spc      1 <1>        0.000
     30 H           3.5683   -2.6907   -5.6393 H.spc      1 <1>        0.000
@<TRIPOS>BOND
     1    2    5 1  
     2    2    4 ar 
     3    3    6 ar 
     4   17   19 ar 
     5    4    7 ar 
     6    6    7 ar 
     7    9   11 2  
     8   10   12 1  
     9   16   18 ar 
    10   12   15 2  
    11    9   10 am 
    12   13   16 ar 
    13    7    9 1  
    14   12   14 2  
    15   12   13 1  
    16   18   19 ar 
    17    8   17 ar 
    18   13    8 ar 
    19    1    3 ar 
    20    1    2 ar 
    21    1   20 1  
    22    3   21 1  
    23    4   22 1  
    24    5   23 1  
    25    6   24 1  
    26    8   25 1  
    27   10   26 1  
    28   16   27 1  
    29   17   28 1  
    30   18   29 1  
    31   19   30 1  
# Name:          frag5-677-62/138278 -- energy: -2.975845
# Creation time: Sat Jun  5 12:51:54 2010


@<TRIPOS>MOLECULE
frag5-677-62/138278 -- energy: -2.975845
   30    31     1     1     1
SMALL
USER_CHARGES


@<TRIPOS>ATOM
      1 C9         -1.2743    0.7775    1.6707 C.ar       1 <1>        0.000
      2 C12        -1.7268   -0.5440    1.7033 C.ar       1 <1>        0.000
      3 C13        -0.1290    1.2724    1.0171 C.ar       1 <1>        0.000
      4 C15        -0.9558   -1.3304    0.8755 C.ar       1 <1>        0.000
      5 O1         -2.7749   -0.9789    2.3874 O.3        1 <1>        0.000
      6 C16         0.6491    0.3977    0.3194 C.ar       1 <1>        0.000
      7 C17         0.1688   -0.8750    0.1900 C.ar       1 <1>        0.000
      8 C26         3.5676   -1.3336   -2.3538 C.ar       1 <1>        0.000
      9 C20         0.8946   -1.8257   -0.5633 C.2        1 <1>        0.000
     10 N3          2.0408   -2.2757    0.0102 N.am       1 <1>        0.000
     11 O4          0.4943   -2.1981   -1.6478 O.2        1 <1>        0.000
     12 S1          3.0317   -3.4084   -0.4782 S.o2       1 <1>        0.000
     13 C25         3.6450   -2.6850   -1.8923 C.ar       1 <1>        0.000
     14 O5          4.0740   -3.4691    0.5368 O.2        1 <1>        0.000
     15 O6          2.2305   -4.5465   -0.8201 O.2        1 <1>        0.000
     16 C27         4.1850   -3.4874   -2.8821 C.ar       1 <1>        0.000
     17 C28         4.1548   -0.8329   -3.5203 C.ar       1 <1>        0.000
     18 C30         4.7586   -3.0699   -4.0670 C.ar       1 <1>        0.000
     19 C31         4.7576   -1.7280   -4.3749 C.ar       1 <1>        0.000
     20 H          -1.8755    1.5079    2.2122 H.spc      1 <1>        0.000
     21 H           0.1290    2.3302    1.0681 H.spc      1 <1>        0.000
     22 H          -1.2434   -2.3741    0.7488 H.spc      1 <1>        0.000
     23 H          -3.1504   -0.2531    2.8911 H.spc      1 <1>        0.000
     24 H           1.6039    0.6974   -0.1125 H.spc      1 <1>        0.000
     25 H           3.0008   -0.6316   -1.7423 H.spc      1 <1>        0.000
     26 H           2.3006   -1.8164    0.8831 H.spc      1 <1>        0.000
     27 H           4.1544   -4.5630   -2.7081 H.spc      1 <1>        0.000
     28 H           4.1357    0.2334   -3.7458 H.spc      1 <1>        0.000
     29 H           5.2060   -3.7929   -4.7491 H.spc      1 <1>        0.000
     30 H           5.2319   -1.3760   -5.2910 H.spc      1 <1>        0.000
@<TRIPOS>BOND
     1    2    5 1  
     2    2    4 ar 
     3    3    6 ar 
     4   17   19 ar 
     5    4    7 ar 
     6    6    7 ar 
     7    9   11 2  
     8   10   12 1  
     9   16   18 ar 
    10   12   15 2  
    11    9   10 am 
    12   13   16 ar 
    13    7    9 1  
    14   12   14 2  
    15   12   13 1  
    16   18   19 ar 
    17    8   17 ar 
    18   13    8 ar 
    19    1    3 ar 
    20    1    2 ar 
    21    1   20 1  
    22    3   21 1  
    23    4   22 1  
    24    5   23 1  
    25    6   24 1  
    26    8   25 1  
    27   10   26 1  
    28   16   27 1  
    29   17   28 1  
    30   18   29 1  
    31   19   30 1  
# Name:          frag5-677-62/138278 -- energy: -2.015516
# Creation time: Sat Jun  5 12:51:54 2010


@<TRIPOS>MOLECULE
frag5-677-62/138278 -- energy: -2.015516
   30    31     1     1     1
SMALL
USER_CHARGES


@<TRIPOS>ATOM
      1 C9         -1.7153    0.3299    1.7307 C.ar       1 <1>        0.000
      2 C12        -1.9845   -0.9083    1.1355 C.ar       1 <1>        0.000
      3 C13        -0.4837    0.9827    1.8131 C.ar       1 <1>        0.000
      4 C15        -0.8402   -1.3997    0.5275 C.ar       1 <1>        0.000
      5 O1         -3.1675   -1.5014    1.0972 O.3        1 <1>        0.000
      6 C16         0.6100    0.3820    1.2681 C.ar       1 <1>        0.000
      7 C17         0.4286   -0.8072    0.6181 C.ar       1 <1>        0.000
      8 C26         4.7322   -3.0455   -2.1658 C.ar       1 <1>        0.000
      9 C20         1.5868   -1.3811    0.0172 C.2        1 <1>        0.000
     10 N3          1.3541   -2.3685   -0.8891 N.am       1 <1>        0.000
     11 O4          2.7058   -1.0659    0.3519 O.2        1 <1>        0.000
     12 S1          2.2770   -3.5693   -1.2811 S.o2       1 <1>        0.000
     13 C25         3.3963   -2.7288   -2.2418 C.ar       1 <1>        0.000
     14 O5          2.8579   -4.0219   -0.0476 O.2        1 <1>        0.000
     15 O6          1.4963   -4.4468   -2.1215 O.2        1 <1>        0.000
     16 C27         3.1967   -1.5618   -3.0317 C.ar       1 <1>        0.000
     17 C28         5.7272   -2.5625   -2.9961 C.ar       1 <1>        0.000
     18 C30         4.1716   -0.9648   -3.8434 C.ar       1 <1>        0.000
     19 C31         5.4424   -1.5020   -3.8303 C.ar       1 <1>        0.000
     20 H          -2.5646    0.8433    2.1815 H.spc      1 <1>        0.000
     21 H          -0.3996    1.9526    2.3033 H.spc      1 <1>        0.000
     22 H          -0.9323   -2.3112   -0.0631 H.spc      1 <1>        0.000
     23 H          -3.8037   -0.9760    1.5880 H.spc      1 <1>        0.000
     24 H           1.5984    0.8346    1.3474 H.spc      1 <1>        0.000
     25 H           5.0339   -3.7392   -1.3811 H.spc      1 <1>        0.000
     26 H           0.4600   -2.3195   -1.3775 H.spc      1 <1>        0.000
     27 H           2.2112   -1.0969   -3.0035 H.spc      1 <1>        0.000
     28 H           6.7199   -3.0126   -2.9912 H.spc      1 <1>        0.000
     29 H           3.9328   -0.1025   -4.4659 H.spc      1 <1>        0.000
     30 H           6.2177   -1.0900   -4.4763 H.spc      1 <1>        0.000
@<TRIPOS>BOND
     1    2    5 1  
     2    2    4 ar 
     3    3    6 ar 
     4   17   19 ar 
     5    4    7 ar 
     6    6    7 ar 
     7    9   11 2  
     8   10   12 1  
     9   16   18 ar 
    10   12   15 2  
    11    9   10 am 
    12   13   16 ar 
    13    7    9 1  
    14   12   14 2  
    15   12   13 1  
    16   18   19 ar 
    17    8   17 ar 
    18   13    8 ar 
    19    1    3 ar 
    20    1    2 ar 
    21    1   20 1  
    22    3   21 1  
    23    4   22 1  
    24    5   23 1  
    25    6   24 1  
    26    8   25 1  
    27   10   26 1  
    28   16   27 1  
    29   17   28 1  
    30   18   29 1  
    31   19   30 1  
# Name:          frag5-677-62/138278 -- energy: -1.826910
# Creation time: Sat Jun  5 12:51:54 2010


@<TRIPOS>MOLECULE
frag5-677-62/138278 -- energy: -1.826910
   30    31     1     1     1
SMALL
USER_CHARGES


@<TRIPOS>ATOM
      1 C9         -1.6736    0.3295    1.4301 C.ar       1 <1>        0.000
      2 C12        -0.4341    0.8206    1.0114 C.ar       1 <1>        0.000
      3 C13        -2.1286   -0.9957    1.3689 C.ar       1 <1>        0.000
      4 C15         0.3680   -0.2235    0.5936 C.ar       1 <1>        0.000
      5 O1         -0.0465    2.0848    1.0694 O.3        1 <1>        0.000
      6 C16        -1.3049   -1.9417    0.8531 C.ar       1 <1>        0.000
      7 C17        -0.0836   -1.5281    0.4191 C.ar       1 <1>        0.000
      8 C26         2.6515   -1.7904   -2.7709 C.ar       1 <1>        0.000
      9 C20         0.7609   -2.5634   -0.0936 C.2        1 <1>        0.000
     10 N3          2.0923   -2.4233    0.0945 N.am       1 <1>        0.000
     11 O4          0.2884   -3.5016   -0.6906 O.2        1 <1>        0.000
     12 S1          3.2773   -3.2892   -0.4330 S.o2       1 <1>        0.000
     13 C25         3.5494   -2.5169   -1.9447 C.ar       1 <1>        0.000
     14 O5          4.3448   -2.9780    0.4953 O.2        1 <1>        0.000
     15 O6          2.8517   -4.6234   -0.6988 O.2        1 <1>        0.000
     16 C27         4.8275   -2.4690   -2.4468 C.ar       1 <1>        0.000
     17 C28         2.9745   -1.2121   -4.0060 C.ar       1 <1>        0.000
     18 C30         5.2036   -1.9884   -3.6838 C.ar       1 <1>        0.000
     19 C31         4.2726   -1.3312   -4.4562 C.ar       1 <1>        0.000
     20 H          -2.3650    1.0589    1.8520 H.spc      1 <1>        0.000
     21 H          -3.1232   -1.2598    1.7283 H.spc      1 <1>        0.000
     22 H           1.4176   -0.0129    0.3883 H.spc      1 <1>        0.000
     23 H          -0.7721    2.6265    1.3882 H.spc      1 <1>        0.000
     24 H          -1.6079   -2.9868    0.7891 H.spc      1 <1>        0.000
     25 H           1.6278   -1.6730   -2.4156 H.spc      1 <1>        0.000
     26 H           2.3642   -1.6272    0.6713 H.spc      1 <1>        0.000
     27 H           5.6224   -2.8481   -1.8044 H.spc      1 <1>        0.000
     28 H           2.2227   -0.6843   -4.5928 H.spc      1 <1>        0.000
     29 H           6.2228   -2.1269   -4.0444 H.spc      1 <1>        0.000
     30 H           4.5599   -0.9073   -5.4184 H.spc      1 <1>        0.000
@<TRIPOS>BOND
     1    2    5 1  
     2    2    4 ar 
     3    3    6 ar 
     4   17   19 ar 
     5    4    7 ar 
     6    6    7 ar 
     7    9   11 2  
     8   10   12 1  
     9   16   18 ar 
    10   12   15 2  
    11    9   10 am 
    12   13   16 ar 
    13    7    9 1  
    14   12   14 2  
    15   12   13 1  
    16   18   19 ar 
    17    8   17 ar 
    18   13    8 ar 
    19    1    3 ar 
    20    1    2 ar 
    21    1   20 1  
    22    3   21 1  
    23    4   22 1  
    24    5   23 1  
    25    6   24 1  
    26    8   25 1  
    27   10   26 1  
    28   16   27 1  
    29   17   28 1  
    30   18   29 1  
    31   19   30 1  
# Name:          frag5-677-62/138278 -- energy: -2.600364
# Creation time: Sat Jun  5 12:51:54 2010


@<TRIPOS>MOLECULE
frag5-677-62/138278 -- energy: -2.600364
   30    31     1     1     1
SMALL
USER_CHARGES


@<TRIPOS>ATOM
      1 C9         -1.7866   -0.0056    1.9083 C.ar       1 <1>        0.000
      2 C12        -1.4336    0.4152    0.6210 C.ar       1 <1>        0.000
      3 C13        -1.1627   -1.0059    2.6674 C.ar       1 <1>        0.000
      4 C15        -0.2956   -0.2414    0.1892 C.ar       1 <1>        0.000
      5 O1         -2.0652    1.3545   -0.0612 O.3        1 <1>        0.000
      6 C16        -0.1007   -1.6693    2.1275 C.ar       1 <1>        0.000
      7 C17         0.3669   -1.2208    0.9162 C.ar       1 <1>        0.000
      8 C26         3.3253   -2.3705   -3.6818 C.ar       1 <1>        0.000
      9 C20         1.5213   -1.8415    0.3625 C.2        1 <1>        0.000
     10 N3          1.4074   -2.3773   -0.8817 N.am       1 <1>        0.000
     11 O4          2.5344   -1.9649    1.0360 O.2        1 <1>        0.000
     12 S1          2.2090   -3.5776   -1.5148 S.o2       1 <1>        0.000
     13 C25         3.4185   -2.6954   -2.3253 C.ar       1 <1>        0.000
     14 O5          2.7804   -4.3360   -0.4354 O.2        1 <1>        0.000
     15 O6          1.3152   -4.1687   -2.4886 O.2        1 <1>        0.000
     16 C27         4.4746   -1.9934   -1.7160 C.ar       1 <1>        0.000
     17 C28         4.3176   -1.7572   -4.4298 C.ar       1 <1>        0.000
     18 C30         5.5320   -1.4072   -2.4059 C.ar       1 <1>        0.000
     19 C31         5.4332   -1.2778   -3.7769 C.ar       1 <1>        0.000
     20 H          -2.6364    0.4975    2.3696 H.spc      1 <1>        0.000
     21 H          -1.5193   -1.2482    3.6685 H.spc      1 <1>        0.000
     22 H           0.1079    0.0281   -0.7869 H.spc      1 <1>        0.000
     23 H          -2.8242    1.6582    0.4420 H.spc      1 <1>        0.000
     24 H           0.3572   -2.5184    2.6349 H.spc      1 <1>        0.000
     25 H           2.3956   -2.6201   -4.1932 H.spc      1 <1>        0.000
     26 H           0.7095   -1.9444   -1.4867 H.spc      1 <1>        0.000
     27 H           4.4641   -1.9024   -0.6299 H.spc      1 <1>        0.000
     28 H           4.2183   -1.6560   -5.5105 H.spc      1 <1>        0.000
     29 H           6.4181   -1.0582   -1.8756 H.spc      1 <1>        0.000
     30 H           6.2337   -0.7987   -4.3406 H.spc      1 <1>        0.000
@<TRIPOS>BOND
     1    2    5 1  
     2    2    4 ar 
     3    3    6 ar 
     4   17   19 ar 
     5    4    7 ar 
     6    6    7 ar 
     7    9   11 2  
     8   10   12 1  
     9   16   18 ar 
    10   12   15 2  
    11    9   10 am 
    12   13   16 ar 
    13    7    9 1  
    14   12   14 2  
    15   12   13 1  
    16   18   19 ar 
    17    8   17 ar 
    18   13    8 ar 
    19    1    3 ar 
    20    1    2 ar 
    21    1   20 1  
    22    3   21 1  
    23    4   22 1  
    24    5   23 1  
    25    6   24 1  
    26    8   25 1  
    27   10   26 1  
    28   16   27 1  
    29   17   28 1  
    30   18   29 1  
    31   19   30 1  
# Name:          frag5-677-62/138278 -- energy: -1.557650
# Creation time: Sat Jun  5 12:51:54 2010


@<TRIPOS>MOLECULE
frag5-677-62/138278 -- energy: -1.557650
   30    31     1     1     1
SMALL
USER_CHARGES


@<TRIPOS>ATOM
      1 C9         -0.9279    0.3633    2.4488 C.ar       1 <1>        0.000
      2 C12        -1.5092    0.4907    1.1834 C.ar       1 <1>        0.000
      3 C13         0.1234   -0.4806    2.8120 C.ar       1 <1>        0.000
      4 C15        -0.8307   -0.2646    0.2516 C.ar       1 <1>        0.000
      5 O1         -2.5398    1.2630    0.8910 O.3        1 <1>        0.000
      6 C16         0.6733   -1.2741    1.8448 C.ar       1 <1>        0.000
      7 C17         0.1633   -1.1724    0.5619 C.ar       1 <1>        0.000
      8 C26         3.0511   -2.1731   -3.3277 C.ar       1 <1>        0.000
      9 C20         0.6830   -1.9378   -0.5316 C.2        1 <1>        0.000
     10 N3          1.9013   -2.4875   -0.3158 N.am       1 <1>        0.000
     11 O4          0.0627   -2.1406   -1.5414 O.2        1 <1>        0.000
     12 S1          2.6424   -3.6605   -1.0409 S.o2       1 <1>        0.000
     13 C25         3.5588   -2.7868   -2.1685 C.ar       1 <1>        0.000
     14 O5          3.4631   -4.1957    0.0104 O.2        1 <1>        0.000
     15 O6          1.6608   -4.4385   -1.7534 O.2        1 <1>        0.000
     16 C27         4.8792   -2.4087   -1.9362 C.ar       1 <1>        0.000
     17 C28         3.8286   -1.5594   -4.3092 C.ar       1 <1>        0.000
     18 C30         5.7260   -1.8619   -2.8906 C.ar       1 <1>        0.000
     19 C31         5.1821   -1.4155   -4.0778 C.ar       1 <1>        0.000
     20 H          -1.3407    0.9916    3.2380 H.spc      1 <1>        0.000
     21 H           0.4945   -0.5058    3.8366 H.spc      1 <1>        0.000
     22 H          -1.0954   -0.1375   -0.7981 H.spc      1 <1>        0.000
     23 H          -2.8531    1.6928    1.6902 H.spc      1 <1>        0.000
     24 H           1.4855   -1.9634    2.0756 H.spc      1 <1>        0.000
     25 H           1.9703   -2.1775   -3.4693 H.spc      1 <1>        0.000
     26 H           2.4260   -2.0652    0.4502 H.spc      1 <1>        0.000
     27 H           5.2766   -2.5527   -0.9315 H.spc      1 <1>        0.000
     28 H           3.3791   -1.2023   -5.2358 H.spc      1 <1>        0.000
     29 H           6.7977   -1.7867   -2.7063 H.spc      1 <1>        0.000
     30 H           5.8191   -0.9508   -4.8304 H.spc      1 <1>        0.000
@<TRIPOS>BOND
     1    2    5 1  
     2    2    4 ar 
     3    3    6 ar 
     4   17   19 ar 
     5    4    7 ar 
     6    6    7 ar 
     7    9   11 2  
     8   10   12 1  
     9   16   18 ar 
    10   12   15 2  
    11    9   10 am 
    12   13   16 ar 
    13    7    9 1  
    14   12   14 2  
    15   12   13 1  
    16   18   19 ar 
    17    8   17 ar 
    18   13    8 ar 
    19    1    3 ar 
    20    1    2 ar 
    21    1   20 1  
    22    3   21 1  
    23    4   22 1  
    24    5   23 1  
    25    6   24 1  
    26    8   25 1  
    27   10   26 1  
    28   16   27 1  
    29   17   28 1  
    30   18   29 1  
    31   19   30 1  
# Name:          frag5-677-62/138278 -- energy: -3.685527
# Creation time: Sat Jun  5 12:51:54 2010


@<TRIPOS>MOLECULE
frag5-677-62/138278 -- energy: -3.685527
   30    31     1     1     1
SMALL
USER_CHARGES


@<TRIPOS>ATOM
      1 C9         -1.4464    0.3704    0.2934 C.ar       1 <1>        0.000
      2 C12        -1.5321   -0.6635    1.2325 C.ar       1 <1>        0.000
      3 C13        -0.3153    0.7340   -0.4456 C.ar       1 <1>        0.000
      4 C15        -0.3332   -1.3870    1.2601 C.ar       1 <1>        0.000
      5 O1         -2.6202   -0.9457    1.9360 O.3        1 <1>        0.000
      6 C16         0.8528    0.0144   -0.2601 C.ar       1 <1>        0.000
      7 C17         0.9011   -0.9851    0.7070 C.ar       1 <1>        0.000
      8 C26         4.1505   -1.6975   -1.8737 C.ar       1 <1>        0.000
      9 C20         2.1627   -1.6956    1.0856 C.2        1 <1>        0.000
     10 N3          2.5532   -2.7809    0.3542 N.am       1 <1>        0.000
     11 O4          2.8493   -1.3281    2.0189 O.2        1 <1>        0.000
     12 S1          2.1117   -3.4875   -0.9831 S.o2       1 <1>        0.000
     13 C25         3.1144   -2.6617   -2.0912 C.ar       1 <1>        0.000
     14 O5          2.5205   -4.8647   -0.8636 O.2        1 <1>        0.000
     15 O6          0.7436   -3.1102   -1.2696 O.2        1 <1>        0.000
     16 C27         2.8871   -2.8295   -3.4403 C.ar       1 <1>        0.000
     17 C28         4.9472   -1.1262   -2.8793 C.ar       1 <1>        0.000
     18 C30         3.5972   -2.2687   -4.4790 C.ar       1 <1>        0.000
     19 C31         4.6471   -1.4276   -4.1912 C.ar       1 <1>        0.000
     20 H          -2.3524    0.9512    0.1201 H.spc      1 <1>        0.000
     21 H          -0.3529    1.5643   -1.1508 H.spc      1 <1>        0.000
     22 H          -0.3559   -2.3563    1.7581 H.spc      1 <1>        0.000
     23 H          -3.3033   -0.3004    1.7394 H.spc      1 <1>        0.000
     24 H           1.7309    0.2298   -0.8689 H.spc      1 <1>        0.000
     25 H           4.3354   -1.3821   -0.8468 H.spc      1 <1>        0.000
     26 H           3.3401   -3.2621    0.7896 H.spc      1 <1>        0.000
     27 H           2.0543   -3.4768   -3.7154 H.spc      1 <1>        0.000
     28 H           5.7772   -0.4649   -2.6306 H.spc      1 <1>        0.000
     29 H           3.3313   -2.4880   -5.5131 H.spc      1 <1>        0.000
     30 H           5.2410   -1.0000   -4.9990 H.spc      1 <1>        0.000
@<TRIPOS>BOND
     1    2    5 1  
     2    2    4 ar 
     3    3    6 ar 
     4   17   19 ar 
     5    4    7 ar 
     6    6    7 ar 
     7    9   11 2  
     8   10   12 1  
     9   16   18 ar 
    10   12   15 2  
    11    9   10 am 
    12   13   16 ar 
    13    7    9 1  
    14   12   14 2  
    15   12   13 1  
    16   18   19 ar 
    17    8   17 ar 
    18   13    8 ar 
    19    1    3 ar 
    20    1    2 ar 
    21    1   20 1  
    22    3   21 1  
    23    4   22 1  
    24    5   23 1  
    25    6   24 1  
    26    8   25 1  
    27   10   26 1  
    28   16   27 1  
    29   17   28 1  
    30   18   29 1  
    31   19   30 1  
# Name:          frag5-677-62/138278 -- energy: -3.306815
# Creation time: Sat Jun  5 12:51:54 2010


@<TRIPOS>MOLECULE
frag5-677-62/138278 -- energy: -3.306815
   30    31     1     1     1
SMALL
USER_CHARGES


@<TRIPOS>ATOM
      1 C9         -1.8100   -0.3458    0.6225 C.ar       1 <1>        0.000
      2 C12        -0.7378    0.3429    0.0515 C.ar       1 <1>        0.000
      3 C13        -1.7589   -1.5992    1.2390 C.ar       1 <1>        0.000
      4 C15         0.4702   -0.3414    0.2921 C.ar       1 <1>        0.000
      5 O1         -0.8508    1.4986   -0.5903 O.3        1 <1>        0.000
      6 C16        -0.5324   -2.2358    1.3365 C.ar       1 <1>        0.000
      7 C17         0.6294   -1.5793    0.9512 C.ar       1 <1>        0.000
      8 C26         4.4972   -1.9960   -1.8520 C.ar       1 <1>        0.000
      9 C20         1.9707   -2.1701    1.2285 C.2        1 <1>        0.000
     10 N3          2.5658   -2.9375    0.2777 N.am       1 <1>        0.000
     11 O4          2.5177   -2.0243    2.3016 O.2        1 <1>        0.000
     12 S1          2.2312   -3.4990   -1.1592 S.o2       1 <1>        0.000
     13 C25         3.1867   -2.4656   -2.1182 C.ar       1 <1>        0.000
     14 O5          2.7461   -4.8379   -1.1921 O.2        1 <1>        0.000
     15 O6          0.8383   -3.1956   -1.4019 O.2        1 <1>        0.000
     16 C27         2.6168   -1.7485   -3.1528 C.ar       1 <1>        0.000
     17 C28         5.2689   -1.2635   -2.7610 C.ar       1 <1>        0.000
     18 C30         3.2997   -0.9856   -4.0798 C.ar       1 <1>        0.000
     19 C31         4.6427   -0.7573   -3.8824 C.ar       1 <1>        0.000
     20 H          -2.7837    0.1427    0.5836 H.spc      1 <1>        0.000
     21 H          -2.6622   -2.0645    1.6335 H.spc      1 <1>        0.000
     22 H           1.3802    0.1370   -0.0700 H.spc      1 <1>        0.000
     23 H          -1.7751    1.7559   -0.6234 H.spc      1 <1>        0.000
     24 H          -0.4789   -3.2558    1.7170 H.spc      1 <1>        0.000
     25 H           4.9315   -2.2195   -0.8776 H.spc      1 <1>        0.000
     26 H           3.4937   -3.2358    0.5785 H.spc      1 <1>        0.000
     27 H           1.5315   -1.7885   -3.2456 H.spc      1 <1>        0.000
     28 H           6.3324   -1.0976   -2.5888 H.spc      1 <1>        0.000
     29 H           2.7864   -0.5734   -4.9486 H.spc      1 <1>        0.000
     30 H           5.2108   -0.1779   -4.6102 H.spc      1 <1>        0.000
@<TRIPOS>BOND
     1    2    5 1  
     2    2    4 ar 
     3    3    6 ar 
     4   17   19 ar 
     5    4    7 ar 
     6    6    7 ar 
     7    9   11 2  
     8   10   12 1  
     9   16   18 ar 
    10   12   15 2  
    11    9   10 am 
    12   13   16 ar 
    13    7    9 1  
    14   12   14 2  
    15   12   13 1  
    16   18   19 ar 
    17    8   17 ar 
    18   13    8 ar 
    19    1    3 ar 
    20    1    2 ar 
    21    1   20 1  
    22    3   21 1  
    23    4   22 1  
    24    5   23 1  
    25    6   24 1  
    26    8   25 1  
    27   10   26 1  
    28   16   27 1  
    29   17   28 1  
    30   18   29 1  
    31   19   30 1  
# Name:          frag5-677-62/138278 -- energy: -2.682098
# Creation time: Sat Jun  5 12:51:54 2010


@<TRIPOS>MOLECULE
frag5-677-62/138278 -- energy: -2.682098
   30    31     1     1     1
SMALL
USER_CHARGES


@<TRIPOS>ATOM
      1 C9         -2.1735   -0.8795    1.7750 C.ar       1 <1>        0.000
      2 C12        -1.7573   -0.3542    0.5521 C.ar       1 <1>        0.000
      3 C13        -1.4211   -1.6895    2.6298 C.ar       1 <1>        0.000
      4 C15        -0.4089   -0.6681    0.3332 C.ar       1 <1>        0.000
      5 O1         -2.4967    0.4017   -0.2485 O.3        1 <1>        0.000
      6 C16        -0.1401   -2.0246    2.2674 C.ar       1 <1>        0.000
      7 C17         0.4288   -1.4758    1.1434 C.ar       1 <1>        0.000
      8 C26         3.8909   -1.3701   -3.5170 C.ar       1 <1>        0.000
      9 C20         1.8686   -1.7404    0.9301 C.2        1 <1>        0.000
     10 N3          2.4105   -1.5060   -0.2894 N.am       1 <1>        0.000
     11 O4          2.5748   -2.2619    1.7759 O.2        1 <1>        0.000
     12 S1          1.9491   -1.9202   -1.7496 S.o2       1 <1>        0.000
     13 C25         3.4401   -2.2018   -2.5000 C.ar       1 <1>        0.000
     14 O5          1.2490   -3.1758   -1.6193 O.2        1 <1>        0.000
     15 O6          1.3475   -0.7434   -2.3335 O.2        1 <1>        0.000
     16 C27         4.4630   -3.0766   -2.0734 C.ar       1 <1>        0.000
     17 C28         5.0382   -1.5517   -4.2622 C.ar       1 <1>        0.000
     18 C30         5.6217   -3.3467   -2.8036 C.ar       1 <1>        0.000
     19 C31         5.9068   -2.5562   -3.8996 C.ar       1 <1>        0.000
     20 H          -3.1859   -0.6340    2.0959 H.spc      1 <1>        0.000
     21 H          -1.8440   -2.0490    3.5679 H.spc      1 <1>        0.000
     22 H           0.0473   -0.2433   -0.5609 H.spc      1 <1>        0.000
     23 H          -3.3845    0.4725    0.1099 H.spc      1 <1>        0.000
     24 H           0.4285   -2.7294    2.8742 H.spc      1 <1>        0.000
     25 H           3.2836   -0.4948   -3.7474 H.spc      1 <1>        0.000
     26 H           3.2739   -0.9635   -0.2639 H.spc      1 <1>        0.000
     27 H           4.3399   -3.5735   -1.1111 H.spc      1 <1>        0.000
     28 H           5.2520   -0.9134   -5.1195 H.spc      1 <1>        0.000
     29 H           6.2855   -4.1619   -2.5157 H.spc      1 <1>        0.000
     30 H           6.8164   -2.7271   -4.4754 H.spc      1 <1>        0.000
@<TRIPOS>BOND
     1    2    5 1  
     2    2    4 ar 
     3    3    6 ar 
     4   17   19 ar 
     5    4    7 ar 
     6    6    7 ar 
     7    9   11 2  
     8   10   12 1  
     9   16   18 ar 
    10   12   15 2  
    11    9   10 am 
    12   13   16 ar 
    13    7    9 1  
    14   12   14 2  
    15   12   13 1  
    16   18   19 ar 
    17    8   17 ar 
    18   13    8 ar 
    19    1    3 ar 
    20    1    2 ar 
    21    1   20 1  
    22    3   21 1  
    23    4   22 1  
    24    5   23 1  
    25    6   24 1  
    26    8   25 1  
    27   10   26 1  
    28   16   27 1  
    29   17   28 1  
    30   18   29 1  
    31   19   30 1  
# Name:          frag5-677-62/138278 -- energy: -2.976666
# Creation time: Sat Jun  5 12:51:54 2010


@<TRIPOS>MOLECULE
frag5-677-62/138278 -- energy: -2.976666
   30    31     1     1     1
SMALL
USER_CHARGES


@<TRIPOS>ATOM
      1 C9         -1.8994    0.3283    1.0963 C.ar       1 <1>        0.000
      2 C12        -1.0980   -0.2486    2.0905 C.ar       1 <1>        0.000
      3 C13        -1.6399    0.3533   -0.2790 C.ar       1 <1>        0.000
      4 C15        -0.0288   -0.9299    1.5275 C.ar       1 <1>        0.000
      5 O1         -1.3580   -0.1978    3.3858 O.3        1 <1>        0.000
      6 C16        -0.5051   -0.2459   -0.7424 C.ar       1 <1>        0.000
      7 C17         0.3194   -0.8168    0.1868 C.ar       1 <1>        0.000
      8 C26         4.6037   -2.2329   -1.9249 C.ar       1 <1>        0.000
      9 C20         1.5159   -1.4096   -0.2767 C.2        1 <1>        0.000
     10 N3          1.5166   -2.7758   -0.3716 N.am       1 <1>        0.000
     11 O4          2.4685   -0.7206   -0.5514 O.2        1 <1>        0.000
     12 S1          2.7350   -3.7278   -0.6550 S.o2       1 <1>        0.000
     13 C25         3.4081   -2.9398   -2.0125 C.ar       1 <1>        0.000
     14 O5          3.5503   -3.5876    0.5201 O.2        1 <1>        0.000
     15 O6          2.1689   -4.9844   -1.0951 O.2        1 <1>        0.000
     16 C27         2.7382   -2.6335   -3.2264 C.ar       1 <1>        0.000
     17 C28         5.2942   -1.7015   -3.0003 C.ar       1 <1>        0.000
     18 C30         3.3498   -2.0567   -4.3435 C.ar       1 <1>        0.000
     19 C31         4.6519   -1.6133   -4.2176 C.ar       1 <1>        0.000
     20 H          -2.8205    0.8073    1.4283 H.spc      1 <1>        0.000
     21 H          -2.3308    0.8418   -0.9661 H.spc      1 <1>        0.000
     22 H           0.5654   -1.5838    2.1658 H.spc      1 <1>        0.000
     23 H          -2.1458    0.3308    3.5324 H.spc      1 <1>        0.000
     24 H          -0.2666   -0.2684   -1.8057 H.spc      1 <1>        0.000
     25 H           5.0294   -2.0864   -0.9322 H.spc      1 <1>        0.000
     26 H           0.6139   -3.2327   -0.2422 H.spc      1 <1>        0.000
     27 H           1.6748   -2.8637   -3.2918 H.spc      1 <1>        0.000
     28 H           6.3232   -1.3601   -2.8876 H.spc      1 <1>        0.000
     29 H           2.8139   -1.9596   -5.2877 H.spc      1 <1>        0.000
     30 H           5.1712   -1.1941   -5.0794 H.spc      1 <1>        0.000
@<TRIPOS>BOND
     1    2    5 1  
     2    2    4 ar 
     3    3    6 ar 
     4   17   19 ar 
     5    4    7 ar 
     6    6    7 ar 
     7    9   11 2  
     8   10   12 1  
     9   16   18 ar 
    10   12   15 2  
    11    9   10 am 
    12   13   16 ar 
    13    7    9 1  
    14   12   14 2  
    15   12   13 1  
    16   18   19 ar 
    17    8   17 ar 
    18   13    8 ar 
    19    1    3 ar 
    20    1    2 ar 
    21    1   20 1  
    22    3   21 1  
    23    4   22 1  
    24    5   23 1  
    25    6   24 1  
    26    8   25 1  
    27   10   26 1  
    28   16   27 1  
    29   17   28 1  
    30   18   29 1  
    31   19   30 1  
# Name:          frag5-677-62/138278 -- energy: -3.625606
# Creation time: Sat Jun  5 12:51:54 2010


@<TRIPOS>MOLECULE
frag5-677-62/138278 -- energy: -3.625606
   30    31     1     1     1
SMALL
USER_CHARGES


@<TRIPOS>ATOM
      1 C9         -1.9112   -0.4846    0.4474 C.ar       1 <1>        0.000
      2 C12        -0.8581    0.2360   -0.1002 C.ar       1 <1>        0.000
      3 C13        -1.8250   -1.7230    1.1007 C.ar       1 <1>        0.000
      4 C15         0.3623   -0.3796    0.2264 C.ar       1 <1>        0.000
      5 O1         -0.9919    1.3676   -0.7872 O.3        1 <1>        0.000
      6 C16        -0.5757   -2.3000    1.2638 C.ar       1 <1>        0.000
      7 C17         0.5589   -1.5852    0.9427 C.ar       1 <1>        0.000
      8 C26         3.4569   -0.9744   -1.8040 C.ar       1 <1>        0.000
      9 C20         1.9119   -2.1120    1.2918 C.2        1 <1>        0.000
     10 N3          2.5659   -2.8680    0.3794 N.am       1 <1>        0.000
     11 O4          2.4116   -1.8867    2.3728 O.2        1 <1>        0.000
     12 S1          2.2900   -3.4525   -1.0837 S.o2       1 <1>        0.000
     13 C25         3.1906   -2.3457   -2.0328 C.ar       1 <1>        0.000
     14 O5          2.9062   -4.7453   -1.0883 O.2        1 <1>        0.000
     15 O6          0.9119   -3.2565   -1.4223 O.2        1 <1>        0.000
     16 C27         3.9141   -2.8048   -3.1013 C.ar       1 <1>        0.000
     17 C28         4.1664   -0.1230   -2.6663 C.ar       1 <1>        0.000
     18 C30         4.5803   -2.0237   -4.0360 C.ar       1 <1>        0.000
     19 C31         4.7262   -0.6793   -3.7917 C.ar       1 <1>        0.000
     20 H          -2.9044   -0.0438    0.3610 H.spc      1 <1>        0.000
     21 H          -2.7210   -2.2205    1.4719 H.spc      1 <1>        0.000
     22 H           1.2639    0.1312   -0.1115 H.spc      1 <1>        0.000
     23 H          -1.9243    1.5775   -0.8774 H.spc      1 <1>        0.000
     24 H          -0.4900   -3.3174    1.6454 H.spc      1 <1>        0.000
     25 H           3.0783   -0.5417   -0.8780 H.spc      1 <1>        0.000
     26 H           3.4888   -3.1399    0.7180 H.spc      1 <1>        0.000
     27 H           3.9724   -3.8856   -3.2300 H.spc      1 <1>        0.000
     28 H           4.2695    0.9405   -2.4510 H.spc      1 <1>        0.000
     29 H           4.9803   -2.4688   -4.9470 H.spc      1 <1>        0.000
     30 H           5.2849   -0.0552   -4.4891 H.spc      1 <1>        0.000
@<TRIPOS>BOND
     1    2    5 1  
     2    2    4 ar 
     3    3    6 ar 
     4   17   19 ar 
     5    4    7 ar 
     6    6    7 ar 
     7    9   11 2  
     8   10   12 1  
     9   16   18 ar 
    10   12   15 2  
    11    9   10 am 
    12   13   16 ar 
    13    7    9 1  
    14   12   14 2  
    15   12   13 1  
    16   18   19 ar 
    17    8   17 ar 
    18   13    8 ar 
    19    1    3 ar 
    20    1    2 ar 
    21    1   20 1  
    22    3   21 1  
    23    4   22 1  
    24    5   23 1  
    25    6   24 1  
    26    8   25 1  
    27   10   26 1  
    28   16   27 1  
    29   17   28 1  
    30   18   29 1  
    31   19   30 1  
# Name:          frag5-677-62/138278 -- energy: -4.107364
# Creation time: Sat Jun  5 12:51:54 2010


@<TRIPOS>MOLECULE
frag5-677-62/138278 -- energy: -4.107364
   30    31     1     1     1
SMALL
USER_CHARGES


@<TRIPOS>ATOM
      1 C9         -0.8308    0.2958    1.5722 C.ar       1 <1>        0.000
      2 C12        -0.0517    0.6114    0.4513 C.ar       1 <1>        0.000
      3 C13        -1.1495   -0.9837    2.0272 C.ar       1 <1>        0.000
      4 C15         0.4716   -0.5589   -0.1305 C.ar       1 <1>        0.000
      5 O1          0.1922    1.8537    0.0444 O.3        1 <1>        0.000
      6 C16        -0.6570   -2.0683    1.3330 C.ar       1 <1>        0.000
      7 C17         0.0868   -1.8920    0.1776 C.ar       1 <1>        0.000
      8 C26         2.8330   -2.6973   -2.9692 C.ar       1 <1>        0.000
      9 C20         0.4532   -3.1185   -0.5767 C.2        1 <1>        0.000
     10 N3          1.6825   -3.6882   -0.4096 N.am       1 <1>        0.000
     11 O4         -0.3122   -3.6005   -1.3954 O.2        1 <1>        0.000
     12 S1          3.1170   -3.0723   -0.1563 S.o2       1 <1>        0.000
     13 C25         3.3647   -2.3400   -1.6825 C.ar       1 <1>        0.000
     14 O5          2.9191   -2.0755    0.8744 O.2        1 <1>        0.000
     15 O6          4.0544   -4.1505   -0.0251 O.2        1 <1>        0.000
     16 C27         4.0807   -1.1642   -1.7735 C.ar       1 <1>        0.000
     17 C28         3.1208   -2.0405   -4.1802 C.ar       1 <1>        0.000
     18 C30         4.4621   -0.5101   -2.9325 C.ar       1 <1>        0.000
     19 C31         3.9544   -0.9413   -4.1378 C.ar       1 <1>        0.000
     20 H          -1.2274    1.1335    2.1458 H.spc      1 <1>        0.000
     21 H          -1.7730   -1.1227    2.9104 H.spc      1 <1>        0.000
     22 H           1.2444   -0.4306   -0.8884 H.spc      1 <1>        0.000
     23 H          -0.2821    2.4718    0.6053 H.spc      1 <1>        0.000
     24 H          -0.8552   -3.0763    1.6975 H.spc      1 <1>        0.000
     25 H           2.1510   -3.5466   -3.0104 H.spc      1 <1>        0.000
     26 H           1.6742   -4.7071   -0.4573 H.spc      1 <1>        0.000
     27 H           4.3777   -0.7009   -0.8326 H.spc      1 <1>        0.000
     28 H           2.6984   -2.3892   -5.1226 H.spc      1 <1>        0.000
     29 H           5.1527    0.3322   -2.8917 H.spc      1 <1>        0.000
     30 H           4.2106   -0.4151   -5.0573 H.spc      1 <1>        0.000
@<TRIPOS>BOND
     1    2    5 1  
     2    2    4 ar 
     3    3    6 ar 
     4   17   19 ar 
     5    4    7 ar 
     6    6    7 ar 
     7    9   11 2  
     8   10   12 1  
     9   16   18 ar 
    10   12   15 2  
    11    9   10 am 
    12   13   16 ar 
    13    7    9 1  
    14   12   14 2  
    15   12   13 1  
    16   18   19 ar 
    17    8   17 ar 
    18   13    8 ar 
    19    1    3 ar 
    20    1    2 ar 
    21    1   20 1  
    22    3   21 1  
    23    4   22 1  
    24    5   23 1  
    25    6   24 1  
    26    8   25 1  
    27   10   26 1  
    28   16   27 1  
    29   17   28 1  
    30   18   29 1  
    31   19   30 1  
# Name:          frag5-677-62/138278 -- energy: -3.582928
# Creation time: Sat Jun  5 12:51:54 2010


@<TRIPOS>MOLECULE
frag5-677-62/138278 -- energy: -3.582928
   30    31     1     1     1
SMALL
USER_CHARGES


@<TRIPOS>ATOM
      1 C9         -0.1073    0.9799    1.7261 C.ar       1 <1>        0.000
      2 C12        -1.1093    0.5304    0.8674 C.ar       1 <1>        0.000
      3 C13         1.1519    0.4102    1.9190 C.ar       1 <1>        0.000
      4 C15        -0.6765   -0.5405    0.1092 C.ar       1 <1>        0.000
      5 O1         -2.3069    1.0886    0.7276 O.3        1 <1>        0.000
      6 C16         1.4595   -0.7304    1.2054 C.ar       1 <1>        0.000
      7 C17         0.5114   -1.2272    0.3145 C.ar       1 <1>        0.000
      8 C26         2.7886   -2.7946   -3.1546 C.ar       1 <1>        0.000
      9 C20         0.6818   -2.4306   -0.4582 C.2        1 <1>        0.000
     10 N3          1.5814   -3.3226    0.0065 N.am       1 <1>        0.000
     11 O4          0.1808   -2.5765   -1.5451 O.2        1 <1>        0.000
     12 S1          2.7618   -4.0608   -0.7434 S.o2       1 <1>        0.000
     13 C25         3.2610   -2.8510   -1.8373 C.ar       1 <1>        0.000
     14 O5          3.7546   -4.2349    0.2859 O.2        1 <1>        0.000
     15 O6          2.1266   -5.1360   -1.4486 O.2        1 <1>        0.000
     16 C27         3.9639   -1.6795   -1.5144 C.ar       1 <1>        0.000
     17 C28         3.2129   -1.9006   -4.1345 C.ar       1 <1>        0.000
     18 C30         4.4781   -0.7740   -2.4491 C.ar       1 <1>        0.000
     19 C31         4.0770   -0.8910   -3.7655 C.ar       1 <1>        0.000
     20 H          -0.3316    1.8727    2.3098 H.spc      1 <1>        0.000
     21 H           1.8692    0.8517    2.6108 H.spc      1 <1>        0.000
     22 H          -1.3152   -0.8700   -0.7103 H.spc      1 <1>        0.000
     23 H          -2.3962    1.8124    1.3519 H.spc      1 <1>        0.000
     24 H           2.4197   -1.2295    1.3358 H.spc      1 <1>        0.000
     25 H           2.0207   -3.5144   -3.4380 H.spc      1 <1>        0.000
     26 H           1.4851   -3.5570    0.9945 H.spc      1 <1>        0.000
     27 H           4.1206   -1.4592   -0.4585 H.spc      1 <1>        0.000
     28 H           2.8713   -1.9962   -5.1652 H.spc      1 <1>        0.000
     29 H           5.1780    0.0046   -2.1457 H.spc      1 <1>        0.000
     30 H           4.4430   -0.1861   -4.5120 H.spc      1 <1>        0.000
@<TRIPOS>BOND
     1    2    5 1  
     2    2    4 ar 
     3    3    6 ar 
     4   17   19 ar 
     5    4    7 ar 
     6    6    7 ar 
     7    9   11 2  
     8   10   12 1  
     9   16   18 ar 
    10   12   15 2  
    11    9   10 am 
    12   13   16 ar 
    13    7    9 1  
    14   12   14 2  
    15   12   13 1  
    16   18   19 ar 
    17    8   17 ar 
    18   13    8 ar 
    19    1    3 ar 
    20    1    2 ar 
    21    1   20 1  
    22    3   21 1  
    23    4   22 1  
    24    5   23 1  
    25    6   24 1  
    26    8   25 1  
    27   10   26 1  
    28   16   27 1  
    29   17   28 1  
    30   18   29 1  
    31   19   30 1  
# Name:          frag5-677-62/138278 -- energy: -3.482354
# Creation time: Sat Jun  5 12:51:54 2010


@<TRIPOS>MOLECULE
frag5-677-62/138278 -- energy: -3.482354
   30    31     1     1     1
SMALL
USER_CHARGES


@<TRIPOS>ATOM
      1 C9         -1.5051    0.4482    0.4758 C.ar       1 <1>        0.000
      2 C12        -0.7608    0.3233    1.6499 C.ar       1 <1>        0.000
      3 C13        -1.4057   -0.3636   -0.6603 C.ar       1 <1>        0.000
      4 C15         0.0678   -0.8127    1.5821 C.ar       1 <1>        0.000
      5 O1         -0.8786    1.1357    2.6930 O.3        1 <1>        0.000
      6 C16        -0.4797   -1.3927   -0.6588 C.ar       1 <1>        0.000
      7 C17         0.1912   -1.7206    0.5118 C.ar       1 <1>        0.000
      8 C26         4.6881   -2.2808   -2.6536 C.ar       1 <1>        0.000
      9 C20         1.0649   -2.9289    0.6076 C.2        1 <1>        0.000
     10 N3          2.3224   -2.8763    0.0845 N.am       1 <1>        0.000
     11 O4          0.6659   -3.9488    1.1438 O.2        1 <1>        0.000
     12 S1          3.2788   -1.7282   -0.4507 S.o2       1 <1>        0.000
     13 C25         3.4358   -2.2133   -2.0715 C.ar       1 <1>        0.000
     14 O5          2.5764   -0.4728   -0.4283 O.2        1 <1>        0.000
     15 O6          4.5406   -1.8902    0.2399 O.2        1 <1>        0.000
     16 C27         2.4595   -2.7927   -2.9211 C.ar       1 <1>        0.000
     17 C28         4.9583   -2.5794   -3.9701 C.ar       1 <1>        0.000
     18 C30         2.6474   -3.0720   -4.2757 C.ar       1 <1>        0.000
     19 C31         3.9242   -2.9754   -4.7874 C.ar       1 <1>        0.000
     20 H          -2.2351    1.2569    0.4400 H.spc      1 <1>        0.000
     21 H          -2.0433   -0.1893   -1.5270 H.spc      1 <1>        0.000
     22 H           0.6847   -1.0129    2.4581 H.spc      1 <1>        0.000
     23 H          -1.5057    1.8323    2.4854 H.spc      1 <1>        0.000
     24 H          -0.2774   -1.9454   -1.5762 H.spc      1 <1>        0.000
     25 H           5.5431   -2.0783   -2.0086 H.spc      1 <1>        0.000
     26 H           2.7535   -3.7986    0.0217 H.spc      1 <1>        0.000
     27 H           1.4914   -3.0379   -2.4844 H.spc      1 <1>        0.000
     28 H           5.9739   -2.5035   -4.3585 H.spc      1 <1>        0.000
     29 H           1.8090   -3.3582   -4.9107 H.spc      1 <1>        0.000
     30 H           4.1136   -3.2116   -5.8345 H.spc      1 <1>        0.000
@<TRIPOS>BOND
     1    2    5 1  
     2    2    4 ar 
     3    3    6 ar 
     4   17   19 ar 
     5    4    7 ar 
     6    6    7 ar 
     7    9   11 2  
     8   10   12 1  
     9   16   18 ar 
    10   12   15 2  
    11    9   10 am 
    12   13   16 ar 
    13    7    9 1  
    14   12   14 2  
    15   12   13 1  
    16   18   19 ar 
    17    8   17 ar 
    18   13    8 ar 
    19    1    3 ar 
    20    1    2 ar 
    21    1   20 1  
    22    3   21 1  
    23    4   22 1  
    24    5   23 1  
    25    6   24 1  
    26    8   25 1  
    27   10   26 1  
    28   16   27 1  
    29   17   28 1  
    30   18   29 1  
    31   19   30 1  
# Name:          frag5-677-62/138278 -- energy: -3.339369
# Creation time: Sat Jun  5 12:51:54 2010


@<TRIPOS>MOLECULE
frag5-677-62/138278 -- energy: -3.339369
   30    31     1     1     1
SMALL
USER_CHARGES


@<TRIPOS>ATOM
      1 C9         -1.8997   -0.0424    1.4524 C.ar       1 <1>        0.000
      2 C12        -1.9106   -1.3067    0.8667 C.ar       1 <1>        0.000
      3 C13        -0.7743    0.6985    1.8179 C.ar       1 <1>        0.000
      4 C15        -0.5991   -1.7085    0.5522 C.ar       1 <1>        0.000
      5 O1         -3.0236   -1.9901    0.6196 O.3        1 <1>        0.000
      6 C16         0.4695    0.1712    1.5578 C.ar       1 <1>        0.000
      7 C17         0.5983   -1.0818    1.0108 C.ar       1 <1>        0.000
      8 C26         4.5347   -1.7239   -1.9185 C.ar       1 <1>        0.000
      9 C20         1.9693   -1.6535    0.9145 C.2        1 <1>        0.000
     10 N3          2.2342   -2.4889   -0.1086 N.am       1 <1>        0.000
     11 O4          2.8716   -1.3368    1.6682 O.2        1 <1>        0.000
     12 S1          1.8254   -2.5046   -1.6387 S.o2       1 <1>        0.000
     13 C25         3.3437   -2.3438   -2.3948 C.ar       1 <1>        0.000
     14 O5          1.2840   -3.8230   -1.8067 O.2        1 <1>        0.000
     15 O6          1.1075   -1.2952   -1.9635 O.2        1 <1>        0.000
     16 C27         3.5551   -2.9757   -3.5970 C.ar       1 <1>        0.000
     17 C28         5.7386   -1.6399   -2.6401 C.ar       1 <1>        0.000
     18 C30         4.6811   -2.8731   -4.3904 C.ar       1 <1>        0.000
     19 C31         5.7856   -2.2228   -3.8910 C.ar       1 <1>        0.000
     20 H          -2.8700    0.4154    1.6451 H.spc      1 <1>        0.000
     21 H          -0.8786    1.6715    2.2979 H.spc      1 <1>        0.000
     22 H          -0.4879   -2.5752   -0.0994 H.spc      1 <1>        0.000
     23 H          -3.7807   -1.4913    0.9351 H.spc      1 <1>        0.000
     24 H           1.3615    0.7537    1.7882 H.spc      1 <1>        0.000
     25 H           4.5110   -1.2826   -0.9221 H.spc      1 <1>        0.000
     26 H           2.8224   -3.2782    0.1586 H.spc      1 <1>        0.000
     27 H           2.7554   -3.6213   -3.9600 H.spc      1 <1>        0.000
     28 H           6.6081   -1.1303   -2.2248 H.spc      1 <1>        0.000
     29 H           4.6942   -3.2995   -5.3935 H.spc      1 <1>        0.000
     30 H           6.6989   -2.1676   -4.4834 H.spc      1 <1>        0.000
@<TRIPOS>BOND
     1    2    5 1  
     2    2    4 ar 
     3    3    6 ar 
     4   17   19 ar 
     5    4    7 ar 
     6    6    7 ar 
     7    9   11 2  
     8   10   12 1  
     9   16   18 ar 
    10   12   15 2  
    11    9   10 am 
    12   13   16 ar 
    13    7    9 1  
    14   12   14 2  
    15   12   13 1  
    16   18   19 ar 
    17    8   17 ar 
    18   13    8 ar 
    19    1    3 ar 
    20    1    2 ar 
    21    1   20 1  
    22    3   21 1  
    23    4   22 1  
    24    5   23 1  
    25    6   24 1  
    26    8   25 1  
    27   10   26 1  
    28   16   27 1  
    29   17   28 1  
    30   18   29 1  
    31   19   30 1  
# Name:          frag5-677-62/138278 -- energy: -4.897880
# Creation time: Sat Jun  5 12:51:54 2010


@<TRIPOS>MOLECULE
frag5-677-62/138278 -- energy: -4.897880
   30    31     1     1     1
SMALL
USER_CHARGES


@<TRIPOS>ATOM
      1 C9         -0.8394    0.2933   -0.5656 C.ar       1 <1>        0.000
      2 C12         0.2182    0.8124    0.1795 C.ar       1 <1>        0.000
      3 C13        -1.0906   -1.0614   -0.8274 C.ar       1 <1>        0.000
      4 C15         0.9677   -0.2208    0.7367 C.ar       1 <1>        0.000
      5 O1          0.4445    2.1072    0.3762 O.3        1 <1>        0.000
      6 C16        -0.2363   -2.0092   -0.2880 C.ar       1 <1>        0.000
      7 C17         0.7738   -1.6115    0.5776 C.ar       1 <1>        0.000
      8 C26         1.8782   -2.4178   -2.7144 C.ar       1 <1>        0.000
      9 C20         1.6824   -2.5119    1.3239 C.2        1 <1>        0.000
     10 N3          2.7002   -3.1505    0.6933 N.am       1 <1>        0.000
     11 O4          1.4940   -2.7157    2.5149 O.2        1 <1>        0.000
     12 S1          2.8908   -3.9290   -0.7006 S.o2       1 <1>        0.000
     13 C25         2.9006   -2.6191   -1.7947 C.ar       1 <1>        0.000
     14 O5          4.1733   -4.5639   -0.6764 O.2        1 <1>        0.000
     15 O6          1.6584   -4.6636   -0.8775 O.2        1 <1>        0.000
     16 C27         3.7358   -1.4927   -1.7437 C.ar       1 <1>        0.000
     17 C28         1.8280   -1.4233   -3.6854 C.ar       1 <1>        0.000
     18 C30         3.7965   -0.4948   -2.7254 C.ar       1 <1>        0.000
     19 C31         2.8152   -0.4686   -3.6922 C.ar       1 <1>        0.000
     20 H          -1.5417    1.0125   -0.9871 H.spc      1 <1>        0.000
     21 H          -1.9393   -1.3619   -1.4418 H.spc      1 <1>        0.000
     22 H           1.8025    0.0787    1.3704 H.spc      1 <1>        0.000
     23 H          -0.2027    2.6217   -0.1116 H.spc      1 <1>        0.000
     24 H          -0.3566   -3.0624   -0.5420 H.spc      1 <1>        0.000
     25 H           1.0340   -3.1059   -2.6704 H.spc      1 <1>        0.000
     26 H           3.5604   -3.1320    1.2411 H.spc      1 <1>        0.000
     27 H           4.3860   -1.3860   -0.8754 H.spc      1 <1>        0.000
     28 H           1.0253   -1.4022   -4.4225 H.spc      1 <1>        0.000
     29 H           4.5997    0.2421   -2.7243 H.spc      1 <1>        0.000
     30 H           2.8224    0.3062   -4.4588 H.spc      1 <1>        0.000
@<TRIPOS>BOND
     1    2    5 1  
     2    2    4 ar 
     3    3    6 ar 
     4   17   19 ar 
     5    4    7 ar 
     6    6    7 ar 
     7    9   11 2  
     8   10   12 1  
     9   16   18 ar 
    10   12   15 2  
    11    9   10 am 
    12   13   16 ar 
    13    7    9 1  
    14   12   14 2  
    15   12   13 1  
    16   18   19 ar 
    17    8   17 ar 
    18   13    8 ar 
    19    1    3 ar 
    20    1    2 ar 
    21    1   20 1  
    22    3   21 1  
    23    4   22 1  
    24    5   23 1  
    25    6   24 1  
    26    8   25 1  
    27   10   26 1  
    28   16   27 1  
    29   17   28 1  
    30   18   29 1  
    31   19   30 1  
# Name:          frag5-677-62/138278 -- energy: -1.978423
# Creation time: Sat Jun  5 12:51:54 2010


@<TRIPOS>MOLECULE
frag5-677-62/138278 -- energy: -1.978423
   30    31     1     1     1
SMALL
USER_CHARGES


@<TRIPOS>ATOM
      1 C9         -1.5927    0.2398    1.7822 C.ar       1 <1>        0.000
      2 C12        -1.7926   -0.1700    0.4589 C.ar       1 <1>        0.000
      3 C13        -0.4711   -0.0042    2.5801 C.ar       1 <1>        0.000
      4 C15        -0.6560   -0.7819   -0.0320 C.ar       1 <1>        0.000
      5 O1         -2.8855    0.0183   -0.2579 O.3        1 <1>        0.000
      6 C16         0.5659   -0.7127    2.0504 C.ar       1 <1>        0.000
      7 C17         0.4875   -1.0539    0.7231 C.ar       1 <1>        0.000
      8 C26         4.6863   -2.8246   -1.9983 C.ar       1 <1>        0.000
      9 C20         1.5835   -1.7599    0.1723 C.2        1 <1>        0.000
     10 N3          1.2954   -2.6749   -0.7967 N.am       1 <1>        0.000
     11 O4          2.7169   -1.5859    0.5753 O.2        1 <1>        0.000
     12 S1          2.2369   -3.7510   -1.4368 S.o2       1 <1>        0.000
     13 C25         3.3274   -2.7090   -2.2158 C.ar       1 <1>        0.000
     14 O5          2.8257   -4.4233   -0.3045 O.2        1 <1>        0.000
     15 O6          1.4560   -4.4427   -2.4329 O.2        1 <1>        0.000
     16 C27         3.0362   -1.5095   -2.9316 C.ar       1 <1>        0.000
     17 C28         5.6730   -2.1588   -2.7020 C.ar       1 <1>        0.000
     18 C30         3.9850   -0.7388   -3.6160 C.ar       1 <1>        0.000
     19 C31         5.3135   -1.0980   -3.5070 C.ar       1 <1>        0.000
     20 H          -2.3996    0.8116    2.2406 H.spc      1 <1>        0.000
     21 H          -0.4267    0.3646    3.6049 H.spc      1 <1>        0.000
     22 H          -0.6507   -1.0731   -1.0824 H.spc      1 <1>        0.000
     23 H          -3.5474    0.4593    0.2797 H.spc      1 <1>        0.000
     24 H           1.4250   -0.9976    2.6578 H.spc      1 <1>        0.000
     25 H           5.0085   -3.4981   -1.2042 H.spc      1 <1>        0.000
     26 H           0.3395   -2.6562   -1.1522 H.spc      1 <1>        0.000
     27 H           2.0011   -1.1683   -2.9470 H.spc      1 <1>        0.000
     28 H           6.7156   -2.4666   -2.6220 H.spc      1 <1>        0.000
     29 H           3.6832    0.1191   -4.2168 H.spc      1 <1>        0.000
     30 H           6.0761   -0.5450   -4.0554 H.spc      1 <1>        0.000
@<TRIPOS>BOND
     1    2    5 1  
     2    2    4 ar 
     3    3    6 ar 
     4   17   19 ar 
     5    4    7 ar 
     6    6    7 ar 
     7    9   11 2  
     8   10   12 1  
     9   16   18 ar 
    10   12   15 2  
    11    9   10 am 
    12   13   16 ar 
    13    7    9 1  
    14   12   14 2  
    15   12   13 1  
    16   18   19 ar 
    17    8   17 ar 
    18   13    8 ar 
    19    1    3 ar 
    20    1    2 ar 
    21    1   20 1  
    22    3   21 1  
    23    4   22 1  
    24    5   23 1  
    25    6   24 1  
    26    8   25 1  
    27   10   26 1  
    28   16   27 1  
    29   17   28 1  
    30   18   29 1  
    31   19   30 1  
# Name:          frag5-677-62/138278 -- energy: -2.055166
# Creation time: Sat Jun  5 12:51:54 2010


@<TRIPOS>MOLECULE
frag5-677-62/138278 -- energy: -2.055166
   30    31     1     1     1
SMALL
USER_CHARGES


@<TRIPOS>ATOM
      1 C9         -2.2475   -0.7511    1.0462 C.ar       1 <1>        0.000
      2 C12        -1.4190    0.0729    1.8045 C.ar       1 <1>        0.000
      3 C13        -1.8453   -1.7715    0.1860 C.ar       1 <1>        0.000
      4 C15        -0.0833   -0.3077    1.6739 C.ar       1 <1>        0.000
      5 O1         -1.8380    1.0596    2.5994 O.3        1 <1>        0.000
      6 C16        -0.4884   -2.0488    0.1187 C.ar       1 <1>        0.000
      7 C17         0.4417   -1.3379    0.8867 C.ar       1 <1>        0.000
      8 C26         4.1291   -3.4697   -1.9215 C.ar       1 <1>        0.000
      9 C20         1.8973   -1.6181    0.9673 C.2        1 <1>        0.000
     10 N3          2.6026   -1.6501   -0.1805 N.am       1 <1>        0.000
     11 O4          2.4789   -1.7972    2.0279 O.2        1 <1>        0.000
     12 S1          2.3660   -1.2792   -1.7091 S.o2       1 <1>        0.000
     13 C25         3.4399   -2.3521   -2.4494 C.ar       1 <1>        0.000
     14 O5          1.0425   -1.6752   -2.1227 O.2        1 <1>        0.000
     15 O6          2.8022    0.0696   -1.8786 O.2        1 <1>        0.000
     16 C27         3.7824   -2.0959   -3.7478 C.ar       1 <1>        0.000
     17 C28         4.9514   -4.3184   -2.6664 C.ar       1 <1>        0.000
     18 C30         4.6051   -2.8719   -4.5350 C.ar       1 <1>        0.000
     19 C31         5.1737   -3.9980   -3.9887 C.ar       1 <1>        0.000
     20 H          -3.3204   -0.5804    1.1346 H.spc      1 <1>        0.000
     21 H          -2.5682   -2.3289   -0.4097 H.spc      1 <1>        0.000
     22 H           0.6380    0.2668    2.2552 H.spc      1 <1>        0.000
     23 H          -2.7918    1.1428    2.5287 H.spc      1 <1>        0.000
     24 H          -0.1381   -2.8377   -0.5469 H.spc      1 <1>        0.000
     25 H           4.0100   -3.6832   -0.8593 H.spc      1 <1>        0.000
     26 H           3.5446   -2.0102   -0.0274 H.spc      1 <1>        0.000
     27 H           3.3670   -1.1961   -4.2016 H.spc      1 <1>        0.000
     28 H           5.4019   -5.2037   -2.2175 H.spc      1 <1>        0.000
     29 H           4.8014   -2.5980   -5.5716 H.spc      1 <1>        0.000
     30 H           5.8034   -4.6407   -4.6040 H.spc      1 <1>        0.000
@<TRIPOS>BOND
     1    2    5 1  
     2    2    4 ar 
     3    3    6 ar 
     4   17   19 ar 
     5    4    7 ar 
     6    6    7 ar 
     7    9   11 2  
     8   10   12 1  
     9   16   18 ar 
    10   12   15 2  
    11    9   10 am 
    12   13   16 ar 
    13    7    9 1  
    14   12   14 2  
    15   12   13 1  
    16   18   19 ar 
    17    8   17 ar 
    18   13    8 ar 
    19    1    3 ar 
    20    1    2 ar 
    21    1   20 1  
    22    3   21 1  
    23    4   22 1  
    24    5   23 1  
    25    6   24 1  
    26    8   25 1  
    27   10   26 1  
    28   16   27 1  
    29   17   28 1  
    30   18   29 1  
    31   19   30 1  
# Name:          frag5-677-62/138278 -- energy: -3.495587
# Creation time: Sat Jun  5 12:51:54 2010


@<TRIPOS>MOLECULE
frag5-677-62/138278 -- energy: -3.495587
   30    31     1     1     1
SMALL
USER_CHARGES


@<TRIPOS>ATOM
      1 C9         -1.7188    0.2084    0.8628 C.ar       1 <1>        0.000
      2 C12        -1.6797   -1.1628    1.1286 C.ar       1 <1>        0.000
      3 C13        -0.6385    1.0202    0.5066 C.ar       1 <1>        0.000
      4 C15        -0.4048   -1.6758    0.8713 C.ar       1 <1>        0.000
      5 O1         -2.7336   -1.8759    1.5201 O.3        1 <1>        0.000
      6 C16         0.6022    0.4372    0.3835 C.ar       1 <1>        0.000
      7 C17         0.7676   -0.8987    0.6654 C.ar       1 <1>        0.000
      8 C26         4.4591   -2.0552   -1.7253 C.ar       1 <1>        0.000
      9 C20         2.1238   -1.4692    0.7134 C.2        1 <1>        0.000
     10 N3          2.2918   -2.7357    0.2804 N.am       1 <1>        0.000
     11 O4          3.0992   -0.7854    1.0053 O.2        1 <1>        0.000
     12 S1          2.0386   -3.4405   -1.1261 S.o2       1 <1>        0.000
     13 C25         3.2291   -2.6712   -2.1012 C.ar       1 <1>        0.000
     14 O5          2.3957   -4.8156   -0.9252 O.2        1 <1>        0.000
     15 O6          0.7489   -2.9962   -1.5774 O.2        1 <1>        0.000
     16 C27         2.9432   -2.3950   -3.4262 C.ar       1 <1>        0.000
     17 C28         5.4061   -1.5304   -2.6236 C.ar       1 <1>        0.000
     18 C30         3.8086   -1.8579   -4.3666 C.ar       1 <1>        0.000
     19 C31         5.0529   -1.4410   -3.9548 C.ar       1 <1>        0.000
     20 H          -2.6912    0.6945    0.9413 H.spc      1 <1>        0.000
     21 H          -0.7749    2.0873    0.3308 H.spc      1 <1>        0.000
     22 H          -0.3014   -2.7599    0.8248 H.spc      1 <1>        0.000
     23 H          -3.4895   -1.2942    1.6290 H.spc      1 <1>        0.000
     24 H           1.4550    1.0352    0.0621 H.spc      1 <1>        0.000
     25 H           4.6826   -1.9857   -0.6607 H.spc      1 <1>        0.000
     26 H           2.6525   -3.3676    0.9952 H.spc      1 <1>        0.000
     27 H           1.9330   -2.6233   -3.7660 H.spc      1 <1>        0.000
     28 H           6.3876   -1.2047   -2.2792 H.spc      1 <1>        0.000
     29 H           3.5091   -1.7678   -5.4108 H.spc      1 <1>        0.000
     30 H           5.7606   -1.0397   -4.6803 H.spc      1 <1>        0.000
@<TRIPOS>BOND
     1    2    5 1  
     2    2    4 ar 
     3    3    6 ar 
     4   17   19 ar 
     5    4    7 ar 
     6    6    7 ar 
     7    9   11 2  
     8   10   12 1  
     9   16   18 ar 
    10   12   15 2  
    11    9   10 am 
    12   13   16 ar 
    13    7    9 1  
    14   12   14 2  
    15   12   13 1  
    16   18   19 ar 
    17    8   17 ar 
    18   13    8 ar 
    19    1    3 ar 
    20    1    2 ar 
    21    1   20 1  
    22    3   21 1  
    23    4   22 1  
    24    5   23 1  
    25    6   24 1  
    26    8   25 1  
    27   10   26 1  
    28   16   27 1  
    29   17   28 1  
    30   18   29 1  
    31   19   30 1  
# Name:          frag5-677-62/138278 -- energy: 1.713218
# Creation time: Sat Jun  5 12:51:54 2010


@<TRIPOS>MOLECULE
frag5-677-62/138278 -- energy: 1.713218
   30    31     1     1     1
SMALL
USER_CHARGES


@<TRIPOS>ATOM
      1 C9         -1.6057    0.5290    1.3503 C.ar       1 <1>        0.000
      2 C12        -0.2408    0.7731    1.5073 C.ar       1 <1>        0.000
      3 C13        -2.2014   -0.5784    0.7373 C.ar       1 <1>        0.000
      4 C15         0.4864   -0.3149    1.0708 C.ar       1 <1>        0.000
      5 O1          0.2818    1.8619    2.0455 O.3        1 <1>        0.000
      6 C16        -1.4012   -1.5525    0.2334 C.ar       1 <1>        0.000
      7 C17        -0.0542   -1.4109    0.3944 C.ar       1 <1>        0.000
      8 C26         3.9433   -1.2539   -2.2492 C.ar       1 <1>        0.000
      9 C20         0.7507   -2.4764   -0.1340 C.2        1 <1>        0.000
     10 N3          2.0941   -2.3615    0.0093 N.am       1 <1>        0.000
     11 O4          0.2572   -3.4328   -0.6790 O.2        1 <1>        0.000
     12 S1          3.2862   -3.2647   -0.4294 S.o2       1 <1>        0.000
     13 C25         3.5997   -2.5954   -1.9746 C.ar       1 <1>        0.000
     14 O5          4.3366   -2.9235    0.4853 O.2        1 <1>        0.000
     15 O6          2.7703   -4.6013   -0.5925 O.2        1 <1>        0.000
     16 C27         3.2676   -3.2591   -3.1517 C.ar       1 <1>        0.000
     17 C28         4.3770   -0.7963   -3.4955 C.ar       1 <1>        0.000
     18 C30         3.6343   -2.8623   -4.4267 C.ar       1 <1>        0.000
     19 C31         4.2095   -1.6212   -4.5901 C.ar       1 <1>        0.000
     20 H          -2.2824    1.2846    1.7493 H.spc      1 <1>        0.000
     21 H          -3.2862   -0.6576    0.6657 H.spc      1 <1>        0.000
     22 H           1.5585   -0.3196    1.2676 H.spc      1 <1>        0.000
     23 H          -0.4213    2.4764    2.2683 H.spc      1 <1>        0.000
     24 H          -1.8203   -2.4170   -0.2815 H.spc      1 <1>        0.000
     25 H           3.8653   -0.5301   -1.4380 H.spc      1 <1>        0.000
     26 H           2.3817   -1.5160    0.5021 H.spc      1 <1>        0.000
     27 H           2.6695   -4.1660   -3.0628 H.spc      1 <1>        0.000
     28 H           4.8359    0.1867   -3.6013 H.spc      1 <1>        0.000
     29 H           3.4714   -3.5176   -5.2823 H.spc      1 <1>        0.000
     30 H           4.5307   -1.2921   -5.5783 H.spc      1 <1>        0.000
@<TRIPOS>BOND
     1    2    5 1  
     2    2    4 ar 
     3    3    6 ar 
     4   17   19 ar 
     5    4    7 ar 
     6    6    7 ar 
     7    9   11 2  
     8   10   12 1  
     9   16   18 ar 
    10   12   15 2  
    11    9   10 am 
    12   13   16 ar 
    13    7    9 1  
    14   12   14 2  
    15   12   13 1  
    16   18   19 ar 
    17    8   17 ar 
    18   13    8 ar 
    19    1    3 ar 
    20    1    2 ar 
    21    1   20 1  
    22    3   21 1  
    23    4   22 1  
    24    5   23 1  
    25    6   24 1  
    26    8   25 1  
    27   10   26 1  
    28   16   27 1  
    29   17   28 1  
    30   18   29 1  
    31   19   30 1  
# Name:          frag5-677-62/138278 -- energy: -0.677616
# Creation time: Sat Jun  5 12:51:54 2010


@<TRIPOS>MOLECULE
frag5-677-62/138278 -- energy: -0.677616
   30    31     1     1     1
SMALL
USER_CHARGES


@<TRIPOS>ATOM
      1 C9         -1.6212    0.6326    1.2056 C.ar       1 <1>        0.000
      2 C12        -1.9703   -0.6713    0.8464 C.ar       1 <1>        0.000
      3 C13        -0.3335    1.1878    1.2890 C.ar       1 <1>        0.000
      4 C15        -0.8402   -1.3489    0.4572 C.ar       1 <1>        0.000
      5 O1         -3.1904   -1.1762    0.8073 O.3        1 <1>        0.000
      6 C16         0.7331    0.3987    0.9929 C.ar       1 <1>        0.000
      7 C17         0.4682   -0.9172    0.7003 C.ar       1 <1>        0.000
      8 C26         3.2469   -1.3259   -2.3117 C.ar       1 <1>        0.000
      9 C20         1.5823   -1.7536    0.4074 C.2        1 <1>        0.000
     10 N3          1.4178   -2.7709   -0.4932 N.am       1 <1>        0.000
     11 O4          2.6741   -1.4843    0.8768 O.2        1 <1>        0.000
     12 S1          2.4705   -3.7908   -1.0855 S.o2       1 <1>        0.000
     13 C25         3.3779   -2.7294   -2.0810 C.ar       1 <1>        0.000
     14 O5          3.2798   -4.2758   -0.0040 O.2        1 <1>        0.000
     15 O6          1.7417   -4.7094   -1.9455 O.2        1 <1>        0.000
     16 C27         4.3870   -3.2242   -2.8798 C.ar       1 <1>        0.000
     17 C28         4.0871   -0.5258   -3.1010 C.ar       1 <1>        0.000
     18 C30         5.2086   -2.5113   -3.7397 C.ar       1 <1>        0.000
     19 C31         5.0720   -1.1452   -3.8306 C.ar       1 <1>        0.000
     20 H          -2.4476    1.2998    1.4508 H.spc      1 <1>        0.000
     21 H          -0.1928    2.2275    1.5844 H.spc      1 <1>        0.000
     22 H          -0.9723   -2.2889   -0.0786 H.spc      1 <1>        0.000
     23 H          -3.8165   -0.5222    1.1264 H.spc      1 <1>        0.000
     24 H           1.7499    0.7913    0.9879 H.spc      1 <1>        0.000
     25 H           2.4094   -0.8257   -1.8254 H.spc      1 <1>        0.000
     26 H           0.4648   -2.8899   -0.8368 H.spc      1 <1>        0.000
     27 H           4.5586   -4.2994   -2.8295 H.spc      1 <1>        0.000
     28 H           3.9616    0.5564   -3.1341 H.spc      1 <1>        0.000
     29 H           5.9572   -3.0293   -4.3392 H.spc      1 <1>        0.000
     30 H           5.7349   -0.5639   -4.4715 H.spc      1 <1>        0.000
@<TRIPOS>BOND
     1    2    5 1  
     2    2    4 ar 
     3    3    6 ar 
     4   17   19 ar 
     5    4    7 ar 
     6    6    7 ar 
     7    9   11 2  
     8   10   12 1  
     9   16   18 ar 
    10   12   15 2  
    11    9   10 am 
    12   13   16 ar 
    13    7    9 1  
    14   12   14 2  
    15   12   13 1  
    16   18   19 ar 
    17    8   17 ar 
    18   13    8 ar 
    19    1    3 ar 
    20    1    2 ar 
    21    1   20 1  
    22    3   21 1  
    23    4   22 1  
    24    5   23 1  
    25    6   24 1  
    26    8   25 1  
    27   10   26 1  
    28   16   27 1  
    29   17   28 1  
    30   18   29 1  
    31   19   30 1  
# Name:          frag5-677-62/138278 -- energy: -0.468442
# Creation time: Sat Jun  5 12:51:54 2010


@<TRIPOS>MOLECULE
frag5-677-62/138278 -- energy: -0.468442
   30    31     1     1     1
SMALL
USER_CHARGES


@<TRIPOS>ATOM
      1 C9         -1.1526    0.3323    2.3089 C.ar       1 <1>        0.000
      2 C12        -1.9217   -0.0619    1.2099 C.ar       1 <1>        0.000
      3 C13         0.2045    0.0691    2.5459 C.ar       1 <1>        0.000
      4 C15        -1.1251   -0.6486    0.2655 C.ar       1 <1>        0.000
      5 O1         -3.2217    0.1413    1.0604 O.3        1 <1>        0.000
      6 C16         0.8898   -0.6369    1.6118 C.ar       1 <1>        0.000
      7 C17         0.2357   -0.9172    0.4315 C.ar       1 <1>        0.000
      8 C26         3.5831   -1.3344   -2.3517 C.ar       1 <1>        0.000
      9 C20         0.8550   -1.6630   -0.6029 C.2        1 <1>        0.000
     10 N3          1.8571   -2.4905   -0.2206 N.am       1 <1>        0.000
     11 O4          0.4890   -1.5841   -1.7591 O.2        1 <1>        0.000
     12 S1          2.6139   -3.6480   -0.9957 S.o2       1 <1>        0.000
     13 C25         3.5801   -2.7336   -2.0455 C.ar       1 <1>        0.000
     14 O5          3.4445   -4.2812    0.0243 O.2        1 <1>        0.000
     15 O6          1.6496   -4.3889   -1.7522 O.2        1 <1>        0.000
     16 C27         4.5795   -3.3675   -2.7574 C.ar       1 <1>        0.000
     17 C28         4.4413   -0.6850   -3.2468 C.ar       1 <1>        0.000
     18 C30         5.4228   -2.7995   -3.6960 C.ar       1 <1>        0.000
     19 C31         5.3666   -1.4434   -3.9193 C.ar       1 <1>        0.000
     20 H          -1.6693    0.9135    3.0726 H.spc      1 <1>        0.000
     21 H           0.6941    0.4214    3.4538 H.spc      1 <1>        0.000
     22 H          -1.5843   -0.9261   -0.6833 H.spc      1 <1>        0.000
     23 H          -3.5708    0.5651    1.8479 H.spc      1 <1>        0.000
     24 H           1.9133   -0.9681    1.7872 H.spc      1 <1>        0.000
     25 H           2.8466   -0.7161   -1.8386 H.spc      1 <1>        0.000
     26 H           2.1822   -2.3427    0.7348 H.spc      1 <1>        0.000
     27 H           4.7191   -4.4301   -2.5584 H.spc      1 <1>        0.000
     28 H           4.3766    0.3915   -3.4051 H.spc      1 <1>        0.000
     29 H           6.1246   -3.4205   -4.2528 H.spc      1 <1>        0.000
     30 H           6.0520   -0.9745   -4.6253 H.spc      1 <1>        0.000
@<TRIPOS>BOND
     1    2    5 1  
     2    2    4 ar 
     3    3    6 ar 
     4   17   19 ar 
     5    4    7 ar 
     6    6    7 ar 
     7    9   11 2  
     8   10   12 1  
     9   16   18 ar 
    10   12   15 2  
    11    9   10 am 
    12   13   16 ar 
    13    7    9 1  
    14   12   14 2  
    15   12   13 1  
    16   18   19 ar 
    17    8   17 ar 
    18   13    8 ar 
    19    1    3 ar 
    20    1    2 ar 
    21    1   20 1  
    22    3   21 1  
    23    4   22 1  
    24    5   23 1  
    25    6   24 1  
    26    8   25 1  
    27   10   26 1  
    28   16   27 1  
    29   17   28 1  
    30   18   29 1  
    31   19   30 1  
# Name:          frag5-677-62/138278 -- energy: -3.193985
# Creation time: Sat Jun  5 12:51:55 2010


@<TRIPOS>MOLECULE
frag5-677-62/138278 -- energy: -3.193985
   30    31     1     1     1
SMALL
USER_CHARGES


@<TRIPOS>ATOM
      1 C9         -0.8700    0.5929    1.6907 C.ar       1 <1>        0.000
      2 C12        -0.4907    0.8189    0.3621 C.ar       1 <1>        0.000
      3 C13        -0.7416   -0.6056    2.4038 C.ar       1 <1>        0.000
      4 C15         0.1574   -0.2946   -0.1630 C.ar       1 <1>        0.000
      5 O1         -0.6754    1.9595   -0.2851 O.3        1 <1>        0.000
      6 C16        -0.1772   -1.6813    1.7811 C.ar       1 <1>        0.000
      7 C17         0.1773   -1.5365    0.4723 C.ar       1 <1>        0.000
      8 C26         4.4718   -1.7882   -1.7783 C.ar       1 <1>        0.000
      9 C20         0.6857   -2.6924   -0.2020 C.2        1 <1>        0.000
     10 N3          1.9383   -3.0976    0.1493 N.am       1 <1>        0.000
     11 O4          0.0770   -3.2000   -1.1032 O.2        1 <1>        0.000
     12 S1          3.0221   -3.8506   -0.7070 S.o2       1 <1>        0.000
     13 C25         3.3772   -2.6459   -1.8791 C.ar       1 <1>        0.000
     14 O5          4.1107   -3.9985    0.2222 O.2        1 <1>        0.000
     15 O6          2.3732   -4.9489   -1.3716 O.2        1 <1>        0.000
     16 C27         2.5038   -2.2010   -2.9014 C.ar       1 <1>        0.000
     17 C28         4.9175   -0.9485   -2.7913 C.ar       1 <1>        0.000
     18 C30         2.8489   -1.3151   -3.9233 C.ar       1 <1>        0.000
     19 C31         4.0853   -0.7076   -3.8656 C.ar       1 <1>        0.000
     20 H          -1.3100    1.4354    2.2243 H.spc      1 <1>        0.000
     21 H          -1.0855   -0.6780    3.4356 H.spc      1 <1>        0.000
     22 H           0.6746   -0.1917   -1.1169 H.spc      1 <1>        0.000
     23 H          -1.1456    2.5753    0.2818 H.spc      1 <1>        0.000
     24 H          -0.0160   -2.6206    2.3101 H.spc      1 <1>        0.000
     25 H           5.0181   -1.7756   -0.8352 H.spc      1 <1>        0.000
     26 H           2.2134   -2.8811    1.1073 H.spc      1 <1>        0.000
     27 H           1.4819   -2.5802   -2.8892 H.spc      1 <1>        0.000
     28 H           5.9046   -0.4892   -2.7387 H.spc      1 <1>        0.000
     29 H           2.1608   -1.1095   -4.7433 H.spc      1 <1>        0.000
     30 H           4.4043   -0.0395   -4.6656 H.spc      1 <1>        0.000
@<TRIPOS>BOND
     1    2    5 1  
     2    2    4 ar 
     3    3    6 ar 
     4   17   19 ar 
     5    4    7 ar 
     6    6    7 ar 
     7    9   11 2  
     8   10   12 1  
     9   16   18 ar 
    10   12   15 2  
    11    9   10 am 
    12   13   16 ar 
    13    7    9 1  
    14   12   14 2  
    15   12   13 1  
    16   18   19 ar 
    17    8   17 ar 
    18   13    8 ar 
    19    1    3 ar 
    20    1    2 ar 
    21    1   20 1  
    22    3   21 1  
    23    4   22 1  
    24    5   23 1  
    25    6   24 1  
    26    8   25 1  
    27   10   26 1  
    28   16   27 1  
    29   17   28 1  
    30   18   29 1  
    31   19   30 1  
# Name:          frag5-677-62/138278 -- energy: -3.463815
# Creation time: Sat Jun  5 12:51:55 2010


@<TRIPOS>MOLECULE
frag5-677-62/138278 -- energy: -3.463815
   30    31     1     1     1
SMALL
USER_CHARGES


@<TRIPOS>ATOM
      1 C9         -0.5304    1.0940    0.8495 C.ar       1 <1>        0.000
      2 C12        -1.1257    0.0781    1.5931 C.ar       1 <1>        0.000
      3 C13         0.4840    0.9275   -0.1014 C.ar       1 <1>        0.000
      4 C15        -0.7046   -1.1658    1.1353 C.ar       1 <1>        0.000
      5 O1         -2.0040    0.2531    2.5708 O.3        1 <1>        0.000
      6 C16         0.8815   -0.3550   -0.4265 C.ar       1 <1>        0.000
      7 C17         0.2677   -1.4513    0.1728 C.ar       1 <1>        0.000
      8 C26         4.5091   -1.9949   -2.4760 C.ar       1 <1>        0.000
      9 C20         0.5812   -2.9021   -0.0050 C.2        1 <1>        0.000
     10 N3          1.8863   -3.3118   -0.0235 N.am       1 <1>        0.000
     11 O4         -0.3080   -3.7217   -0.1941 O.2        1 <1>        0.000
     12 S1          3.3341   -2.6469   -0.1431 S.o2       1 <1>        0.000
     13 C25         3.3760   -2.4924   -1.8634 C.ar       1 <1>        0.000
     14 O5          3.2971   -1.3243    0.4487 O.2        1 <1>        0.000
     15 O6          4.3533   -3.5817    0.2634 O.2        1 <1>        0.000
     16 C27         2.4058   -2.8101   -2.8679 C.ar       1 <1>        0.000
     17 C28         4.7570   -1.8812   -3.8326 C.ar       1 <1>        0.000
     18 C30         2.5615   -2.6524   -4.2573 C.ar       1 <1>        0.000
     19 C31         3.7694   -2.2019   -4.7320 C.ar       1 <1>        0.000
     20 H          -0.8859    2.1097    1.0232 H.spc      1 <1>        0.000
     21 H           0.9501    1.7915   -0.5750 H.spc      1 <1>        0.000
     22 H          -1.1959   -2.0287    1.5848 H.spc      1 <1>        0.000
     23 H          -2.1397    1.1927    2.7132 H.spc      1 <1>        0.000
     24 H           1.6781   -0.5089   -1.1544 H.spc      1 <1>        0.000
     25 H           5.3023   -1.6510   -1.8122 H.spc      1 <1>        0.000
     26 H           1.9540   -4.3258    0.0634 H.spc      1 <1>        0.000
     27 H           1.4540   -3.2134   -2.5223 H.spc      1 <1>        0.000
     28 H           5.7300   -1.5393   -4.1854 H.spc      1 <1>        0.000
     29 H           1.7437   -2.8821   -4.9404 H.spc      1 <1>        0.000
     30 H           3.9412   -2.1007   -5.8036 H.spc      1 <1>        0.000
@<TRIPOS>BOND
     1    2    5 1  
     2    2    4 ar 
     3    3    6 ar 
     4   17   19 ar 
     5    4    7 ar 
     6    6    7 ar 
     7    9   11 2  
     8   10   12 1  
     9   16   18 ar 
    10   12   15 2  
    11    9   10 am 
    12   13   16 ar 
    13    7    9 1  
    14   12   14 2  
    15   12   13 1  
    16   18   19 ar 
    17    8   17 ar 
    18   13    8 ar 
    19    1    3 ar 
    20    1    2 ar 
    21    1   20 1  
    22    3   21 1  
    23    4   22 1  
    24    5   23 1  
    25    6   24 1  
    26    8   25 1  
    27   10   26 1  
    28   16   27 1  
    29   17   28 1  
    30   18   29 1  
    31   19   30 1  
# Name:          frag5-677-62/138278 -- energy: -2.780790
# Creation time: Sat Jun  5 12:51:55 2010


@<TRIPOS>MOLECULE
frag5-677-62/138278 -- energy: -2.780790
   30    31     1     1     1
SMALL
USER_CHARGES


@<TRIPOS>ATOM
      1 C9         -2.0370   -0.1245    1.4267 C.ar       1 <1>        0.000
      2 C12        -1.2959    0.5487    0.4460 C.ar       1 <1>        0.000
      3 C13        -1.7320   -1.3546    2.0263 C.ar       1 <1>        0.000
      4 C15        -0.1183   -0.1190    0.1864 C.ar       1 <1>        0.000
      5 O1         -1.6423    1.6956   -0.1204 O.3        1 <1>        0.000
      6 C16        -0.5921   -1.9982    1.6421 C.ar       1 <1>        0.000
      7 C17         0.2236   -1.3270    0.7715 C.ar       1 <1>        0.000
      8 C26         4.1994   -3.0626   -3.1727 C.ar       1 <1>        0.000
      9 C20         1.4439   -1.9313    0.3989 C.2        1 <1>        0.000
     10 N3          1.4210   -2.7079   -0.7071 N.am       1 <1>        0.000
     11 O4          2.4377   -1.7626    1.0818 O.2        1 <1>        0.000
     12 S1          2.5255   -3.7065   -1.2181 S.o2       1 <1>        0.000
     13 C25         3.4999   -2.6052   -2.0790 C.ar       1 <1>        0.000
     14 O5          3.2443   -4.2057   -0.0678 O.2        1 <1>        0.000
     15 O6          1.8568   -4.5947   -2.1255 O.2        1 <1>        0.000
     16 C27         3.6206   -1.1929   -1.9612 C.ar       1 <1>        0.000
     17 C28         5.0472   -2.3256   -3.9777 C.ar       1 <1>        0.000
     18 C30         4.4930   -0.3885   -2.7057 C.ar       1 <1>        0.000
     19 C31         5.1961   -0.9783   -3.7338 C.ar       1 <1>        0.000
     20 H          -2.9530    0.3628    1.7607 H.spc      1 <1>        0.000
     21 H          -2.3895   -1.7862    2.7810 H.spc      1 <1>        0.000
     22 H           0.5826    0.3284   -0.5183 H.spc      1 <1>        0.000
     23 H          -2.5001    1.9694    0.2125 H.spc      1 <1>        0.000
     24 H          -0.3440   -2.9942    2.0090 H.spc      1 <1>        0.000
     25 H           4.0715   -4.1140   -3.4303 H.spc      1 <1>        0.000
     26 H           0.5823   -2.6381   -1.2833 H.spc      1 <1>        0.000
     27 H           2.9816   -0.6955   -1.2315 H.spc      1 <1>        0.000
     28 H           5.5899   -2.8034   -4.7934 H.spc      1 <1>        0.000
     29 H           4.6120    0.6710   -2.4789 H.spc      1 <1>        0.000
     30 H           5.8671   -0.3811   -4.3512 H.spc      1 <1>        0.000
@<TRIPOS>BOND
     1    2    5 1  
     2    2    4 ar 
     3    3    6 ar 
     4   17   19 ar 
     5    4    7 ar 
     6    6    7 ar 
     7    9   11 2  
     8   10   12 1  
     9   16   18 ar 
    10   12   15 2  
    11    9   10 am 
    12   13   16 ar 
    13    7    9 1  
    14   12   14 2  
    15   12   13 1  
    16   18   19 ar 
    17    8   17 ar 
    18   13    8 ar 
    19    1    3 ar 
    20    1    2 ar 
    21    1   20 1  
    22    3   21 1  
    23    4   22 1  
    24    5   23 1  
    25    6   24 1  
    26    8   25 1  
    27   10   26 1  
    28   16   27 1  
    29   17   28 1  
    30   18   29 1  
    31   19   30 1  
# Name:          frag5-677-62/138278 -- energy: -1.739934
# Creation time: Sat Jun  5 12:51:55 2010


@<TRIPOS>MOLECULE
frag5-677-62/138278 -- energy: -1.739934
   30    31     1     1     1
SMALL
USER_CHARGES


@<TRIPOS>ATOM
      1 C9         -1.6377    0.3879    1.4887 C.ar       1 <1>        0.000
      2 C12        -1.2045    0.3488    0.1659 C.ar       1 <1>        0.000
      3 C13        -1.2180   -0.4399    2.5412 C.ar       1 <1>        0.000
      4 C15        -0.1902   -0.5848    0.0190 C.ar       1 <1>        0.000
      5 O1         -1.6592    1.1406   -0.8042 O.3        1 <1>        0.000
      6 C16        -0.2885   -1.3974    2.2804 C.ar       1 <1>        0.000
      7 C17         0.2163   -1.4587    1.0337 C.ar       1 <1>        0.000
      8 C26         2.8838   -1.5164   -3.1160 C.ar       1 <1>        0.000
      9 C20         1.2399   -2.4758    0.8138 C.2        1 <1>        0.000
     10 N3          1.9736   -2.3555   -0.2903 N.am       1 <1>        0.000
     11 O4          1.3507   -3.4218    1.5663 O.2        1 <1>        0.000
     12 S1          2.6640   -3.4816   -1.1412 S.o2       1 <1>        0.000
     13 C25         3.4690   -2.5035   -2.3079 C.ar       1 <1>        0.000
     14 O5          3.6259   -4.0718   -0.2630 O.2        1 <1>        0.000
     15 O6          1.6515   -4.2105   -1.8362 O.2        1 <1>        0.000
     16 C27         4.8451   -2.4791   -2.3730 C.ar       1 <1>        0.000
     17 C28         3.5673   -0.7884   -4.0920 C.ar       1 <1>        0.000
     18 C30         5.5730   -1.8523   -3.3625 C.ar       1 <1>        0.000
     19 C31         4.9294   -0.9806   -4.2119 C.ar       1 <1>        0.000
     20 H          -2.3840    1.1438    1.7332 H.spc      1 <1>        0.000
     21 H          -1.6274   -0.3182    3.5440 H.spc      1 <1>        0.000
     22 H           0.3202   -0.6415   -0.9424 H.spc      1 <1>        0.000
     23 H          -2.3603    1.6980   -0.4586 H.spc      1 <1>        0.000
     24 H           0.0371   -2.0921    3.0547 H.spc      1 <1>        0.000
     25 H           1.8245   -1.3038   -2.9720 H.spc      1 <1>        0.000
     26 H           2.1056   -1.4029   -0.6301 H.spc      1 <1>        0.000
     27 H           5.3980   -2.9920   -1.5860 H.spc      1 <1>        0.000
     28 H           3.0407   -0.0884   -4.7407 H.spc      1 <1>        0.000
     29 H           6.6406   -2.0439   -3.4704 H.spc      1 <1>        0.000
     30 H           5.4927   -0.4445   -4.9757 H.spc      1 <1>        0.000
@<TRIPOS>BOND
     1    2    5 1  
     2    2    4 ar 
     3    3    6 ar 
     4   17   19 ar 
     5    4    7 ar 
     6    6    7 ar 
     7    9   11 2  
     8   10   12 1  
     9   16   18 ar 
    10   12   15 2  
    11    9   10 am 
    12   13   16 ar 
    13    7    9 1  
    14   12   14 2  
    15   12   13 1  
    16   18   19 ar 
    17    8   17 ar 
    18   13    8 ar 
    19    1    3 ar 
    20    1    2 ar 
    21    1   20 1  
    22    3   21 1  
    23    4   22 1  
    24    5   23 1  
    25    6   24 1  
    26    8   25 1  
    27   10   26 1  
    28   16   27 1  
    29   17   28 1  
    30   18   29 1  
    31   19   30 1  
# Name:          frag5-677-62/138278 -- energy: -2.435035
# Creation time: Sat Jun  5 12:51:55 2010


@<TRIPOS>MOLECULE
frag5-677-62/138278 -- energy: -2.435035
   30    31     1     1     1
SMALL
USER_CHARGES


@<TRIPOS>ATOM
      1 C9         -0.7076    0.9569    1.5864 C.ar       1 <1>        0.000
      2 C12        -1.6267    0.2259    0.8301 C.ar       1 <1>        0.000
      3 C13         0.6556    0.6847    1.7708 C.ar       1 <1>        0.000
      4 C15        -0.9848   -0.7996    0.1747 C.ar       1 <1>        0.000
      5 O1         -2.9092    0.5099    0.6913 O.3        1 <1>        0.000
      6 C16         1.1735   -0.4246    1.1736 C.ar       1 <1>        0.000
      7 C17         0.3176   -1.2060    0.4184 C.ar       1 <1>        0.000
      8 C26         4.0301   -3.1943   -2.9967 C.ar       1 <1>        0.000
      9 C20         0.7406   -2.4112   -0.2321 C.2        1 <1>        0.000
     10 N3          1.9420   -2.9063    0.1536 N.am       1 <1>        0.000
     11 O4          0.1253   -2.8851   -1.1732 O.2        1 <1>        0.000
     12 S1          2.9884   -3.7953   -0.6045 S.o2       1 <1>        0.000
     13 C25         3.5013   -2.6975   -1.8201 C.ar       1 <1>        0.000
     14 O5          4.0739   -3.9954    0.3382 O.2        1 <1>        0.000
     15 O6          2.2784   -4.8853   -1.2130 O.2        1 <1>        0.000
     16 C27         3.3820   -1.2760   -1.9133 C.ar       1 <1>        0.000
     17 C28         4.5042   -2.4714   -4.0752 C.ar       1 <1>        0.000
     18 C30         3.8760   -0.4726   -2.9521 C.ar       1 <1>        0.000
     19 C31         4.4307   -1.0978   -4.0459 C.ar       1 <1>        0.000
     20 H          -1.0949    1.8415    2.0919 H.spc      1 <1>        0.000
     21 H           1.2823    1.3414    2.3742 H.spc      1 <1>        0.000
     22 H          -1.5431   -1.3329   -0.5947 H.spc      1 <1>        0.000
     23 H          -3.1308    1.2625    1.2446 H.spc      1 <1>        0.000
     24 H           2.2253   -0.6873    1.2868 H.spc      1 <1>        0.000
     25 H           4.0787   -4.2797   -3.0839 H.spc      1 <1>        0.000
     26 H           2.2134   -2.6567    1.1046 H.spc      1 <1>        0.000
     27 H           2.8588   -0.7694   -1.1023 H.spc      1 <1>        0.000
     28 H           4.9309   -2.9830   -4.9379 H.spc      1 <1>        0.000
     29 H           3.8221    0.6146   -2.8947 H.spc      1 <1>        0.000
     30 H           4.8086   -0.5094   -4.8820 H.spc      1 <1>        0.000
@<TRIPOS>BOND
     1    2    5 1  
     2    2    4 ar 
     3    3    6 ar 
     4   17   19 ar 
     5    4    7 ar 
     6    6    7 ar 
     7    9   11 2  
     8   10   12 1  
     9   16   18 ar 
    10   12   15 2  
    11    9   10 am 
    12   13   16 ar 
    13    7    9 1  
    14   12   14 2  
    15   12   13 1  
    16   18   19 ar 
    17    8   17 ar 
    18   13    8 ar 
    19    1    3 ar 
    20    1    2 ar 
    21    1   20 1  
    22    3   21 1  
    23    4   22 1  
    24    5   23 1  
    25    6   24 1  
    26    8   25 1  
    27   10   26 1  
    28   16   27 1  
    29   17   28 1  
    30   18   29 1  
    31   19   30 1  
# Name:          frag5-677-62/138278 -- energy: -0.396872
# Creation time: Sat Jun  5 12:51:55 2010


@<TRIPOS>MOLECULE
frag5-677-62/138278 -- energy: -0.396872
   30    31     1     1     1
SMALL
USER_CHARGES


@<TRIPOS>ATOM
      1 C9         -1.7735    0.2864    0.6954 C.ar       1 <1>        0.000
      2 C12        -0.6474    0.8147    1.3285 C.ar       1 <1>        0.000
      3 C13        -1.8502   -0.8819   -0.0642 C.ar       1 <1>        0.000
      4 C15         0.4197   -0.0515    1.2191 C.ar       1 <1>        0.000
      5 O1         -0.6136    1.9659    1.9793 O.3        1 <1>        0.000
      6 C16        -0.7160   -1.6231   -0.2114 C.ar       1 <1>        0.000
      7 C17         0.4048   -1.2186    0.4783 C.ar       1 <1>        0.000
      8 C26         2.9780   -2.9957   -3.3620 C.ar       1 <1>        0.000
      9 C20         1.6196   -1.9822    0.4537 C.2        1 <1>        0.000
     10 N3          1.5858   -3.1802   -0.1850 N.am       1 <1>        0.000
     11 O4          2.6452   -1.5214    0.9065 O.2        1 <1>        0.000
     12 S1          2.7544   -4.0031   -0.8286 S.o2       1 <1>        0.000
     13 C25         3.2819   -2.8694   -2.0148 C.ar       1 <1>        0.000
     14 O5          3.7444   -4.1868    0.1774 O.2        1 <1>        0.000
     15 O6          2.0882   -5.1034   -1.5023 O.2        1 <1>        0.000
     16 C27         3.8538   -1.6050   -1.7756 C.ar       1 <1>        0.000
     17 C28         3.4581   -2.1859   -4.3870 C.ar       1 <1>        0.000
     18 C30         4.3841   -0.7452   -2.7372 C.ar       1 <1>        0.000
     19 C31         4.1741   -1.0542   -4.0593 C.ar       1 <1>        0.000
     20 H          -2.6992    0.8510    0.8070 H.spc      1 <1>        0.000
     21 H          -2.7879   -1.1919   -0.5253 H.spc      1 <1>        0.000
     22 H           1.3363    0.2008    1.7523 H.spc      1 <1>        0.000
     23 H          -1.4714    2.3924    1.9175 H.spc      1 <1>        0.000
     24 H          -0.6969   -2.5046   -0.8522 H.spc      1 <1>        0.000
     25 H           2.3016   -3.8026   -3.6437 H.spc      1 <1>        0.000
     26 H           0.6627   -3.6082   -0.2566 H.spc      1 <1>        0.000
     27 H           3.8850   -1.2659   -0.7402 H.spc      1 <1>        0.000
     28 H           3.2714   -2.4418   -5.4300 H.spc      1 <1>        0.000
     29 H           4.9467    0.1428   -2.4492 H.spc      1 <1>        0.000
     30 H           4.5707   -0.4093   -4.8435 H.spc      1 <1>        0.000
@<TRIPOS>BOND
     1    2    5 1  
     2    2    4 ar 
     3    3    6 ar 
     4   17   19 ar 
     5    4    7 ar 
     6    6    7 ar 
     7    9   11 2  
     8   10   12 1  
     9   16   18 ar 
    10   12   15 2  
    11    9   10 am 
    12   13   16 ar 
    13    7    9 1  
    14   12   14 2  
    15   12   13 1  
    16   18   19 ar 
    17    8   17 ar 
    18   13    8 ar 
    19    1    3 ar 
    20    1    2 ar 
    21    1   20 1  
    22    3   21 1  
    23    4   22 1  
    24    5   23 1  
    25    6   24 1  
    26    8   25 1  
    27   10   26 1  
    28   16   27 1  
    29   17   28 1  
    30   18   29 1  
    31   19   30 1  
# Name:          frag5-677-62/138278 -- energy: -3.819574
# Creation time: Sat Jun  5 12:51:55 2010


@<TRIPOS>MOLECULE
frag5-677-62/138278 -- energy: -3.819574
   30    31     1     1     1
SMALL
USER_CHARGES


@<TRIPOS>ATOM
      1 C9         -0.6379    0.3571    1.7022 C.ar       1 <1>        0.000
      2 C12        -0.5936    0.5297    0.3177 C.ar       1 <1>        0.000
      3 C13        -0.3165   -0.8091    2.4031 C.ar       1 <1>        0.000
      4 C15        -0.0759   -0.6241   -0.2982 C.ar       1 <1>        0.000
      5 O1         -0.9308    1.6492   -0.3090 O.3        1 <1>        0.000
      6 C16         0.0794   -1.9239    1.6841 C.ar       1 <1>        0.000
      7 C17         0.0828   -1.8974    0.2949 C.ar       1 <1>        0.000
      8 C26         4.6848   -2.1699   -2.1577 C.ar       1 <1>        0.000
      9 C20         0.3608   -3.1346   -0.5054 C.2        1 <1>        0.000
     10 N3          1.6355   -3.6362   -0.5631 N.am       1 <1>        0.000
     11 O4         -0.5155   -3.6535   -1.1687 O.2        1 <1>        0.000
     12 S1          3.0591   -3.0309   -0.2299 S.o2       1 <1>        0.000
     13 C25         3.3812   -2.2453   -1.7131 C.ar       1 <1>        0.000
     14 O5          2.9014   -2.0226    0.7881 O.2        1 <1>        0.000
     15 O6          3.9509   -4.1543   -0.0582 O.2        1 <1>        0.000
     16 C27         2.4930   -1.7621   -2.7230 C.ar       1 <1>        0.000
     17 C28         5.1371   -1.5499   -3.3049 C.ar       1 <1>        0.000
     18 C30         2.8752   -1.0700   -3.8805 C.ar       1 <1>        0.000
     19 C31         4.2202   -0.9932   -4.1674 C.ar       1 <1>        0.000
     20 H          -0.9540    1.2156    2.2948 H.spc      1 <1>        0.000
     21 H          -0.3763   -0.8399    3.4910 H.spc      1 <1>        0.000
     22 H           0.2344   -0.5264   -1.3385 H.spc      1 <1>        0.000
     23 H          -1.2572    2.2867    0.3303 H.spc      1 <1>        0.000
     24 H           0.3899   -2.8266    2.2102 H.spc      1 <1>        0.000
     25 H           5.4392   -2.6520   -1.5359 H.spc      1 <1>        0.000
     26 H           1.6743   -4.6019   -0.8891 H.spc      1 <1>        0.000
     27 H           1.4283   -1.9474   -2.5812 H.spc      1 <1>        0.000
     28 H           6.2037   -1.5019   -3.5244 H.spc      1 <1>        0.000
     29 H           2.1330   -0.6081   -4.5316 H.spc      1 <1>        0.000
     30 H           4.5576   -0.4929   -5.0751 H.spc      1 <1>        0.000
@<TRIPOS>BOND
     1    2    5 1  
     2    2    4 ar 
     3    3    6 ar 
     4   17   19 ar 
     5    4    7 ar 
     6    6    7 ar 
     7    9   11 2  
     8   10   12 1  
     9   16   18 ar 
    10   12   15 2  
    11    9   10 am 
    12   13   16 ar 
    13    7    9 1  
    14   12   14 2  
    15   12   13 1  
    16   18   19 ar 
    17    8   17 ar 
    18   13    8 ar 
    19    1    3 ar 
    20    1    2 ar 
    21    1   20 1  
    22    3   21 1  
    23    4   22 1  
    24    5   23 1  
    25    6   24 1  
    26    8   25 1  
    27   10   26 1  
    28   16   27 1  
    29   17   28 1  
    30   18   29 1  
    31   19   30 1  
# Name:          frag5-677-62/138278 -- energy: -1.383958
# Creation time: Sat Jun  5 12:51:55 2010


@<TRIPOS>MOLECULE
frag5-677-62/138278 -- energy: -1.383958
   30    31     1     1     1
SMALL
USER_CHARGES


@<TRIPOS>ATOM
      1 C9         -1.8044   -0.1419    1.8542 C.ar       1 <1>        0.000
      2 C12        -1.2232    0.2565    0.6671 C.ar       1 <1>        0.000
      3 C13        -1.4702   -1.2616    2.6131 C.ar       1 <1>        0.000
      4 C15        -0.1304   -0.5862    0.3853 C.ar       1 <1>        0.000
      5 O1         -1.5965    1.3038   -0.0689 O.3        1 <1>        0.000
      6 C16        -0.4511   -2.0809    2.1700 C.ar       1 <1>        0.000
      7 C17         0.2638   -1.8022    1.0326 C.ar       1 <1>        0.000
      8 C26         3.2565   -2.8242   -3.5556 C.ar       1 <1>        0.000
      9 C20         1.3472   -2.7707    0.6903 C.2        1 <1>        0.000
     10 N3          2.1789   -2.5288   -0.3342 N.am       1 <1>        0.000
     11 O4          1.5027   -3.8092    1.3164 O.2        1 <1>        0.000
     12 S1          2.2532   -1.4595   -1.4974 S.o2       1 <1>        0.000
     13 C25         3.5036   -2.0447   -2.4494 C.ar       1 <1>        0.000
     14 O5          1.0067   -1.6157   -2.1812 O.2        1 <1>        0.000
     15 O6          2.6705   -0.2182   -0.8932 O.2        1 <1>        0.000
     16 C27         4.8373   -2.0478   -2.0720 C.ar       1 <1>        0.000
     17 C28         4.2247   -3.1510   -4.4886 C.ar       1 <1>        0.000
     18 C30         5.8742   -2.4100   -2.9238 C.ar       1 <1>        0.000
     19 C31         5.5478   -2.9485   -4.1538 C.ar       1 <1>        0.000
     20 H          -2.6091    0.4852    2.2380 H.spc      1 <1>        0.000
     21 H          -2.0023   -1.4861    3.5375 H.spc      1 <1>        0.000
     22 H           0.5048   -0.2686   -0.4416 H.spc      1 <1>        0.000
     23 H          -2.3668    1.7153    0.3297 H.spc      1 <1>        0.000
     24 H          -0.2070   -2.9765    2.7413 H.spc      1 <1>        0.000
     25 H           2.2458   -3.2041   -3.7049 H.spc      1 <1>        0.000
     26 H           2.9497   -3.1957   -0.3722 H.spc      1 <1>        0.000
     27 H           5.0861   -1.7505   -1.0533 H.spc      1 <1>        0.000
     28 H           3.9495   -3.5575   -5.4618 H.spc      1 <1>        0.000
     29 H           6.9149   -2.2732   -2.6300 H.spc      1 <1>        0.000
     30 H           6.3353   -3.2132   -4.8593 H.spc      1 <1>        0.000
@<TRIPOS>BOND
     1    2    5 1  
     2    2    4 ar 
     3    3    6 ar 
     4   17   19 ar 
     5    4    7 ar 
     6    6    7 ar 
     7    9   11 2  
     8   10   12 1  
     9   16   18 ar 
    10   12   15 2  
    11    9   10 am 
    12   13   16 ar 
    13    7    9 1  
    14   12   14 2  
    15   12   13 1  
    16   18   19 ar 
    17    8   17 ar 
    18   13    8 ar 
    19    1    3 ar 
    20    1    2 ar 
    21    1   20 1  
    22    3   21 1  
    23    4   22 1  
    24    5   23 1  
    25    6   24 1  
    26    8   25 1  
    27   10   26 1  
    28   16   27 1  
    29   17   28 1  
    30   18   29 1  
    31   19   30 1  
# Name:          frag5-677-62/138278 -- energy: -2.642874
# Creation time: Sat Jun  5 12:51:55 2010


@<TRIPOS>MOLECULE
frag5-677-62/138278 -- energy: -2.642874
   30    31     1     1     1
SMALL
USER_CHARGES


@<TRIPOS>ATOM
      1 C9         -2.0196    0.2256    1.4792 C.ar       1 <1>        0.000
      2 C12        -0.8589    0.0359    2.2339 C.ar       1 <1>        0.000
      3 C13        -2.2770   -0.2232    0.1678 C.ar       1 <1>        0.000
      4 C15         0.0107   -0.7883    1.5492 C.ar       1 <1>        0.000
      5 O1         -0.6575    0.5354    3.4458 O.3        1 <1>        0.000
      6 C16        -1.3202   -0.9449   -0.4721 C.ar       1 <1>        0.000
      7 C17        -0.2063   -1.2551    0.2357 C.ar       1 <1>        0.000
      8 C26         3.1475   -1.7825   -3.1552 C.ar       1 <1>        0.000
      9 C20         0.7666   -2.0408   -0.4488 C.2        1 <1>        0.000
     10 N3          2.0298   -1.5552   -0.3982 N.am       1 <1>        0.000
     11 O4          0.4761   -3.1011   -0.9687 O.2        1 <1>        0.000
     12 S1          3.4392   -2.2774   -0.3798 S.o2       1 <1>        0.000
     13 C25         3.7737   -2.4098   -2.0416 C.ar       1 <1>        0.000
     14 O5          4.3612   -1.3247    0.2275 O.2        1 <1>        0.000
     15 O6          3.2461   -3.5906    0.1657 O.2        1 <1>        0.000
     16 C27         4.6732   -3.3643   -2.4786 C.ar       1 <1>        0.000
     17 C28         3.5596   -1.9018   -4.4885 C.ar       1 <1>        0.000
     18 C30         5.0992   -3.5659   -3.7771 C.ar       1 <1>        0.000
     19 C31         4.5481   -2.8123   -4.7855 C.ar       1 <1>        0.000
     20 H          -2.8202    0.7866    1.9612 H.spc      1 <1>        0.000
     21 H          -3.2237    0.0040   -0.3224 H.spc      1 <1>        0.000
     22 H           0.9244   -1.0988    2.0560 H.spc      1 <1>        0.000
     23 H          -1.4098    1.0764    3.6968 H.spc      1 <1>        0.000
     24 H          -1.4427   -1.2604   -1.5082 H.spc      1 <1>        0.000
     25 H           2.2766   -1.1587   -2.9541 H.spc      1 <1>        0.000
     26 H           2.0834   -0.5371   -0.3660 H.spc      1 <1>        0.000
     27 H           5.0896   -4.0267   -1.7197 H.spc      1 <1>        0.000
     28 H           3.1094   -1.2898   -5.2701 H.spc      1 <1>        0.000
     29 H           5.8619   -4.3124   -3.9988 H.spc      1 <1>        0.000
     30 H           4.8912   -2.9347   -5.8128 H.spc      1 <1>        0.000
@<TRIPOS>BOND
     1    2    5 1  
     2    2    4 ar 
     3    3    6 ar 
     4   17   19 ar 
     5    4    7 ar 
     6    6    7 ar 
     7    9   11 2  
     8   10   12 1  
     9   16   18 ar 
    10   12   15 2  
    11    9   10 am 
    12   13   16 ar 
    13    7    9 1  
    14   12   14 2  
    15   12   13 1  
    16   18   19 ar 
    17    8   17 ar 
    18   13    8 ar 
    19    1    3 ar 
    20    1    2 ar 
    21    1   20 1  
    22    3   21 1  
    23    4   22 1  
    24    5   23 1  
    25    6   24 1  
    26    8   25 1  
    27   10   26 1  
    28   16   27 1  
    29   17   28 1  
    30   18   29 1  
    31   19   30 1  
# Name:          frag5-677-62/138278 -- energy: -2.967833
# Creation time: Sat Jun  5 12:51:55 2010


@<TRIPOS>MOLECULE
frag5-677-62/138278 -- energy: -2.967833
   30    31     1     1     1
SMALL
USER_CHARGES


@<TRIPOS>ATOM
      1 C9         -1.9926   -0.4740    1.1553 C.ar       1 <1>        0.000
      2 C12        -1.1057    0.2289    0.3413 C.ar       1 <1>        0.000
      3 C13        -1.7341   -1.6621    1.8473 C.ar       1 <1>        0.000
      4 C15         0.1714   -0.3610    0.4034 C.ar       1 <1>        0.000
      5 O1         -1.4146    1.3252   -0.3427 O.3        1 <1>        0.000
      6 C16        -0.4765   -2.2242    1.7419 C.ar       1 <1>        0.000
      7 C17         0.5361   -1.5461    1.0940 C.ar       1 <1>        0.000
      8 C26         4.4819   -1.6973   -1.8381 C.ar       1 <1>        0.000
      9 C20         1.9313   -2.0688    1.1765 C.2        1 <1>        0.000
     10 N3          2.4690   -2.6407    0.0761 N.am       1 <1>        0.000
     11 O4          2.5725   -2.0582    2.2088 O.2        1 <1>        0.000
     12 S1          2.0086   -3.0138   -1.3904 S.o2       1 <1>        0.000
     13 C25         3.3010   -2.3641   -2.2785 C.ar       1 <1>        0.000
     14 O5          2.0194   -4.4475   -1.4384 O.2        1 <1>        0.000
     15 O6          0.8366   -2.2432   -1.7400 O.2        1 <1>        0.000
     16 C27         3.2146   -2.3826   -3.6454 C.ar       1 <1>        0.000
     17 C28         5.5057   -1.2453   -2.6825 C.ar       1 <1>        0.000
     18 C30         4.1534   -1.9085   -4.5343 C.ar       1 <1>        0.000
     19 C31         5.3131   -1.3577   -4.0432 C.ar       1 <1>        0.000
     20 H          -2.9925   -0.0538    1.2641 H.spc      1 <1>        0.000
     21 H          -2.5066   -2.1331    2.4552 H.spc      1 <1>        0.000
     22 H           0.9678    0.1488   -0.1388 H.spc      1 <1>        0.000
     23 H          -2.3466    1.5227   -0.2246 H.spc      1 <1>        0.000
     24 H          -0.2832   -3.2069    2.1720 H.spc      1 <1>        0.000
     25 H           4.5969   -1.5267   -0.7677 H.spc      1 <1>        0.000
     26 H           3.4412   -2.9049    0.2357 H.spc      1 <1>        0.000
     27 H           2.3108   -2.8167   -4.0730 H.spc      1 <1>        0.000
     28 H           6.4233   -0.8192   -2.2769 H.spc      1 <1>        0.000
     29 H           3.9799   -1.9689   -5.6087 H.spc      1 <1>        0.000
     30 H           6.0828   -1.0087   -4.7315 H.spc      1 <1>        0.000
@<TRIPOS>BOND
     1    2    5 1  
     2    2    4 ar 
     3    3    6 ar 
     4   17   19 ar 
     5    4    7 ar 
     6    6    7 ar 
     7    9   11 2  
     8   10   12 1  
     9   16   18 ar 
    10   12   15 2  
    11    9   10 am 
    12   13   16 ar 
    13    7    9 1  
    14   12   14 2  
    15   12   13 1  
    16   18   19 ar 
    17    8   17 ar 
    18   13    8 ar 
    19    1    3 ar 
    20    1    2 ar 
    21    1   20 1  
    22    3   21 1  
    23    4   22 1  
    24    5   23 1  
    25    6   24 1  
    26    8   25 1  
    27   10   26 1  
    28   16   27 1  
    29   17   28 1  
    30   18   29 1  
    31   19   30 1  
# Name:          frag5-677-62/138278 -- energy: -2.924948
# Creation time: Sat Jun  5 12:51:55 2010


@<TRIPOS>MOLECULE
frag5-677-62/138278 -- energy: -2.924948
   30    31     1     1     1
SMALL
USER_CHARGES


@<TRIPOS>ATOM
      1 C9         -1.3059    0.5581    0.1079 C.ar       1 <1>        0.000
      2 C12        -0.2839    0.8925    1.0059 C.ar       1 <1>        0.000
      3 C13        -1.4272   -0.6336   -0.6105 C.ar       1 <1>        0.000
      4 C15         0.5740   -0.1745    1.1982 C.ar       1 <1>        0.000
      5 O1         -0.1765    2.0551    1.6254 O.3        1 <1>        0.000
      6 C16        -0.4649   -1.5912   -0.4430 C.ar       1 <1>        0.000
      7 C17         0.4900   -1.3953    0.5363 C.ar       1 <1>        0.000
      8 C26         2.4977   -2.9030   -3.2084 C.ar       1 <1>        0.000
      9 C20         1.4617   -2.4112    0.8687 C.2        1 <1>        0.000
     10 N3          1.6328   -3.4153   -0.0347 N.am       1 <1>        0.000
     11 O4          2.2122   -2.2882    1.8162 O.2        1 <1>        0.000
     12 S1          2.9643   -3.9353   -0.6938 S.o2       1 <1>        0.000
     13 C25         3.1278   -2.7874   -1.9555 C.ar       1 <1>        0.000
     14 O5          4.0106   -3.7560    0.2642 O.2        1 <1>        0.000
     15 O6          2.6091   -5.2126   -1.2854 O.2        1 <1>        0.000
     16 C27         3.7043   -1.5139   -1.8113 C.ar       1 <1>        0.000
     17 C28         2.7031   -2.0572   -4.2953 C.ar       1 <1>        0.000
     18 C30         3.9948   -0.6488   -2.8638 C.ar       1 <1>        0.000
     19 C31         3.4672   -0.9231   -4.1100 C.ar       1 <1>        0.000
     20 H          -2.0858    1.3039   -0.0458 H.spc      1 <1>        0.000
     21 H          -2.2665   -0.7962   -1.2867 H.spc      1 <1>        0.000
     22 H           1.3777   -0.0497    1.9239 H.spc      1 <1>        0.000
     23 H          -0.8807    2.6384    1.3331 H.spc      1 <1>        0.000
     24 H          -0.4517   -2.4856   -1.0659 H.spc      1 <1>        0.000
     25 H           1.7905   -3.7222   -3.3388 H.spc      1 <1>        0.000
     26 H           0.7814   -3.8966   -0.3241 H.spc      1 <1>        0.000
     27 H           3.9416   -1.1784   -0.8017 H.spc      1 <1>        0.000
     28 H           2.2706   -2.2855   -5.2694 H.spc      1 <1>        0.000
     29 H           4.6254    0.2263   -2.7069 H.spc      1 <1>        0.000
     30 H           3.6535   -0.2465   -4.9441 H.spc      1 <1>        0.000
@<TRIPOS>BOND
     1    2    5 1  
     2    2    4 ar 
     3    3    6 ar 
     4   17   19 ar 
     5    4    7 ar 
     6    6    7 ar 
     7    9   11 2  
     8   10   12 1  
     9   16   18 ar 
    10   12   15 2  
    11    9   10 am 
    12   13   16 ar 
    13    7    9 1  
    14   12   14 2  
    15   12   13 1  
    16   18   19 ar 
    17    8   17 ar 
    18   13    8 ar 
    19    1    3 ar 
    20    1    2 ar 
    21    1   20 1  
    22    3   21 1  
    23    4   22 1  
    24    5   23 1  
    25    6   24 1  
    26    8   25 1  
    27   10   26 1  
    28   16   27 1  
    29   17   28 1  
    30   18   29 1  
    31   19   30 1  
# Name:          frag5-677-62/138278 -- energy: -2.828119
# Creation time: Sat Jun  5 12:51:55 2010


@<TRIPOS>MOLECULE
frag5-677-62/138278 -- energy: -2.828119
   30    31     1     1     1
SMALL
USER_CHARGES


@<TRIPOS>ATOM
      1 C9         -2.1113   -0.6001    1.0687 C.ar       1 <1>        0.000
      2 C12        -1.2185    0.4668    1.1201 C.ar       1 <1>        0.000
      3 C13        -1.8069   -1.9321    0.7944 C.ar       1 <1>        0.000
      4 C15         0.0926    0.0170    0.9766 C.ar       1 <1>        0.000
      5 O1         -1.5490    1.7391    1.3196 O.3        1 <1>        0.000
      6 C16        -0.4773   -2.2598    0.5919 C.ar       1 <1>        0.000
      7 C17         0.5204   -1.2824    0.7146 C.ar       1 <1>        0.000
      8 C26         4.6771   -2.4140   -1.8643 C.ar       1 <1>        0.000
      9 C20         1.9679   -1.5336    0.6443 C.2        1 <1>        0.000
     10 N3          2.3549   -2.7402    0.1877 N.am       1 <1>        0.000
     11 O4          2.8032   -0.6673    0.8884 O.2        1 <1>        0.000
     12 S1          2.1869   -3.5091   -1.2014 S.o2       1 <1>        0.000
     13 C25         3.3362   -2.6963   -2.1732 C.ar       1 <1>        0.000
     14 O5          2.6010   -4.8560   -0.9403 O.2        1 <1>        0.000
     15 O6          0.8923   -3.1733   -1.7251 O.2        1 <1>        0.000
     16 C27         2.9514   -1.9875   -3.3050 C.ar       1 <1>        0.000
     17 C28         5.6144   -1.8966   -2.7701 C.ar       1 <1>        0.000
     18 C30         3.8038   -1.4205   -4.2449 C.ar       1 <1>        0.000
     19 C31         5.1524   -1.3951   -3.9710 C.ar       1 <1>        0.000
     20 H          -3.1586   -0.3694    1.2635 H.spc      1 <1>        0.000
     21 H          -2.5887   -2.6897    0.7411 H.spc      1 <1>        0.000
     22 H           0.8742    0.7695    1.0816 H.spc      1 <1>        0.000
     23 H          -2.5036    1.8136    1.3884 H.spc      1 <1>        0.000
     24 H          -0.2044   -3.2835    0.3356 H.spc      1 <1>        0.000
     25 H           5.0136   -2.6115   -0.8465 H.spc      1 <1>        0.000
     26 H           2.8685   -3.2822    0.8825 H.spc      1 <1>        0.000
     27 H           1.8811   -1.8648   -3.4710 H.spc      1 <1>        0.000
     28 H           6.6782   -1.8905   -2.5328 H.spc      1 <1>        0.000
     29 H           3.4144   -1.0066   -5.1750 H.spc      1 <1>        0.000
     30 H           5.8517   -0.9816   -4.6977 H.spc      1 <1>        0.000
@<TRIPOS>BOND
     1    2    5 1  
     2    2    4 ar 
     3    3    6 ar 
     4   17   19 ar 
     5    4    7 ar 
     6    6    7 ar 
     7    9   11 2  
     8   10   12 1  
     9   16   18 ar 
    10   12   15 2  
    11    9   10 am 
    12   13   16 ar 
    13    7    9 1  
    14   12   14 2  
    15   12   13 1  
    16   18   19 ar 
    17    8   17 ar 
    18   13    8 ar 
    19    1    3 ar 
    20    1    2 ar 
    21    1   20 1  
    22    3   21 1  
    23    4   22 1  
    24    5   23 1  
    25    6   24 1  
    26    8   25 1  
    27   10   26 1  
    28   16   27 1  
    29   17   28 1  
    30   18   29 1  
    31   19   30 1  
# Name:          frag5-677-62/138278 -- energy: -2.602278
# Creation time: Sat Jun  5 12:51:55 2010


@<TRIPOS>MOLECULE
frag5-677-62/138278 -- energy: -2.602278
   30    31     1     1     1
SMALL
USER_CHARGES


@<TRIPOS>ATOM
      1 C9         -2.2081   -0.8779    1.3488 C.ar       1 <1>        0.000
      2 C12        -1.4306    0.2538    1.1081 C.ar       1 <1>        0.000
      3 C13        -1.7689   -2.2057    1.3828 C.ar       1 <1>        0.000
      4 C15        -0.0805   -0.1046    0.9844 C.ar       1 <1>        0.000
      5 O1         -1.8997    1.4962    1.0731 O.3        1 <1>        0.000
      6 C16        -0.4293   -2.4595    1.1269 C.ar       1 <1>        0.000
      7 C17         0.4654   -1.3970    1.0233 C.ar       1 <1>        0.000
      8 C26         4.7506   -2.2681   -1.9569 C.ar       1 <1>        0.000
      9 C20         1.9338   -1.5919    0.9890 C.2        1 <1>        0.000
     10 N3          2.4327   -2.2538   -0.0708 N.am       1 <1>        0.000
     11 O4          2.6895   -1.1799    1.8482 O.2        1 <1>        0.000
     12 S1          1.9650   -2.6256   -1.5334 S.o2       1 <1>        0.000
     13 C25         3.4136   -2.4474   -2.4112 C.ar       1 <1>        0.000
     14 O5          1.5835   -4.0050   -1.4711 O.2        1 <1>        0.000
     15 O6          1.0622   -1.5864   -1.9817 O.2        1 <1>        0.000
     16 C27         3.3418   -2.3050   -3.7762 C.ar       1 <1>        0.000
     17 C28         5.8823   -2.2108   -2.7799 C.ar       1 <1>        0.000
     18 C30         4.4055   -2.1998   -4.6509 C.ar       1 <1>        0.000
     19 C31         5.6826   -2.1723   -4.1417 C.ar       1 <1>        0.000
     20 H          -3.2699   -0.7107    1.5295 H.spc      1 <1>        0.000
     21 H          -2.4604   -3.0186    1.6043 H.spc      1 <1>        0.000
     22 H           0.6253    0.7137    0.8418 H.spc      1 <1>        0.000
     23 H          -2.8537    1.4800    1.1793 H.spc      1 <1>        0.000
     24 H          -0.0788   -3.4847    1.0076 H.spc      1 <1>        0.000
     25 H           4.9060   -2.1674   -0.8828 H.spc      1 <1>        0.000
     26 H           3.3674   -2.6135    0.1227 H.spc      1 <1>        0.000
     27 H           2.3437   -2.2717   -4.2130 H.spc      1 <1>        0.000
     28 H           6.8868   -2.1971   -2.3569 H.spc      1 <1>        0.000
     29 H           4.2357   -2.1396   -5.7259 H.spc      1 <1>        0.000
     30 H           6.5371   -2.1200   -4.8164 H.spc      1 <1>        0.000
@<TRIPOS>BOND
     1    2    5 1  
     2    2    4 ar 
     3    3    6 ar 
     4   17   19 ar 
     5    4    7 ar 
     6    6    7 ar 
     7    9   11 2  
     8   10   12 1  
     9   16   18 ar 
    10   12   15 2  
    11    9   10 am 
    12   13   16 ar 
    13    7    9 1  
    14   12   14 2  
    15   12   13 1  
    16   18   19 ar 
    17    8   17 ar 
    18   13    8 ar 
    19    1    3 ar 
    20    1    2 ar 
    21    1   20 1  
    22    3   21 1  
    23    4   22 1  
    24    5   23 1  
    25    6   24 1  
    26    8   25 1  
    27   10   26 1  
    28   16   27 1  
    29   17   28 1  
    30   18   29 1  
    31   19   30 1  
# Name:          frag5-677-62/138278 -- energy: -2.838874
# Creation time: Sat Jun  5 12:51:55 2010


@<TRIPOS>MOLECULE
frag5-677-62/138278 -- energy: -2.838874
   30    31     1     1     1
SMALL
USER_CHARGES


@<TRIPOS>ATOM
      1 C9         -1.3108   -0.1930    2.5785 C.ar       1 <1>        0.000
      2 C12        -1.9148   -0.3666    1.3239 C.ar       1 <1>        0.000
      3 C13         0.0397   -0.3830    2.8952 C.ar       1 <1>        0.000
      4 C15        -0.9544   -0.6477    0.3601 C.ar       1 <1>        0.000
      5 O1         -3.2102   -0.2314    1.0918 O.3        1 <1>        0.000
      6 C16         0.8919   -0.7804    1.9082 C.ar       1 <1>        0.000
      7 C17         0.4051   -0.8167    0.6320 C.ar       1 <1>        0.000
      8 C26         3.5904   -2.6009   -3.6162 C.ar       1 <1>        0.000
      9 C20         1.3219   -1.1236   -0.4263 C.2        1 <1>        0.000
     10 N3          1.7870   -2.4048   -0.4185 N.am       1 <1>        0.000
     11 O4          1.5406   -0.3541   -1.3333 O.2        1 <1>        0.000
     12 S1          2.0168   -3.4050   -1.5966 S.o2       1 <1>        0.000
     13 C25         3.4693   -2.8050   -2.2526 C.ar       1 <1>        0.000
     14 O5          2.2568   -4.6809   -0.9656 O.2        1 <1>        0.000
     15 O6          0.9380   -3.1889   -2.5308 O.2        1 <1>        0.000
     16 C27         4.5848   -2.2728   -1.5576 C.ar       1 <1>        0.000
     17 C28         4.7257   -2.1830   -4.2795 C.ar       1 <1>        0.000
     18 C30         5.7823   -1.8787   -2.1614 C.ar       1 <1>        0.000
     19 C31         5.8313   -1.8244   -3.5404 C.ar       1 <1>        0.000
     20 H          -1.9623    0.1234    3.3931 H.spc      1 <1>        0.000
     21 H           0.4021   -0.2167    3.9097 H.spc      1 <1>        0.000
     22 H          -1.2831   -0.7424   -0.6748 H.spc      1 <1>        0.000
     23 H          -3.6636   -0.0399    1.9161 H.spc      1 <1>        0.000
     24 H           1.9225   -1.0586    2.1287 H.spc      1 <1>        0.000
     25 H           2.7049   -2.7881   -4.2236 H.spc      1 <1>        0.000
     26 H           2.0229   -2.7691    0.5046 H.spc      1 <1>        0.000
     27 H           4.5027   -2.1633   -0.4762 H.spc      1 <1>        0.000
     28 H           4.7473   -2.1375   -5.3683 H.spc      1 <1>        0.000
     29 H           6.6541   -1.6211   -1.5599 H.spc      1 <1>        0.000
     30 H           6.7423   -1.4987   -4.0425 H.spc      1 <1>        0.000
@<TRIPOS>BOND
     1    2    5 1  
     2    2    4 ar 
     3    3    6 ar 
     4   17   19 ar 
     5    4    7 ar 
     6    6    7 ar 
     7    9   11 2  
     8   10   12 1  
     9   16   18 ar 
    10   12   15 2  
    11    9   10 am 
    12   13   16 ar 
    13    7    9 1  
    14   12   14 2  
    15   12   13 1  
    16   18   19 ar 
    17    8   17 ar 
    18   13    8 ar 
    19    1    3 ar 
    20    1    2 ar 
    21    1   20 1  
    22    3   21 1  
    23    4   22 1  
    24    5   23 1  
    25    6   24 1  
    26    8   25 1  
    27   10   26 1  
    28   16   27 1  
    29   17   28 1  
    30   18   29 1  
    31   19   30 1  
# Name:          frag5-677-62/138278 -- energy: -2.487561
# Creation time: Sat Jun  5 12:51:55 2010


@<TRIPOS>MOLECULE
frag5-677-62/138278 -- energy: -2.487561
   30    31     1     1     1
SMALL
USER_CHARGES


@<TRIPOS>ATOM
      1 C9         -1.7943   -0.3997    2.1240 C.ar       1 <1>        0.000
      2 C12        -1.1964    0.6509    1.4146 C.ar       1 <1>        0.000
      3 C13        -1.4510   -1.7560    2.0667 C.ar       1 <1>        0.000
      4 C15        -0.1062    0.1985    0.7056 C.ar       1 <1>        0.000
      5 O1         -1.5723    1.9147    1.4574 O.3        1 <1>        0.000
      6 C16        -0.4257   -2.1327    1.2359 C.ar       1 <1>        0.000
      7 C17         0.2437   -1.1290    0.5543 C.ar       1 <1>        0.000
      8 C26         4.4098   -1.9904   -1.6812 C.ar       1 <1>        0.000
      9 C20         1.3277   -1.3721   -0.3446 C.2        1 <1>        0.000
     10 N3          1.2135   -2.4639   -1.1530 N.am       1 <1>        0.000
     11 O4          2.3544   -0.7286   -0.2546 O.2        1 <1>        0.000
     12 S1          2.2277   -3.6476   -1.3645 S.o2       1 <1>        0.000
     13 C25         3.4419   -2.8402   -2.2410 C.ar       1 <1>        0.000
     14 O5          2.6935   -4.0013   -0.0466 O.2        1 <1>        0.000
     15 O6          1.5465   -4.5834   -2.2329 O.2        1 <1>        0.000
     16 C27         3.4246   -2.6991   -3.6330 C.ar       1 <1>        0.000
     17 C28         5.4892   -1.4478   -2.3649 C.ar       1 <1>        0.000
     18 C30         4.4577   -2.1633   -4.3926 C.ar       1 <1>        0.000
     19 C31         5.5071   -1.5500   -3.7389 C.ar       1 <1>        0.000
     20 H          -2.6137   -0.1325    2.7913 H.spc      1 <1>        0.000
     21 H          -1.9843   -2.4935    2.6665 H.spc      1 <1>        0.000
     22 H           0.5287    0.9445    0.2276 H.spc      1 <1>        0.000
     23 H          -2.3534    1.9965    2.0095 H.spc      1 <1>        0.000
     24 H          -0.1488   -3.1802    1.1169 H.spc      1 <1>        0.000
     25 H           4.3052   -1.7368   -0.6263 H.spc      1 <1>        0.000
     26 H           0.3516   -2.5211   -1.6955 H.spc      1 <1>        0.000
     27 H           2.5327   -3.0351   -4.1620 H.spc      1 <1>        0.000
     28 H           6.3004   -0.9544   -1.8295 H.spc      1 <1>        0.000
     29 H           4.4396   -2.2261   -5.4806 H.spc      1 <1>        0.000
     30 H           6.3462   -1.1483   -4.3069 H.spc      1 <1>        0.000
@<TRIPOS>BOND
     1    2    5 1  
     2    2    4 ar 
     3    3    6 ar 
     4   17   19 ar 
     5    4    7 ar 
     6    6    7 ar 
     7    9   11 2  
     8   10   12 1  
     9   16   18 ar 
    10   12   15 2  
    11    9   10 am 
    12   13   16 ar 
    13    7    9 1  
    14   12   14 2  
    15   12   13 1  
    16   18   19 ar 
    17    8   17 ar 
    18   13    8 ar 
    19    1    3 ar 
    20    1    2 ar 
    21    1   20 1  
    22    3   21 1  
    23    4   22 1  
    24    5   23 1  
    25    6   24 1  
    26    8   25 1  
    27   10   26 1  
    28   16   27 1  
    29   17   28 1  
    30   18   29 1  
    31   19   30 1  
# Name:          frag5-677-62/138278 -- energy: -2.232590
# Creation time: Sat Jun  5 12:51:55 2010


@<TRIPOS>MOLECULE
frag5-677-62/138278 -- energy: -2.232590
   30    31     1     1     1
SMALL
USER_CHARGES


@<TRIPOS>ATOM
      1 C9         -1.3158    0.8529    0.8320 C.ar       1 <1>        0.000
      2 C12        -1.7239   -0.4800    0.9415 C.ar       1 <1>        0.000
      3 C13        -0.0162    1.3130    0.5983 C.ar       1 <1>        0.000
      4 C15        -0.6802   -1.3442    0.6654 C.ar       1 <1>        0.000
      5 O1         -2.9535   -0.8870    1.2238 O.3        1 <1>        0.000
      6 C16         0.9845    0.3882    0.4556 C.ar       1 <1>        0.000
      7 C17         0.6512   -0.9340    0.6041 C.ar       1 <1>        0.000
      8 C26         4.5653   -2.6498   -2.1073 C.ar       1 <1>        0.000
      9 C20         1.6908   -1.9014    0.5018 C.2        1 <1>        0.000
     10 N3          1.4499   -2.9695   -0.2957 N.am       1 <1>        0.000
     11 O4          2.7649   -1.7090    1.0289 O.2        1 <1>        0.000
     12 S1          2.4941   -3.9378   -0.9824 S.o2       1 <1>        0.000
     13 C25         3.1975   -2.8230   -2.0690 C.ar       1 <1>        0.000
     14 O5          3.3940   -4.2902    0.0931 O.2        1 <1>        0.000
     15 O6          1.7404   -4.8921   -1.7245 O.2        1 <1>        0.000
     16 C27         2.5411   -1.8369   -2.8692 C.ar       1 <1>        0.000
     17 C28         5.2631   -1.9256   -3.0623 C.ar       1 <1>        0.000
     18 C30         3.1842   -1.0183   -3.8139 C.ar       1 <1>        0.000
     19 C31         4.5597   -1.0960   -3.9093 C.ar       1 <1>        0.000
     20 H          -2.0908    1.6117    0.9400 H.spc      1 <1>        0.000
     21 H           0.1953    2.3802    0.5314 H.spc      1 <1>        0.000
     22 H          -0.9089   -2.3950    0.4874 H.spc      1 <1>        0.000
     23 H          -3.5139   -0.1236    1.3811 H.spc      1 <1>        0.000
     24 H           2.0073    0.6918    0.2324 H.spc      1 <1>        0.000
     25 H           5.1489   -3.1235   -1.3179 H.spc      1 <1>        0.000
     26 H           0.4675   -3.1758   -0.4766 H.spc      1 <1>        0.000
     27 H           1.4664   -1.7109   -2.7376 H.spc      1 <1>        0.000
     28 H           6.3469   -2.0107   -3.1416 H.spc      1 <1>        0.000
     29 H           2.6144   -0.3427   -4.4518 H.spc      1 <1>        0.000
     30 H           5.0890   -0.5016   -4.6540 H.spc      1 <1>        0.000
@<TRIPOS>BOND
     1    2    5 1  
     2    2    4 ar 
     3    3    6 ar 
     4   17   19 ar 
     5    4    7 ar 
     6    6    7 ar 
     7    9   11 2  
     8   10   12 1  
     9   16   18 ar 
    10   12   15 2  
    11    9   10 am 
    12   13   16 ar 
    13    7    9 1  
    14   12   14 2  
    15   12   13 1  
    16   18   19 ar 
    17    8   17 ar 
    18   13    8 ar 
    19    1    3 ar 
    20    1    2 ar 
    21    1   20 1  
    22    3   21 1  
    23    4   22 1  
    24    5   23 1  
    25    6   24 1  
    26    8   25 1  
    27   10   26 1  
    28   16   27 1  
    29   17   28 1  
    30   18   29 1  
    31   19   30 1  
# Name:          frag5-677-62/138278 -- energy: -2.579633
# Creation time: Sat Jun  5 12:51:55 2010


@<TRIPOS>MOLECULE
frag5-677-62/138278 -- energy: -2.579633
   30    31     1     1     1
SMALL
USER_CHARGES


@<TRIPOS>ATOM
      1 C9         -1.4074    0.0948    1.5615 C.ar       1 <1>        0.000
      2 C12        -0.6871    0.3954    0.4092 C.ar       1 <1>        0.000
      3 C13        -1.4683   -1.1445    2.2070 C.ar       1 <1>        0.000
      4 C15         0.0402   -0.7291    0.0058 C.ar       1 <1>        0.000
      5 O1         -0.6823    1.5677   -0.2095 O.3        1 <1>        0.000
      6 C16        -0.7444   -2.1987    1.6975 C.ar       1 <1>        0.000
      7 C17        -0.0188   -2.0508    0.5365 C.ar       1 <1>        0.000
      8 C26         4.3844   -2.9507   -2.6233 C.ar       1 <1>        0.000
      9 C20         0.6510   -3.2727   -0.0260 C.2        1 <1>        0.000
     10 N3          1.9351   -3.1928   -0.4963 N.am       1 <1>        0.000
     11 O4          0.0849   -4.3536   -0.0303 O.2        1 <1>        0.000
     12 S1          3.1762   -2.2008   -0.2957 S.o2       1 <1>        0.000
     13 C25         3.6302   -2.0041   -1.9152 C.ar       1 <1>        0.000
     14 O5          2.6825   -0.9455    0.2135 O.2        1 <1>        0.000
     15 O6          4.2025   -2.9192    0.4181 O.2        1 <1>        0.000
     16 C27         3.0765   -1.0572   -2.7850 C.ar       1 <1>        0.000
     17 C28         4.8864   -2.7604   -3.9028 C.ar       1 <1>        0.000
     18 C30         3.5760   -0.7689   -4.0449 C.ar       1 <1>        0.000
     19 C31         4.4739   -1.6499   -4.6094 C.ar       1 <1>        0.000
     20 H          -1.9822    0.9074    2.0059 H.spc      1 <1>        0.000
     21 H          -2.0798   -1.2736    3.1001 H.spc      1 <1>        0.000
     22 H           0.7390   -0.5758   -0.8166 H.spc      1 <1>        0.000
     23 H          -1.2587    2.1770    0.2574 H.spc      1 <1>        0.000
     24 H          -0.7456   -3.1571    2.2166 H.spc      1 <1>        0.000
     25 H           4.5908   -3.9028   -2.1343 H.spc      1 <1>        0.000
     26 H           2.1563   -3.9571   -1.1345 H.spc      1 <1>        0.000
     27 H           2.1949   -0.5111   -2.4492 H.spc      1 <1>        0.000
     28 H           5.5891   -3.4706   -4.3386 H.spc      1 <1>        0.000
     29 H           3.2670    0.1313   -4.5761 H.spc      1 <1>        0.000
     30 H           4.8576   -1.4689   -5.6135 H.spc      1 <1>        0.000
@<TRIPOS>BOND
     1    2    5 1  
     2    2    4 ar 
     3    3    6 ar 
     4   17   19 ar 
     5    4    7 ar 
     6    6    7 ar 
     7    9   11 2  
     8   10   12 1  
     9   16   18 ar 
    10   12   15 2  
    11    9   10 am 
    12   13   16 ar 
    13    7    9 1  
    14   12   14 2  
    15   12   13 1  
    16   18   19 ar 
    17    8   17 ar 
    18   13    8 ar 
    19    1    3 ar 
    20    1    2 ar 
    21    1   20 1  
    22    3   21 1  
    23    4   22 1  
    24    5   23 1  
    25    6   24 1  
    26    8   25 1  
    27   10   26 1  
    28   16   27 1  
    29   17   28 1  
    30   18   29 1  
    31   19   30 1  
# Name:          frag5-677-62/138278 -- energy: -3.189372
# Creation time: Sat Jun  5 12:51:55 2010


@<TRIPOS>MOLECULE
frag5-677-62/138278 -- energy: -3.189372
   30    31     1     1     1
SMALL
USER_CHARGES


@<TRIPOS>ATOM
      1 C9         -2.1149   -0.8405    1.8962 C.ar       1 <1>        0.000
      2 C12        -1.6576   -0.0471    0.8370 C.ar       1 <1>        0.000
      3 C13        -1.4305   -1.8975    2.5006 C.ar       1 <1>        0.000
      4 C15        -0.3378   -0.3807    0.5137 C.ar       1 <1>        0.000
      5 O1         -2.3721    0.9096    0.2621 O.3        1 <1>        0.000
      6 C16        -0.1804   -2.2199    2.0393 C.ar       1 <1>        0.000
      7 C17         0.4213   -1.4247    1.0925 C.ar       1 <1>        0.000
      8 C26         3.6005   -2.3769   -3.8354 C.ar       1 <1>        0.000
      9 C20         1.8395   -1.6611    0.7930 C.2        1 <1>        0.000
     10 N3          2.2821   -1.3164   -0.4376 N.am       1 <1>        0.000
     11 O4          2.5895   -2.2769    1.5294 O.2        1 <1>        0.000
     12 S1          1.8918   -1.8893   -1.8571 S.o2       1 <1>        0.000
     13 C25         3.4381   -2.2578   -2.4707 C.ar       1 <1>        0.000
     14 O5          1.1786   -3.1323   -1.6575 O.2        1 <1>        0.000
     15 O6          1.3322   -0.7791   -2.5924 O.2        1 <1>        0.000
     16 C27         4.6935   -2.3837   -1.7954 C.ar       1 <1>        0.000
     17 C28         4.7727   -2.6476   -4.5082 C.ar       1 <1>        0.000
     18 C30         5.9120   -2.7015   -2.4122 C.ar       1 <1>        0.000
     19 C31         5.9329   -2.8173   -3.7865 C.ar       1 <1>        0.000
     20 H          -3.1052   -0.6099    2.2888 H.spc      1 <1>        0.000
     21 H          -1.8810   -2.4545    3.3221 H.spc      1 <1>        0.000
     22 H           0.1503    0.2189   -0.2547 H.spc      1 <1>        0.000
     23 H          -3.2449    0.9390    0.6607 H.spc      1 <1>        0.000
     24 H           0.3338   -3.1019    2.4210 H.spc      1 <1>        0.000
     25 H           2.7077   -2.2428   -4.4461 H.spc      1 <1>        0.000
     26 H           2.9767   -0.5696   -0.4513 H.spc      1 <1>        0.000
     27 H           4.7033   -2.2198   -0.7178 H.spc      1 <1>        0.000
     28 H           4.7810   -2.7261   -5.5953 H.spc      1 <1>        0.000
     29 H           6.8164   -2.8526   -1.8228 H.spc      1 <1>        0.000
     30 H           6.8671   -3.0430   -4.3007 H.spc      1 <1>        0.000
@<TRIPOS>BOND
     1    2    5 1  
     2    2    4 ar 
     3    3    6 ar 
     4   17   19 ar 
     5    4    7 ar 
     6    6    7 ar 
     7    9   11 2  
     8   10   12 1  
     9   16   18 ar 
    10   12   15 2  
    11    9   10 am 
    12   13   16 ar 
    13    7    9 1  
    14   12   14 2  
    15   12   13 1  
    16   18   19 ar 
    17    8   17 ar 
    18   13    8 ar 
    19    1    3 ar 
    20    1    2 ar 
    21    1   20 1  
    22    3   21 1  
    23    4   22 1  
    24    5   23 1  
    25    6   24 1  
    26    8   25 1  
    27   10   26 1  
    28   16   27 1  
    29   17   28 1  
    30   18   29 1  
    31   19   30 1  
# Name:          frag5-677-62/138278 -- energy: -0.810643
# Creation time: Sat Jun  5 12:51:55 2010


@<TRIPOS>MOLECULE
frag5-677-62/138278 -- energy: -0.810643
   30    31     1     1     1
SMALL
USER_CHARGES


@<TRIPOS>ATOM
      1 C9         -1.3896   -0.0512    2.3763 C.ar       1 <1>        0.000
      2 C12        -1.6004    0.4757    1.1003 C.ar       1 <1>        0.000
      3 C13        -0.4957   -1.0615    2.7573 C.ar       1 <1>        0.000
      4 C15        -0.7273   -0.0902    0.2094 C.ar       1 <1>        0.000
      5 O1         -2.4585    1.4351    0.7896 O.3        1 <1>        0.000
      6 C16         0.2519   -1.6521    1.7886 C.ar       1 <1>        0.000
      7 C17         0.1225   -1.1564    0.5019 C.ar       1 <1>        0.000
      8 C26         3.4802   -1.3421   -2.4724 C.ar       1 <1>        0.000
      9 C20         0.8536   -1.7053   -0.5767 C.2        1 <1>        0.000
     10 N3          1.8709   -2.5201   -0.2350 N.am       1 <1>        0.000
     11 O4          0.5456   -1.4962   -1.7379 O.2        1 <1>        0.000
     12 S1          2.6262   -3.6536   -1.0502 S.o2       1 <1>        0.000
     13 C25         3.5837   -2.7149   -2.0813 C.ar       1 <1>        0.000
     14 O5          3.4382   -4.3222   -0.0561 O.2        1 <1>        0.000
     15 O6          1.6450   -4.3638   -1.8329 O.2        1 <1>        0.000
     16 C27         4.7442   -3.2536   -2.6032 C.ar       1 <1>        0.000
     17 C28         4.3224   -0.6620   -3.3579 C.ar       1 <1>        0.000
     18 C30         5.5900   -2.6604   -3.5274 C.ar       1 <1>        0.000
     19 C31         5.3885   -1.3461   -3.8813 C.ar       1 <1>        0.000
     20 H          -1.9954    0.3763    3.1753 H.spc      1 <1>        0.000
     21 H          -0.4031   -1.3645    3.8002 H.spc      1 <1>        0.000
     22 H          -0.6945    0.3219   -0.7992 H.spc      1 <1>        0.000
     23 H          -2.9653    1.6744    1.5691 H.spc      1 <1>        0.000
     24 H           0.9241   -2.4799    2.0143 H.spc      1 <1>        0.000
     25 H           2.6624   -0.7687   -2.0360 H.spc      1 <1>        0.000
     26 H           2.2166   -2.3847    0.7150 H.spc      1 <1>        0.000
     27 H           5.0232   -4.2471   -2.2521 H.spc      1 <1>        0.000
     28 H           4.1369    0.3788   -3.6233 H.spc      1 <1>        0.000
     29 H           6.4073   -3.2299   -3.9698 H.spc      1 <1>        0.000
     30 H           6.0716   -0.8527   -4.5727 H.spc      1 <1>        0.000
@<TRIPOS>BOND
     1    2    5 1  
     2    2    4 ar 
     3    3    6 ar 
     4   17   19 ar 
     5    4    7 ar 
     6    6    7 ar 
     7    9   11 2  
     8   10   12 1  
     9   16   18 ar 
    10   12   15 2  
    11    9   10 am 
    12   13   16 ar 
    13    7    9 1  
    14   12   14 2  
    15   12   13 1  
    16   18   19 ar 
    17    8   17 ar 
    18   13    8 ar 
    19    1    3 ar 
    20    1    2 ar 
    21    1   20 1  
    22    3   21 1  
    23    4   22 1  
    24    5   23 1  
    25    6   24 1  
    26    8   25 1  
    27   10   26 1  
    28   16   27 1  
    29   17   28 1  
    30   18   29 1  
    31   19   30 1  
# Name:          frag5-677-62/138278 -- energy: -2.200314
# Creation time: Sat Jun  5 12:51:55 2010


@<TRIPOS>MOLECULE
frag5-677-62/138278 -- energy: -2.200314
   30    31     1     1     1
SMALL
USER_CHARGES


@<TRIPOS>ATOM
      1 C9         -1.4670    1.0117    0.9765 C.ar       1 <1>        0.000
      2 C12        -1.0879    0.2929    2.1162 C.ar       1 <1>        0.000
      3 C13        -1.0863    0.7590   -0.3455 C.ar       1 <1>        0.000
      4 C15        -0.3395   -0.8163    1.7722 C.ar       1 <1>        0.000
      5 O1         -1.4415    0.5970    3.3593 O.3        1 <1>        0.000
      6 C16        -0.2498   -0.2965   -0.5857 C.ar       1 <1>        0.000
      7 C17         0.0383   -1.1183    0.4715 C.ar       1 <1>        0.000
      8 C26         4.5341   -1.7902   -2.6087 C.ar       1 <1>        0.000
      9 C20         0.8493   -2.2862    0.2721 C.2        1 <1>        0.000
     10 N3          1.9892   -2.0979   -0.4218 N.am       1 <1>        0.000
     11 O4          0.5477   -3.3405    0.7615 O.2        1 <1>        0.000
     12 S1          3.2552   -3.0335   -0.5711 S.o2       1 <1>        0.000
     13 C25         3.6262   -2.7583   -2.2032 C.ar       1 <1>        0.000
     14 O5          4.2081   -2.4165    0.2922 O.2        1 <1>        0.000
     15 O6          2.8326   -4.4099   -0.4533 O.2        1 <1>        0.000
     16 C27         2.8888   -3.2525   -3.2871 C.ar       1 <1>        0.000
     17 C28         5.0267   -1.6791   -3.9014 C.ar       1 <1>        0.000
     18 C30         3.2850   -3.1457   -4.6193 C.ar       1 <1>        0.000
     19 C31         4.3821   -2.3605   -4.9136 C.ar       1 <1>        0.000
     20 H          -2.1313    1.8609    1.1367 H.spc      1 <1>        0.000
     21 H          -1.4461    1.3856   -1.1616 H.spc      1 <1>        0.000
     22 H          -0.0280   -1.4929    2.5680 H.spc      1 <1>        0.000
     23 H          -1.9555    1.4078    3.3553 H.spc      1 <1>        0.000
     24 H           0.1694   -0.4758   -1.5758 H.spc      1 <1>        0.000
     25 H           4.8819   -1.0725   -1.8657 H.spc      1 <1>        0.000
     26 H           2.0437   -1.2149   -0.9294 H.spc      1 <1>        0.000
     27 H           1.9440   -3.7530   -3.0749 H.spc      1 <1>        0.000
     28 H           5.9036   -1.0670   -4.1126 H.spc      1 <1>        0.000
     29 H           2.7432   -3.6681   -5.4077 H.spc      1 <1>        0.000
     30 H           4.7374   -2.2793   -5.9409 H.spc      1 <1>        0.000
@<TRIPOS>BOND
     1    2    5 1  
     2    2    4 ar 
     3    3    6 ar 
     4   17   19 ar 
     5    4    7 ar 
     6    6    7 ar 
     7    9   11 2  
     8   10   12 1  
     9   16   18 ar 
    10   12   15 2  
    11    9   10 am 
    12   13   16 ar 
    13    7    9 1  
    14   12   14 2  
    15   12   13 1  
    16   18   19 ar 
    17    8   17 ar 
    18   13    8 ar 
    19    1    3 ar 
    20    1    2 ar 
    21    1   20 1  
    22    3   21 1  
    23    4   22 1  
    24    5   23 1  
    25    6   24 1  
    26    8   25 1  
    27   10   26 1  
    28   16   27 1  
    29   17   28 1  
    30   18   29 1  
    31   19   30 1  
# Name:          frag5-677-62/138278 -- energy: -2.033485
# Creation time: Sat Jun  5 12:51:55 2010


@<TRIPOS>MOLECULE
frag5-677-62/138278 -- energy: -2.033485
   30    31     1     1     1
SMALL
USER_CHARGES


@<TRIPOS>ATOM
      1 C9         -0.6997    1.1474    1.7613 C.ar       1 <1>        0.000
      2 C12        -1.6648    0.2447    1.3131 C.ar       1 <1>        0.000
      3 C13         0.6890    0.9732    1.7489 C.ar       1 <1>        0.000
      4 C15        -1.0739   -0.8454    0.7058 C.ar       1 <1>        0.000
      5 O1         -2.9769    0.4179    1.4051 O.3        1 <1>        0.000
      6 C16         1.1868   -0.1880    1.2189 C.ar       1 <1>        0.000
      7 C17         0.2772   -1.1140    0.7614 C.ar       1 <1>        0.000
      8 C26         4.5797   -1.8602   -2.2064 C.ar       1 <1>        0.000
      9 C20         0.7003   -2.3662    0.1845 C.2        1 <1>        0.000
     10 N3          1.8859   -2.3340   -0.4543 N.am       1 <1>        0.000
     11 O4          0.0598   -3.3701    0.3159 O.2        1 <1>        0.000
     12 S1          2.8123   -3.5158   -0.9318 S.o2       1 <1>        0.000
     13 C25         3.5415   -2.7875   -2.2847 C.ar       1 <1>        0.000
     14 O5          3.7458   -3.6479    0.1378 O.2        1 <1>        0.000
     15 O6          1.9640   -4.5802   -1.4118 O.2        1 <1>        0.000
     16 C27         2.9912   -2.8238   -3.5653 C.ar       1 <1>        0.000
     17 C28         5.3126   -1.4239   -3.3058 C.ar       1 <1>        0.000
     18 C30         3.6380   -2.3797   -4.7123 C.ar       1 <1>        0.000
     19 C31         4.8226   -1.6874   -4.5693 C.ar       1 <1>        0.000
     20 H          -1.0673    2.0908    2.1650 H.spc      1 <1>        0.000
     21 H           1.3544    1.7383    2.1488 H.spc      1 <1>        0.000
     22 H          -1.7121   -1.5329    0.1507 H.spc      1 <1>        0.000
     23 H          -3.1584    1.2410    1.8646 H.spc      1 <1>        0.000
     24 H           2.2598   -0.3710    1.1619 H.spc      1 <1>        0.000
     25 H           4.8319   -1.4534   -1.2271 H.spc      1 <1>        0.000
     26 H           2.2387   -1.3995   -0.6610 H.spc      1 <1>        0.000
     27 H           1.9849   -3.2282   -3.6742 H.spc      1 <1>        0.000
     28 H           6.2516   -0.8867   -3.1726 H.spc      1 <1>        0.000
     29 H           3.2199   -2.5735   -5.7001 H.spc      1 <1>        0.000
     30 H           5.3692   -1.3500   -5.4499 H.spc      1 <1>        0.000
@<TRIPOS>BOND
     1    2    5 1  
     2    2    4 ar 
     3    3    6 ar 
     4   17   19 ar 
     5    4    7 ar 
     6    6    7 ar 
     7    9   11 2  
     8   10   12 1  
     9   16   18 ar 
    10   12   15 2  
    11    9   10 am 
    12   13   16 ar 
    13    7    9 1  
    14   12   14 2  
    15   12   13 1  
    16   18   19 ar 
    17    8   17 ar 
    18   13    8 ar 
    19    1    3 ar 
    20    1    2 ar 
    21    1   20 1  
    22    3   21 1  
    23    4   22 1  
    24    5   23 1  
    25    6   24 1  
    26    8   25 1  
    27   10   26 1  
    28   16   27 1  
    29   17   28 1  
    30   18   29 1  
    31   19   30 1  
# Name:          frag5-677-62/138278 -- energy: -2.854875
# Creation time: Sat Jun  5 12:51:55 2010


@<TRIPOS>MOLECULE
frag5-677-62/138278 -- energy: -2.854875
   30    31     1     1     1
SMALL
USER_CHARGES


@<TRIPOS>ATOM
      1 C9         -1.4676    0.1722    1.9748 C.ar       1 <1>        0.000
      2 C12        -0.9638    0.7594    0.8053 C.ar       1 <1>        0.000
      3 C13        -1.2889   -1.1510    2.4020 C.ar       1 <1>        0.000
      4 C15        -0.1391   -0.1252    0.1406 C.ar       1 <1>        0.000
      5 O1         -1.1915    2.0042    0.4232 O.3        1 <1>        0.000
      6 C16        -0.5403   -1.9870    1.6275 C.ar       1 <1>        0.000
      7 C17        -0.0702   -1.4702    0.4503 C.ar       1 <1>        0.000
      8 C26         3.3125   -1.1856   -2.2883 C.ar       1 <1>        0.000
      9 C20         0.6761   -2.3248   -0.4053 C.2        1 <1>        0.000
     10 N3          1.9680   -2.5259   -0.0444 N.am       1 <1>        0.000
     11 O4          0.1631   -2.8491   -1.3676 O.2        1 <1>        0.000
     12 S1          3.0319   -3.4965   -0.6447 S.o2       1 <1>        0.000
     13 C25         3.6268   -2.5263   -1.9249 C.ar       1 <1>        0.000
     14 O5          4.0345   -3.6159    0.3958 O.2        1 <1>        0.000
     15 O6          2.3666   -4.6337   -1.1992 O.2        1 <1>        0.000
     16 C27         4.4924   -3.0937   -2.8288 C.ar       1 <1>        0.000
     17 C28         3.9056   -0.4744   -3.3417 C.ar       1 <1>        0.000
     18 C30         5.0789   -2.4714   -3.9105 C.ar       1 <1>        0.000
     19 C31         4.7963   -1.1460   -4.1534 C.ar       1 <1>        0.000
     20 H          -2.0635    0.8150    2.6227 H.spc      1 <1>        0.000
     21 H          -1.7376   -1.5030    3.3309 H.spc      1 <1>        0.000
     22 H           0.4873    0.2548   -0.6665 H.spc      1 <1>        0.000
     23 H          -1.7961    2.4219    1.0410 H.spc      1 <1>        0.000
     24 H          -0.3275   -3.0124    1.9297 H.spc      1 <1>        0.000
     25 H           2.5511   -0.6717   -1.7016 H.spc      1 <1>        0.000
     26 H           2.2930   -1.9568    0.7372 H.spc      1 <1>        0.000
     27 H           4.7410   -4.1438   -2.6749 H.spc      1 <1>        0.000
     28 H           3.6702    0.5759   -3.5136 H.spc      1 <1>        0.000
     29 H           5.7565   -3.0209   -4.5639 H.spc      1 <1>        0.000
     30 H           5.2750   -0.6287   -4.9848 H.spc      1 <1>        0.000
@<TRIPOS>BOND
     1    2    5 1  
     2    2    4 ar 
     3    3    6 ar 
     4   17   19 ar 
     5    4    7 ar 
     6    6    7 ar 
     7    9   11 2  
     8   10   12 1  
     9   16   18 ar 
    10   12   15 2  
    11    9   10 am 
    12   13   16 ar 
    13    7    9 1  
    14   12   14 2  
    15   12   13 1  
    16   18   19 ar 
    17    8   17 ar 
    18   13    8 ar 
    19    1    3 ar 
    20    1    2 ar 
    21    1   20 1  
    22    3   21 1  
    23    4   22 1  
    24    5   23 1  
    25    6   24 1  
    26    8   25 1  
    27   10   26 1  
    28   16   27 1  
    29   17   28 1  
    30   18   29 1  
    31   19   30 1  
# Name:          frag5-677-62/138278 -- energy: -3.356069
# Creation time: Sat Jun  5 12:51:55 2010


@<TRIPOS>MOLECULE
frag5-677-62/138278 -- energy: -3.356069
   30    31     1     1     1
SMALL
USER_CHARGES


@<TRIPOS>ATOM
      1 C9         -2.1502   -0.6847    1.5294 C.ar       1 <1>        0.000
      2 C12        -1.2250    0.3496    1.3394 C.ar       1 <1>        0.000
      3 C13        -1.9252   -2.0501    1.3313 C.ar       1 <1>        0.000
      4 C15         0.0255   -0.1705    0.9944 C.ar       1 <1>        0.000
      5 O1         -1.4882    1.6350    1.5250 O.3        1 <1>        0.000
      6 C16        -0.6821   -2.4577    0.9126 C.ar       1 <1>        0.000
      7 C17         0.3392   -1.5363    0.8274 C.ar       1 <1>        0.000
      8 C26         4.3438   -3.0533   -1.6329 C.ar       1 <1>        0.000
      9 C20         1.7172   -1.9928    0.6066 C.2        1 <1>        0.000
     10 N3          2.5092   -1.2258   -0.1930 N.am       1 <1>        0.000
     11 O4          2.1110   -3.0893    0.9656 O.2        1 <1>        0.000
     12 S1          2.4124   -0.9496   -1.7474 S.o2       1 <1>        0.000
     13 C25         3.4645   -2.1652   -2.3364 C.ar       1 <1>        0.000
     14 O5          1.0576   -1.2640   -2.1549 O.2        1 <1>        0.000
     15 O6          3.0309    0.3307   -1.9814 O.2        1 <1>        0.000
     16 C27         3.5429   -2.3894   -3.6974 C.ar       1 <1>        0.000
     17 C28         5.1680   -4.0248   -2.2264 C.ar       1 <1>        0.000
     18 C30         4.3707   -3.2829   -4.3487 C.ar       1 <1>        0.000
     19 C31         5.1691   -4.1200   -3.6022 C.ar       1 <1>        0.000
     20 H          -3.1460   -0.3958    1.8656 H.spc      1 <1>        0.000
     21 H          -2.7195   -2.7760    1.5054 H.spc      1 <1>        0.000
     22 H           0.8332    0.5449    0.8400 H.spc      1 <1>        0.000
     23 H          -2.4145    1.7410    1.7537 H.spc      1 <1>        0.000
     24 H          -0.5050   -3.5007    0.6501 H.spc      1 <1>        0.000
     25 H           4.3756   -2.9677   -0.5467 H.spc      1 <1>        0.000
     26 H           3.2815   -0.7589    0.2824 H.spc      1 <1>        0.000
     27 H           2.8788   -1.7962   -4.3260 H.spc      1 <1>        0.000
     28 H           5.7877   -4.6832   -1.6176 H.spc      1 <1>        0.000
     29 H           4.3915   -3.3246   -5.4377 H.spc      1 <1>        0.000
     30 H           5.8011   -4.8569   -4.0978 H.spc      1 <1>        0.000
@<TRIPOS>BOND
     1    2    5 1  
     2    2    4 ar 
     3    3    6 ar 
     4   17   19 ar 
     5    4    7 ar 
     6    6    7 ar 
     7    9   11 2  
     8   10   12 1  
     9   16   18 ar 
    10   12   15 2  
    11    9   10 am 
    12   13   16 ar 
    13    7    9 1  
    14   12   14 2  
    15   12   13 1  
    16   18   19 ar 
    17    8   17 ar 
    18   13    8 ar 
    19    1    3 ar 
    20    1    2 ar 
    21    1   20 1  
    22    3   21 1  
    23    4   22 1  
    24    5   23 1  
    25    6   24 1  
    26    8   25 1  
    27   10   26 1  
    28   16   27 1  
    29   17   28 1  
    30   18   29 1  
    31   19   30 1  
# Name:          frag5-677-62/138278 -- energy: -1.502144
# Creation time: Sat Jun  5 12:51:55 2010


@<TRIPOS>MOLECULE
frag5-677-62/138278 -- energy: -1.502144
   30    31     1     1     1
SMALL
USER_CHARGES


@<TRIPOS>ATOM
      1 C9         -1.6536    0.3387    1.5828 C.ar       1 <1>        0.000
      2 C12        -1.0637    0.4965    0.3334 C.ar       1 <1>        0.000
      3 C13        -1.3761   -0.6511    2.5325 C.ar       1 <1>        0.000
      4 C15        -0.0452   -0.4287    0.1562 C.ar       1 <1>        0.000
      5 O1         -1.3991    1.4383   -0.5535 O.3        1 <1>        0.000
      6 C16        -0.4255   -1.5846    2.2302 C.ar       1 <1>        0.000
      7 C17         0.2704   -1.4357    1.0806 C.ar       1 <1>        0.000
      8 C26         3.2019   -2.5129   -3.6696 C.ar       1 <1>        0.000
      9 C20         1.3182   -2.4213    0.8326 C.2        1 <1>        0.000
     10 N3          1.9860   -2.3198   -0.3127 N.am       1 <1>        0.000
     11 O4          1.5030   -3.3322    1.5969 O.2        1 <1>        0.000
     12 S1          2.5285   -3.4700   -1.2553 S.o2       1 <1>        0.000
     13 C25         3.4800   -2.5354   -2.3225 C.ar       1 <1>        0.000
     14 O5          3.3881   -4.2883   -0.4637 O.2        1 <1>        0.000
     15 O6          1.3866   -3.9692   -1.9554 O.2        1 <1>        0.000
     16 C27         4.4383   -1.5816   -1.9654 C.ar       1 <1>        0.000
     17 C28         3.9639   -1.8731   -4.6326 C.ar       1 <1>        0.000
     18 C30         5.2757   -0.9306   -2.8778 C.ar       1 <1>        0.000
     19 C31         5.0138   -1.0800   -4.2257 C.ar       1 <1>        0.000
     20 H          -2.4178    1.0676    1.8527 H.spc      1 <1>        0.000
     21 H          -1.9034   -0.6765    3.4862 H.spc      1 <1>        0.000
     22 H           0.5462   -0.3696   -0.7575 H.spc      1 <1>        0.000
     23 H          -2.1304    1.9556   -0.2082 H.spc      1 <1>        0.000
     24 H          -0.2336   -2.4254    2.8968 H.spc      1 <1>        0.000
     25 H           2.3099   -3.0413   -4.0060 H.spc      1 <1>        0.000
     26 H           2.1750   -1.3683   -0.6278 H.spc      1 <1>        0.000
     27 H           4.5392   -1.3295   -0.9098 H.spc      1 <1>        0.000
     28 H           3.7373   -1.9947   -5.6918 H.spc      1 <1>        0.000
     29 H           6.1121   -0.3220   -2.5342 H.spc      1 <1>        0.000
     30 H           5.6350   -0.5727   -4.9638 H.spc      1 <1>        0.000
@<TRIPOS>BOND
     1    2    5 1  
     2    2    4 ar 
     3    3    6 ar 
     4   17   19 ar 
     5    4    7 ar 
     6    6    7 ar 
     7    9   11 2  
     8   10   12 1  
     9   16   18 ar 
    10   12   15 2  
    11    9   10 am 
    12   13   16 ar 
    13    7    9 1  
    14   12   14 2  
    15   12   13 1  
    16   18   19 ar 
    17    8   17 ar 
    18   13    8 ar 
    19    1    3 ar 
    20    1    2 ar 
    21    1   20 1  
    22    3   21 1  
    23    4   22 1  
    24    5   23 1  
    25    6   24 1  
    26    8   25 1  
    27   10   26 1  
    28   16   27 1  
    29   17   28 1  
    30   18   29 1  
    31   19   30 1  
# Name:          frag5-677-62/138278 -- energy: -2.801514
# Creation time: Sat Jun  5 12:51:55 2010


@<TRIPOS>MOLECULE
frag5-677-62/138278 -- energy: -2.801514
   30    31     1     1     1
SMALL
USER_CHARGES


@<TRIPOS>ATOM
      1 C9         -1.9248   -0.0383    1.8370 C.ar       1 <1>        0.000
      2 C12        -0.9496   -0.8558    2.4269 C.ar       1 <1>        0.000
      3 C13        -1.9373    0.4230    0.5208 C.ar       1 <1>        0.000
      4 C15        -0.0139   -1.2678    1.4805 C.ar       1 <1>        0.000
      5 O1         -0.9609   -1.2208    3.6992 O.3        1 <1>        0.000
      6 C16        -0.9237    0.0511   -0.3118 C.ar       1 <1>        0.000
      7 C17         0.0847   -0.7369    0.1788 C.ar       1 <1>        0.000
      8 C26         4.6961   -1.8339   -2.0421 C.ar       1 <1>        0.000
      9 C20         1.1686   -1.0183   -0.7321 C.2        1 <1>        0.000
     10 N3          2.1617   -1.7911   -0.2384 N.am       1 <1>        0.000
     11 O4          1.1283   -0.7463   -1.9179 O.2        1 <1>        0.000
     12 S1          2.6897   -3.1914   -0.6949 S.o2       1 <1>        0.000
     13 C25         3.6193   -2.7503   -2.0431 C.ar       1 <1>        0.000
     14 O5          3.5285   -3.6023    0.4003 O.2        1 <1>        0.000
     15 O6          1.5239   -3.9321   -1.1301 O.2        1 <1>        0.000
     16 C27         3.2178   -3.0421   -3.3472 C.ar       1 <1>        0.000
     17 C28         5.5390   -1.6226   -3.1324 C.ar       1 <1>        0.000
     18 C30         3.9820   -2.8342   -4.4816 C.ar       1 <1>        0.000
     19 C31         5.1618   -2.1307   -4.3610 C.ar       1 <1>        0.000
     20 H          -2.7569    0.2674    2.4712 H.spc      1 <1>        0.000
     21 H          -2.7410    1.0677    0.1651 H.spc      1 <1>        0.000
     22 H           0.6876   -2.0519    1.7654 H.spc      1 <1>        0.000
     23 H          -1.7029   -0.8044    4.1438 H.spc      1 <1>        0.000
     24 H          -0.9155    0.3757   -1.3523 H.spc      1 <1>        0.000
     25 H           4.8781   -1.2582   -1.1346 H.spc      1 <1>        0.000
     26 H           2.6481   -1.3953    0.5661 H.spc      1 <1>        0.000
     27 H           2.2234   -3.4675   -3.4829 H.spc      1 <1>        0.000
     28 H           6.4720   -1.0706   -3.0186 H.spc      1 <1>        0.000
     29 H           3.6586   -3.2180   -5.4492 H.spc      1 <1>        0.000
     30 H           5.7962   -1.9755   -5.2337 H.spc      1 <1>        0.000
@<TRIPOS>BOND
     1    2    5 1  
     2    2    4 ar 
     3    3    6 ar 
     4   17   19 ar 
     5    4    7 ar 
     6    6    7 ar 
     7    9   11 2  
     8   10   12 1  
     9   16   18 ar 
    10   12   15 2  
    11    9   10 am 
    12   13   16 ar 
    13    7    9 1  
    14   12   14 2  
    15   12   13 1  
    16   18   19 ar 
    17    8   17 ar 
    18   13    8 ar 
    19    1    3 ar 
    20    1    2 ar 
    21    1   20 1  
    22    3   21 1  
    23    4   22 1  
    24    5   23 1  
    25    6   24 1  
    26    8   25 1  
    27   10   26 1  
    28   16   27 1  
    29   17   28 1  
    30   18   29 1  
    31   19   30 1  
# Name:          frag5-677-62/138278 -- energy: -1.727873
# Creation time: Sat Jun  5 12:51:55 2010


@<TRIPOS>MOLECULE
frag5-677-62/138278 -- energy: -1.727873
   30    31     1     1     1
SMALL
USER_CHARGES


@<TRIPOS>ATOM
      1 C9         -1.7010    0.4173    0.8425 C.ar       1 <1>        0.000
      2 C12        -0.3790    0.7456    1.1339 C.ar       1 <1>        0.000
      3 C13        -2.1855   -0.7832    0.2945 C.ar       1 <1>        0.000
      4 C15         0.4302   -0.3431    0.8780 C.ar       1 <1>        0.000
      5 O1          0.0329    1.8978    1.6360 O.3        1 <1>        0.000
      6 C16        -1.2967   -1.7582   -0.0278 C.ar       1 <1>        0.000
      7 C17         0.0081   -1.5658    0.3258 C.ar       1 <1>        0.000
      8 C26         4.2251   -3.0794   -2.7691 C.ar       1 <1>        0.000
      9 C20         0.9059   -2.6481    0.0458 C.2        1 <1>        0.000
     10 N3          2.2101   -2.4906    0.3908 N.am       1 <1>        0.000
     11 O4          0.5367   -3.6153   -0.6002 O.2        1 <1>        0.000
     12 S1          3.5233   -3.1370   -0.1835 S.o2       1 <1>        0.000
     13 C25         3.5533   -2.4314   -1.7488 C.ar       1 <1>        0.000
     14 O5          4.6066   -2.5762    0.6045 O.2        1 <1>        0.000
     15 O6          3.3035   -4.5522   -0.3005 O.2        1 <1>        0.000
     16 C27         2.8807   -1.2840   -2.2738 C.ar       1 <1>        0.000
     17 C28         4.3675   -2.6627   -4.0792 C.ar       1 <1>        0.000
     18 C30         3.0108   -0.7776   -3.5765 C.ar       1 <1>        0.000
     19 C31         3.7588   -1.4968   -4.4814 C.ar       1 <1>        0.000
     20 H          -2.4468    1.1803    1.0654 H.spc      1 <1>        0.000
     21 H          -3.2534   -0.9286    0.1315 H.spc      1 <1>        0.000
     22 H           1.4874   -0.2469    1.1252 H.spc      1 <1>        0.000
     23 H          -0.7146    2.4942    1.7207 H.spc      1 <1>        0.000
     24 H          -1.6133   -2.6613   -0.5496 H.spc      1 <1>        0.000
     25 H           4.6964   -4.0276   -2.5105 H.spc      1 <1>        0.000
     26 H           2.3651   -1.8372    1.1585 H.spc      1 <1>        0.000
     27 H           2.2057   -0.7545   -1.6014 H.spc      1 <1>        0.000
     28 H           4.9547   -3.2506   -4.7847 H.spc      1 <1>        0.000
     29 H           2.5329    0.1590   -3.8637 H.spc      1 <1>        0.000
     30 H           3.8676   -1.1453   -5.5074 H.spc      1 <1>        0.000
@<TRIPOS>BOND
     1    2    5 1  
     2    2    4 ar 
     3    3    6 ar 
     4   17   19 ar 
     5    4    7 ar 
     6    6    7 ar 
     7    9   11 2  
     8   10   12 1  
     9   16   18 ar 
    10   12   15 2  
    11    9   10 am 
    12   13   16 ar 
    13    7    9 1  
    14   12   14 2  
    15   12   13 1  
    16   18   19 ar 
    17    8   17 ar 
    18   13    8 ar 
    19    1    3 ar 
    20    1    2 ar 
    21    1   20 1  
    22    3   21 1  
    23    4   22 1  
    24    5   23 1  
    25    6   24 1  
    26    8   25 1  
    27   10   26 1  
    28   16   27 1  
    29   17   28 1  
    30   18   29 1  
    31   19   30 1  
# Name:          frag5-677-62/138278 -- energy: -2.262659
# Creation time: Sat Jun  5 12:51:55 2010


@<TRIPOS>MOLECULE
frag5-677-62/138278 -- energy: -2.262659
   30    31     1     1     1
SMALL
USER_CHARGES


@<TRIPOS>ATOM
      1 C9         -1.8533    0.5233    0.6239 C.ar       1 <1>        0.000
      2 C12        -1.0559    0.5850    1.7668 C.ar       1 <1>        0.000
      3 C13        -1.6671   -0.3079   -0.4941 C.ar       1 <1>        0.000
      4 C15        -0.0804   -0.3851    1.7355 C.ar       1 <1>        0.000
      5 O1         -1.2378    1.4245    2.7823 O.3        1 <1>        0.000
      6 C16        -0.5929   -1.1600   -0.4868 C.ar       1 <1>        0.000
      7 C17         0.1470   -1.2085    0.6644 C.ar       1 <1>        0.000
      8 C26         4.8212   -2.5104   -2.5863 C.ar       1 <1>        0.000
      9 C20         1.2847   -2.1041    0.7779 C.2        1 <1>        0.000
     10 N3          2.0679   -2.1756   -0.2943 N.am       1 <1>        0.000
     11 O4          1.4627   -2.7863    1.7682 O.2        1 <1>        0.000
     12 S1          3.0835   -3.3017   -0.6928 S.o2       1 <1>        0.000
     13 C25         3.5054   -2.7502   -2.2729 C.ar       1 <1>        0.000
     14 O5          4.1898   -3.1129    0.1960 O.2        1 <1>        0.000
     15 O6          2.3768   -4.5304   -0.8558 O.2        1 <1>        0.000
     16 C27         2.6339   -2.2657   -3.2660 C.ar       1 <1>        0.000
     17 C28         5.2875   -2.2454   -3.8558 C.ar       1 <1>        0.000
     18 C30         3.0342   -1.9043   -4.5558 C.ar       1 <1>        0.000
     19 C31         4.3843   -1.9254   -4.8437 C.ar       1 <1>        0.000
     20 H          -2.7137    1.1919    0.5947 H.spc      1 <1>        0.000
     21 H          -2.3544   -0.2762   -1.3395 H.spc      1 <1>        0.000
     22 H           0.5498   -0.5058    2.6166 H.spc      1 <1>        0.000
     23 H          -1.9722    2.0102    2.5842 H.spc      1 <1>        0.000
     24 H          -0.3403   -1.7689   -1.3548 H.spc      1 <1>        0.000
     25 H           5.5475   -2.5312   -1.7738 H.spc      1 <1>        0.000
     26 H           1.9987   -1.3929   -0.9447 H.spc      1 <1>        0.000
     27 H           1.5784   -2.1657   -3.0132 H.spc      1 <1>        0.000
     28 H           6.3546   -2.2886   -4.0740 H.spc      1 <1>        0.000
     29 H           2.3031   -1.6149   -5.3107 H.spc      1 <1>        0.000
     30 H           4.7334   -1.6896   -5.8490 H.spc      1 <1>        0.000
@<TRIPOS>BOND
     1    2    5 1  
     2    2    4 ar 
     3    3    6 ar 
     4   17   19 ar 
     5    4    7 ar 
     6    6    7 ar 
     7    9   11 2  
     8   10   12 1  
     9   16   18 ar 
    10   12   15 2  
    11    9   10 am 
    12   13   16 ar 
    13    7    9 1  
    14   12   14 2  
    15   12   13 1  
    16   18   19 ar 
    17    8   17 ar 
    18   13    8 ar 
    19    1    3 ar 
    20    1    2 ar 
    21    1   20 1  
    22    3   21 1  
    23    4   22 1  
    24    5   23 1  
    25    6   24 1  
    26    8   25 1  
    27   10   26 1  
    28   16   27 1  
    29   17   28 1  
    30   18   29 1  
    31   19   30 1  
# Name:          frag5-677-62/138278 -- energy: -2.654409
# Creation time: Sat Jun  5 12:51:55 2010


@<TRIPOS>MOLECULE
frag5-677-62/138278 -- energy: -2.654409
   30    31     1     1     1
SMALL
USER_CHARGES


@<TRIPOS>ATOM
      1 C9         -1.7253   -0.0075    2.1506 C.ar       1 <1>        0.000
      2 C12        -2.0184   -0.6919    0.9675 C.ar       1 <1>        0.000
      3 C13        -0.4568    0.2031    2.7010 C.ar       1 <1>        0.000
      4 C15        -0.8461   -1.0779    0.3206 C.ar       1 <1>        0.000
      5 O1         -3.2442   -0.8867    0.5038 O.3        1 <1>        0.000
      6 C16         0.6294   -0.3030    2.0541 C.ar       1 <1>        0.000
      7 C17         0.4474   -0.9071    0.8435 C.ar       1 <1>        0.000
      8 C26         4.6293   -2.4678   -1.7277 C.ar       1 <1>        0.000
      9 C20         1.6435   -1.3328    0.1571 C.2        1 <1>        0.000
     10 N3          1.4919   -1.8154   -1.0942 N.am       1 <1>        0.000
     11 O4          2.7261   -1.4037    0.7235 O.2        1 <1>        0.000
     12 S1          1.9738   -3.1895   -1.6935 S.o2       1 <1>        0.000
     13 C25         3.4244   -2.6679   -2.4137 C.ar       1 <1>        0.000
     14 O5          2.2425   -4.0479   -0.5631 O.2        1 <1>        0.000
     15 O6          1.0197   -3.5210   -2.7182 O.2        1 <1>        0.000
     16 C27         3.4863   -2.1017   -3.6975 C.ar       1 <1>        0.000
     17 C28         5.8500   -2.2320   -2.3467 C.ar       1 <1>        0.000
     18 C30         4.6627   -1.8013   -4.3723 C.ar       1 <1>        0.000
     19 C31         5.8552   -1.8888   -3.6838 C.ar       1 <1>        0.000
     20 H          -2.5717    0.4041    2.7004 H.spc      1 <1>        0.000
     21 H          -0.3399    0.7615    3.6298 H.spc      1 <1>        0.000
     22 H          -0.9387   -1.5451   -0.6598 H.spc      1 <1>        0.000
     23 H          -3.8815   -0.5334    1.1288 H.spc      1 <1>        0.000
     24 H           1.6238   -0.2273    2.4939 H.spc      1 <1>        0.000
     25 H           4.6074   -2.4992   -0.6384 H.spc      1 <1>        0.000
     26 H           0.9955   -1.2043   -1.7427 H.spc      1 <1>        0.000
     27 H           2.5443   -1.8824   -4.2001 H.spc      1 <1>        0.000
     28 H           6.7829   -2.3160   -1.7893 H.spc      1 <1>        0.000
     29 H           4.6442   -1.5036   -5.4207 H.spc      1 <1>        0.000
     30 H           6.7975   -1.6878   -4.1935 H.spc      1 <1>        0.000
@<TRIPOS>BOND
     1    2    5 1  
     2    2    4 ar 
     3    3    6 ar 
     4   17   19 ar 
     5    4    7 ar 
     6    6    7 ar 
     7    9   11 2  
     8   10   12 1  
     9   16   18 ar 
    10   12   15 2  
    11    9   10 am 
    12   13   16 ar 
    13    7    9 1  
    14   12   14 2  
    15   12   13 1  
    16   18   19 ar 
    17    8   17 ar 
    18   13    8 ar 
    19    1    3 ar 
    20    1    2 ar 
    21    1   20 1  
    22    3   21 1  
    23    4   22 1  
    24    5   23 1  
    25    6   24 1  
    26    8   25 1  
    27   10   26 1  
    28   16   27 1  
    29   17   28 1  
    30   18   29 1  
    31   19   30 1  
# Name:          frag5-677-62/138278 -- energy: -3.380287
# Creation time: Sat Jun  5 12:51:55 2010


@<TRIPOS>MOLECULE
frag5-677-62/138278 -- energy: -3.380287
   30    31     1     1     1
SMALL
USER_CHARGES


@<TRIPOS>ATOM
      1 C9         -1.4430   -0.5906    2.3938 C.ar       1 <1>        0.000
      2 C12        -0.8750    0.4934    1.7150 C.ar       1 <1>        0.000
      3 C13        -1.3368   -1.9362    2.0319 C.ar       1 <1>        0.000
      4 C15        -0.0784    0.0619    0.6542 C.ar       1 <1>        0.000
      5 O1         -1.0174    1.7545    2.0866 O.3        1 <1>        0.000
      6 C16        -0.6049   -2.2593    0.9088 C.ar       1 <1>        0.000
      7 C17        -0.0391   -1.2395    0.1499 C.ar       1 <1>        0.000
      8 C26         3.7675   -3.2285   -3.2825 C.ar       1 <1>        0.000
      9 C20         0.5977   -1.4839   -1.1487 C.2        1 <1>        0.000
     10 N3          1.1347   -2.7149   -1.3599 N.am       1 <1>        0.000
     11 O4          0.8165   -0.6035   -1.9578 O.2        1 <1>        0.000
     12 S1          2.4922   -3.3181   -0.8386 S.o2       1 <1>        0.000
     13 C25         3.5808   -2.6868   -1.9902 C.ar       1 <1>        0.000
     14 O5          2.7079   -2.6892    0.4441 O.2        1 <1>        0.000
     15 O6          2.3741   -4.7405   -1.0480 O.2        1 <1>        0.000
     16 C27         4.2435   -1.4561   -1.8638 C.ar       1 <1>        0.000
     17 C28         4.7327   -2.8060   -4.1939 C.ar       1 <1>        0.000
     18 C30         5.2574   -1.0104   -2.7037 C.ar       1 <1>        0.000
     19 C31         5.4811   -1.6870   -3.8864 C.ar       1 <1>        0.000
     20 H          -2.0226   -0.3641    3.2887 H.spc      1 <1>        0.000
     21 H          -1.8214   -2.7126    2.6239 H.spc      1 <1>        0.000
     22 H           0.5665    0.8017    0.1799 H.spc      1 <1>        0.000
     23 H          -1.6135    1.8002    2.8377 H.spc      1 <1>        0.000
     24 H          -0.4711   -3.3015    0.6189 H.spc      1 <1>        0.000
     25 H           3.1058   -4.0385   -3.5892 H.spc      1 <1>        0.000
     26 H           0.5760   -3.3394   -1.9415 H.spc      1 <1>        0.000
     27 H           3.9407   -0.8014   -1.0466 H.spc      1 <1>        0.000
     28 H           4.8933   -3.3457   -5.1272 H.spc      1 <1>        0.000
     29 H           5.8631   -0.1451   -2.4344 H.spc      1 <1>        0.000
     30 H           6.2484   -1.3378   -4.5773 H.spc      1 <1>        0.000
@<TRIPOS>BOND
     1    2    5 1  
     2    2    4 ar 
     3    3    6 ar 
     4   17   19 ar 
     5    4    7 ar 
     6    6    7 ar 
     7    9   11 2  
     8   10   12 1  
     9   16   18 ar 
    10   12   15 2  
    11    9   10 am 
    12   13   16 ar 
    13    7    9 1  
    14   12   14 2  
    15   12   13 1  
    16   18   19 ar 
    17    8   17 ar 
    18   13    8 ar 
    19    1    3 ar 
    20    1    2 ar 
    21    1   20 1  
    22    3   21 1  
    23    4   22 1  
    24    5   23 1  
    25    6   24 1  
    26    8   25 1  
    27   10   26 1  
    28   16   27 1  
    29   17   28 1  
    30   18   29 1  
    31   19   30 1  
# Name:          frag5-677-62/138278 -- energy: -3.192739
# Creation time: Sat Jun  5 12:51:55 2010


@<TRIPOS>MOLECULE
frag5-677-62/138278 -- energy: -3.192739
   30    31     1     1     1
SMALL
USER_CHARGES


@<TRIPOS>ATOM
      1 C9         -0.8948    0.2053    2.1028 C.ar       1 <1>        0.000
      2 C12        -0.9162    0.4781    0.7330 C.ar       1 <1>        0.000
      3 C13        -0.4503   -0.9719    2.7111 C.ar       1 <1>        0.000
      4 C15        -0.3303   -0.5814    0.0158 C.ar       1 <1>        0.000
      5 O1         -1.3608    1.6134    0.2068 O.3        1 <1>        0.000
      6 C16         0.0137   -1.9969    1.9026 C.ar       1 <1>        0.000
      7 C17        -0.0361   -1.8749    0.5184 C.ar       1 <1>        0.000
      8 C26         4.8978   -2.2192   -2.2377 C.ar       1 <1>        0.000
      9 C20         0.2984   -3.0131   -0.3873 C.2        1 <1>        0.000
     10 N3          1.5747   -3.1642   -0.8415 N.am       1 <1>        0.000
     11 O4         -0.5365   -3.8233   -0.7318 O.2        1 <1>        0.000
     12 S1          2.9620   -2.4812   -0.4756 S.o2       1 <1>        0.000
     13 C25         3.5432   -2.1813   -2.0277 C.ar       1 <1>        0.000
     14 O5          2.6999   -1.2165    0.1536 O.2        1 <1>        0.000
     15 O6          3.7428   -3.5181    0.1713 O.2        1 <1>        0.000
     16 C27         2.8232   -2.0273   -3.2512 C.ar       1 <1>        0.000
     17 C28         5.5474   -1.9561   -3.4239 C.ar       1 <1>        0.000
     18 C30         3.4172   -1.7137   -4.4807 C.ar       1 <1>        0.000
     19 C31         4.7957   -1.6985   -4.5471 C.ar       1 <1>        0.000
     20 H          -1.2619    0.9900    2.7643 H.spc      1 <1>        0.000
     21 H          -0.4682   -1.0810    3.7955 H.spc      1 <1>        0.000
     22 H          -0.0781   -0.3896   -1.0271 H.spc      1 <1>        0.000
     23 H          -1.7143    2.1710    0.9037 H.spc      1 <1>        0.000
     24 H           0.4194   -2.9026    2.3534 H.spc      1 <1>        0.000
     25 H           5.5211   -2.4831   -1.3833 H.spc      1 <1>        0.000
     26 H           1.6571   -3.8681   -1.5751 H.spc      1 <1>        0.000
     27 H           1.7419   -2.1624   -3.2270 H.spc      1 <1>        0.000
     28 H           6.6363   -1.9521   -3.4716 H.spc      1 <1>        0.000
     29 H           2.8097   -1.4888   -5.3573 H.spc      1 <1>        0.000
     30 H           5.2910   -1.4815   -5.4935 H.spc      1 <1>        0.000
@<TRIPOS>BOND
     1    2    5 1  
     2    2    4 ar 
     3    3    6 ar 
     4   17   19 ar 
     5    4    7 ar 
     6    6    7 ar 
     7    9   11 2  
     8   10   12 1  
     9   16   18 ar 
    10   12   15 2  
    11    9   10 am 
    12   13   16 ar 
    13    7    9 1  
    14   12   14 2  
    15   12   13 1  
    16   18   19 ar 
    17    8   17 ar 
    18   13    8 ar 
    19    1    3 ar 
    20    1    2 ar 
    21    1   20 1  
    22    3   21 1  
    23    4   22 1  
    24    5   23 1  
    25    6   24 1  
    26    8   25 1  
    27   10   26 1  
    28   16   27 1  
    29   17   28 1  
    30   18   29 1  
    31   19   30 1  
# Name:          frag5-677-62/138278 -- energy: -2.448869
# Creation time: Sat Jun  5 12:51:55 2010


@<TRIPOS>MOLECULE
frag5-677-62/138278 -- energy: -2.448869
   30    31     1     1     1
SMALL
USER_CHARGES


@<TRIPOS>ATOM
      1 C9         -0.2177    0.9420    1.6414 C.ar       1 <1>        0.000
      2 C12        -0.7930    0.7023    0.3859 C.ar       1 <1>        0.000
      3 C13         0.6396    0.0906    2.3442 C.ar       1 <1>        0.000
      4 C15        -0.3112   -0.4777   -0.1574 C.ar       1 <1>        0.000
      5 O1         -1.6305    1.5251   -0.2239 O.3        1 <1>        0.000
      6 C16         0.9889   -1.0972    1.7660 C.ar       1 <1>        0.000
      7 C17         0.3983   -1.4311    0.5712 C.ar       1 <1>        0.000
      8 C26         2.9482   -2.7721   -3.2416 C.ar       1 <1>        0.000
      9 C20         0.6510   -2.7168   -0.0407 C.2        1 <1>        0.000
     10 N3          1.8882   -3.2551    0.1626 N.am       1 <1>        0.000
     11 O4         -0.1271   -3.2177   -0.8048 O.2        1 <1>        0.000
     12 S1          2.8536   -3.9965   -0.8218 S.o2       1 <1>        0.000
     13 C25         3.2695   -2.7145   -1.8890 C.ar       1 <1>        0.000
     14 O5          3.9937   -4.3305   -0.0112 O.2        1 <1>        0.000
     15 O6          2.0566   -4.9633   -1.5314 O.2        1 <1>        0.000
     16 C27         3.7467   -1.4227   -1.5465 C.ar       1 <1>        0.000
     17 C28         3.3139   -1.8511   -4.2090 C.ar       1 <1>        0.000
     18 C30         4.1822   -0.4643   -2.4709 C.ar       1 <1>        0.000
     19 C31         3.9405   -0.6903   -3.8121 C.ar       1 <1>        0.000
     20 H          -0.4643    1.8903    2.1190 H.spc      1 <1>        0.000
     21 H           1.0196    0.3669    3.3277 H.spc      1 <1>        0.000
     22 H          -0.4974   -0.6714   -1.2138 H.spc      1 <1>        0.000
     23 H          -1.8186    2.2715    0.3498 H.spc      1 <1>        0.000
     24 H           1.7141   -1.7598    2.2383 H.spc      1 <1>        0.000
     25 H           2.3520   -3.6230   -3.5711 H.spc      1 <1>        0.000
     26 H           2.2430   -3.1584    1.1140 H.spc      1 <1>        0.000
     27 H           3.7765   -1.1574   -0.4897 H.spc      1 <1>        0.000
     28 H           3.1101   -2.0408   -5.2628 H.spc      1 <1>        0.000
     29 H           4.6986    0.4368   -2.1402 H.spc      1 <1>        0.000
     30 H           4.2447    0.0478   -4.5542 H.spc      1 <1>        0.000
@<TRIPOS>BOND
     1    2    5 1  
     2    2    4 ar 
     3    3    6 ar 
     4   17   19 ar 
     5    4    7 ar 
     6    6    7 ar 
     7    9   11 2  
     8   10   12 1  
     9   16   18 ar 
    10   12   15 2  
    11    9   10 am 
    12   13   16 ar 
    13    7    9 1  
    14   12   14 2  
    15   12   13 1  
    16   18   19 ar 
    17    8   17 ar 
    18   13    8 ar 
    19    1    3 ar 
    20    1    2 ar 
    21    1   20 1  
    22    3   21 1  
    23    4   22 1  
    24    5   23 1  
    25    6   24 1  
    26    8   25 1  
    27   10   26 1  
    28   16   27 1  
    29   17   28 1  
    30   18   29 1  
    31   19   30 1  
# Name:          frag5-677-62/138278 -- energy: -2.244218
# Creation time: Sat Jun  5 12:51:55 2010


@<TRIPOS>MOLECULE
frag5-677-62/138278 -- energy: -2.244218
   30    31     1     1     1
SMALL
USER_CHARGES


@<TRIPOS>ATOM
      1 C9         -1.9080    0.2713    0.4872 C.ar       1 <1>        0.000
      2 C12        -0.8118    0.7415    1.2051 C.ar       1 <1>        0.000
      3 C13        -1.9986   -0.9510   -0.1967 C.ar       1 <1>        0.000
      4 C15         0.1830   -0.2203    1.2886 C.ar       1 <1>        0.000
      5 O1         -0.7461    1.9494    1.7708 O.3        1 <1>        0.000
      6 C16        -0.9215   -1.7944   -0.1614 C.ar       1 <1>        0.000
      7 C17         0.1035   -1.4494    0.6602 C.ar       1 <1>        0.000
      8 C26         3.4763   -1.2086   -2.3498 C.ar       1 <1>        0.000
      9 C20         1.2185   -2.3772    0.7922 C.2        1 <1>        0.000
     10 N3          1.7574   -2.8171   -0.3478 N.am       1 <1>        0.000
     11 O4          1.6762   -2.6209    1.8911 O.2        1 <1>        0.000
     12 S1          3.2228   -3.3577   -0.5763 S.o2       1 <1>        0.000
     13 C25         3.5557   -2.5852   -2.0892 C.ar       1 <1>        0.000
     14 O5          4.0675   -2.7532    0.4026 O.2        1 <1>        0.000
     15 O6          3.0830   -4.7630   -0.7862 O.2        1 <1>        0.000
     16 C27         3.6586   -3.3196   -3.2496 C.ar       1 <1>        0.000
     17 C28         3.9144   -0.6219   -3.5436 C.ar       1 <1>        0.000
     18 C30         4.0588   -2.8133   -4.4750 C.ar       1 <1>        0.000
     19 C31         4.2017   -1.4501   -4.6112 C.ar       1 <1>        0.000
     20 H          -2.7848    0.9179    0.4527 H.spc      1 <1>        0.000
     21 H          -2.9031   -1.2214   -0.7416 H.spc      1 <1>        0.000
     22 H           1.0717    0.0034    1.8787 H.spc      1 <1>        0.000
     23 H          -1.5498    2.4370    1.5758 H.spc      1 <1>        0.000
     24 H          -0.8877   -2.7014   -0.7649 H.spc      1 <1>        0.000
     25 H           3.0511   -0.5617   -1.5824 H.spc      1 <1>        0.000
     26 H           1.1506   -2.8020   -1.1675 H.spc      1 <1>        0.000
     27 H           3.4061   -4.3788   -3.1999 H.spc      1 <1>        0.000
     28 H           4.0257    0.4591   -3.6281 H.spc      1 <1>        0.000
     29 H           4.2566   -3.4799   -5.3144 H.spc      1 <1>        0.000
     30 H           4.5399   -1.0268   -5.5570 H.spc      1 <1>        0.000
@<TRIPOS>BOND
     1    2    5 1  
     2    2    4 ar 
     3    3    6 ar 
     4   17   19 ar 
     5    4    7 ar 
     6    6    7 ar 
     7    9   11 2  
     8   10   12 1  
     9   16   18 ar 
    10   12   15 2  
    11    9   10 am 
    12   13   16 ar 
    13    7    9 1  
    14   12   14 2  
    15   12   13 1  
    16   18   19 ar 
    17    8   17 ar 
    18   13    8 ar 
    19    1    3 ar 
    20    1    2 ar 
    21    1   20 1  
    22    3   21 1  
    23    4   22 1  
    24    5   23 1  
    25    6   24 1  
    26    8   25 1  
    27   10   26 1  
    28   16   27 1  
    29   17   28 1  
    30   18   29 1  
    31   19   30 1  
# Name:          frag5-677-62/138278 -- energy: -2.919951
# Creation time: Sat Jun  5 12:51:55 2010


@<TRIPOS>MOLECULE
frag5-677-62/138278 -- energy: -2.919951
   30    31     1     1     1
SMALL
USER_CHARGES


@<TRIPOS>ATOM
      1 C9         -1.5380    0.2963    0.2236 C.ar       1 <1>        0.000
      2 C12        -0.3311    0.8841    0.6264 C.ar       1 <1>        0.000
      3 C13        -1.7549   -1.0475   -0.0814 C.ar       1 <1>        0.000
      4 C15         0.6526   -0.0791    0.7917 C.ar       1 <1>        0.000
      5 O1         -0.1609    2.1723    0.8719 O.3        1 <1>        0.000
      6 C16        -0.6963   -1.9089    0.0085 C.ar       1 <1>        0.000
      7 C17         0.4806   -1.4435    0.5576 C.ar       1 <1>        0.000
      8 C26         4.2688   -2.0097   -1.9403 C.ar       1 <1>        0.000
      9 C20         1.5945   -2.3282    0.7961 C.2        1 <1>        0.000
     10 N3          1.6572   -3.4521    0.0170 N.am       1 <1>        0.000
     11 O4          2.5062   -2.0100    1.5170 O.2        1 <1>        0.000
     12 S1          2.8835   -4.0311   -0.7839 S.o2       1 <1>        0.000
     13 C25         3.1049   -2.7620   -1.9167 C.ar       1 <1>        0.000
     14 O5          3.9595   -4.0925    0.1586 O.2        1 <1>        0.000
     15 O6          2.3838   -5.1838   -1.5014 O.2        1 <1>        0.000
     16 C27         2.1195   -2.1631   -2.7511 C.ar       1 <1>        0.000
     17 C28         4.6233   -1.1026   -2.9284 C.ar       1 <1>        0.000
     18 C30         2.3789   -1.1939   -3.7325 C.ar       1 <1>        0.000
     19 C31         3.6593   -0.6857   -3.8219 C.ar       1 <1>        0.000
     20 H          -2.3987    0.9598    0.1397 H.spc      1 <1>        0.000
     21 H          -2.7408   -1.4013   -0.3830 H.spc      1 <1>        0.000
     22 H           1.6336    0.2548    1.1298 H.spc      1 <1>        0.000
     23 H          -0.9767    2.6429    0.6859 H.spc      1 <1>        0.000
     24 H          -0.7804   -2.9367   -0.3446 H.spc      1 <1>        0.000
     25 H           4.9649   -2.1420   -1.1120 H.spc      1 <1>        0.000
     26 H           0.7919   -3.9874   -0.0545 H.spc      1 <1>        0.000
     27 H           1.0855   -2.4811   -2.6179 H.spc      1 <1>        0.000
     28 H           5.6441   -0.7267   -2.9971 H.spc      1 <1>        0.000
     29 H           1.5919   -0.8522   -4.4048 H.spc      1 <1>        0.000
     30 H           3.9071    0.0416   -4.5950 H.spc      1 <1>        0.000
@<TRIPOS>BOND
     1    2    5 1  
     2    2    4 ar 
     3    3    6 ar 
     4   17   19 ar 
     5    4    7 ar 
     6    6    7 ar 
     7    9   11 2  
     8   10   12 1  
     9   16   18 ar 
    10   12   15 2  
    11    9   10 am 
    12   13   16 ar 
    13    7    9 1  
    14   12   14 2  
    15   12   13 1  
    16   18   19 ar 
    17    8   17 ar 
    18   13    8 ar 
    19    1    3 ar 
    20    1    2 ar 
    21    1   20 1  
    22    3   21 1  
    23    4   22 1  
    24    5   23 1  
    25    6   24 1  
    26    8   25 1  
    27   10   26 1  
    28   16   27 1  
    29   17   28 1  
    30   18   29 1  
    31   19   30 1  
# Name:          frag5-677-62/138278 -- energy: -2.285705
# Creation time: Sat Jun  5 12:51:55 2010


@<TRIPOS>MOLECULE
frag5-677-62/138278 -- energy: -2.285705
   30    31     1     1     1
SMALL
USER_CHARGES


@<TRIPOS>ATOM
      1 C9         -1.4590   -0.2120    2.3332 C.ar       1 <1>        0.000
      2 C12        -1.6383    0.2266    1.0164 C.ar       1 <1>        0.000
      3 C13        -0.4590   -1.0695    2.8088 C.ar       1 <1>        0.000
      4 C15        -0.5882   -0.1992    0.2198 C.ar       1 <1>        0.000
      5 O1         -2.6438    0.9764    0.6003 O.3        1 <1>        0.000
      6 C16         0.4658   -1.5408    1.9274 C.ar       1 <1>        0.000
      7 C17         0.4552   -1.0123    0.6628 C.ar       1 <1>        0.000
      8 C26         4.4209   -2.0945   -1.4752 C.ar       1 <1>        0.000
      9 C20         1.4502   -1.4024   -0.2768 C.2        1 <1>        0.000
     10 N3          1.7247   -2.7423   -0.3173 N.am       1 <1>        0.000
     11 O4          1.9069   -0.6091   -1.0683 O.2        1 <1>        0.000
     12 S1          2.0889   -3.6644   -1.5293 S.o2       1 <1>        0.000
     13 C25         3.4256   -2.8342   -2.1750 C.ar       1 <1>        0.000
     14 O5          2.5117   -4.9162   -0.9424 O.2        1 <1>        0.000
     15 O6          0.9649   -3.5643   -2.4316 O.2        1 <1>        0.000
     16 C27         3.4925   -2.5644   -3.5334 C.ar       1 <1>        0.000
     17 C28         5.5339   -1.4966   -2.0694 C.ar       1 <1>        0.000
     18 C30         4.5512   -1.9711   -4.1919 C.ar       1 <1>        0.000
     19 C31         5.5872   -1.4505   -3.4473 C.ar       1 <1>        0.000
     20 H          -2.1756    0.1535    3.0687 H.spc      1 <1>        0.000
     21 H          -0.4218   -1.3532    3.8606 H.spc      1 <1>        0.000
     22 H          -0.5763    0.1222   -0.8217 H.spc      1 <1>        0.000
     23 H          -3.2439    1.1396    1.3317 H.spc      1 <1>        0.000
     24 H           1.1852   -2.3072    2.2158 H.spc      1 <1>        0.000
     25 H           4.3054   -1.9872   -0.3967 H.spc      1 <1>        0.000
     26 H           1.6859   -3.2156    0.5854 H.spc      1 <1>        0.000
     27 H           2.6299   -2.8467   -4.1370 H.spc      1 <1>        0.000
     28 H           6.3371   -1.0785   -1.4626 H.spc      1 <1>        0.000
     29 H           4.5672   -1.9156   -5.2804 H.spc      1 <1>        0.000
     30 H           6.4471   -1.0032   -3.9459 H.spc      1 <1>        0.000
@<TRIPOS>BOND
     1    2    5 1  
     2    2    4 ar 
     3    3    6 ar 
     4   17   19 ar 
     5    4    7 ar 
     6    6    7 ar 
     7    9   11 2  
     8   10   12 1  
     9   16   18 ar 
    10   12   15 2  
    11    9   10 am 
    12   13   16 ar 
    13    7    9 1  
    14   12   14 2  
    15   12   13 1  
    16   18   19 ar 
    17    8   17 ar 
    18   13    8 ar 
    19    1    3 ar 
    20    1    2 ar 
    21    1   20 1  
    22    3   21 1  
    23    4   22 1  
    24    5   23 1  
    25    6   24 1  
    26    8   25 1  
    27   10   26 1  
    28   16   27 1  
    29   17   28 1  
    30   18   29 1  
    31   19   30 1  
# Name:          frag5-677-62/138278 -- energy: -4.582348
# Creation time: Sat Jun  5 12:51:55 2010


@<TRIPOS>MOLECULE
frag5-677-62/138278 -- energy: -4.582348
   30    31     1     1     1
SMALL
USER_CHARGES


@<TRIPOS>ATOM
      1 C9         -0.4996    0.6916   -0.2457 C.ar       1 <1>        0.000
      2 C12        -1.0546   -0.5784   -0.3847 C.ar       1 <1>        0.000
      3 C13         0.7691    0.9964    0.2597 C.ar       1 <1>        0.000
      4 C15        -0.1471   -1.5456    0.0947 C.ar       1 <1>        0.000
      5 O1         -2.2407   -0.8065   -0.9358 O.3        1 <1>        0.000
      6 C16         1.5722   -0.0303    0.7225 C.ar       1 <1>        0.000
      7 C17         1.0774   -1.3251    0.7855 C.ar       1 <1>        0.000
      8 C26         4.1100   -2.1873   -2.0118 C.ar       1 <1>        0.000
      9 C20         1.9537   -2.3931    1.3451 C.2        1 <1>        0.000
     10 N3          2.4095   -3.4303    0.5566 N.am       1 <1>        0.000
     11 O4          2.3105   -2.3054    2.5186 O.2        1 <1>        0.000
     12 S1          2.2729   -3.9745   -0.9493 S.o2       1 <1>        0.000
     13 C25         2.7898   -2.5974   -1.8304 C.ar       1 <1>        0.000
     14 O5          3.2276   -5.0446   -1.1319 O.2        1 <1>        0.000
     15 O6          0.8661   -4.1882   -1.1921 O.2        1 <1>        0.000
     16 C27         1.9554   -1.5562   -2.2625 C.ar       1 <1>        0.000
     17 C28         4.5271   -1.1790   -2.8880 C.ar       1 <1>        0.000
     18 C30         2.2948   -0.4090   -2.9722 C.ar       1 <1>        0.000
     19 C31         3.5972   -0.2782   -3.3673 C.ar       1 <1>        0.000
     20 H          -1.1158    1.5330   -0.5626 H.spc      1 <1>        0.000
     21 H           1.1195    2.0281    0.2883 H.spc      1 <1>        0.000
     22 H          -0.4157   -2.5865   -0.0854 H.spc      1 <1>        0.000
     23 H          -2.6488    0.0298   -1.1717 H.spc      1 <1>        0.000
     24 H           2.5946    0.1779    1.0380 H.spc      1 <1>        0.000
     25 H           4.8776   -2.6918   -1.4250 H.spc      1 <1>        0.000
     26 H           3.0230   -4.0402    1.0971 H.spc      1 <1>        0.000
     27 H           0.9005   -1.6597   -2.0084 H.spc      1 <1>        0.000
     28 H           5.5724   -1.1058   -3.1881 H.spc      1 <1>        0.000
     29 H           1.5525    0.3548   -3.2040 H.spc      1 <1>        0.000
     30 H           3.8950    0.5206   -4.0465 H.spc      1 <1>        0.000
@<TRIPOS>BOND
     1    2    5 1  
     2    2    4 ar 
     3    3    6 ar 
     4   17   19 ar 
     5    4    7 ar 
     6    6    7 ar 
     7    9   11 2  
     8   10   12 1  
     9   16   18 ar 
    10   12   15 2  
    11    9   10 am 
    12   13   16 ar 
    13    7    9 1  
    14   12   14 2  
    15   12   13 1  
    16   18   19 ar 
    17    8   17 ar 
    18   13    8 ar 
    19    1    3 ar 
    20    1    2 ar 
    21    1   20 1  
    22    3   21 1  
    23    4   22 1  
    24    5   23 1  
    25    6   24 1  
    26    8   25 1  
    27   10   26 1  
    28   16   27 1  
    29   17   28 1  
    30   18   29 1  
    31   19   30 1  
# Name:          frag5-677-62/138278 -- energy: -0.770636
# Creation time: Sat Jun  5 12:51:55 2010


@<TRIPOS>MOLECULE
frag5-677-62/138278 -- energy: -0.770636
   30    31     1     1     1
SMALL
USER_CHARGES


@<TRIPOS>ATOM
      1 C9         -2.2858   -1.0400    1.4030 C.ar       1 <1>        0.000
      2 C12        -1.5285   -0.1092    2.0947 C.ar       1 <1>        0.000
      3 C13        -1.8328   -1.9081    0.4166 C.ar       1 <1>        0.000
      4 C15        -0.1859   -0.2254    1.7596 C.ar       1 <1>        0.000
      5 O1         -1.9894    0.7405    3.0097 O.3        1 <1>        0.000
      6 C16        -0.4882   -1.8955    0.1260 C.ar       1 <1>        0.000
      7 C17         0.3747   -0.9819    0.7312 C.ar       1 <1>        0.000
      8 C26         3.4041   -2.2843   -3.7845 C.ar       1 <1>        0.000
      9 C20         1.8493   -0.8323    0.5556 C.2        1 <1>        0.000
     10 N3          2.4776   -1.6943   -0.2610 N.am       1 <1>        0.000
     11 O4          2.5147    0.0224    1.1326 O.2        1 <1>        0.000
     12 S1          2.1090   -2.6865   -1.4773 S.o2       1 <1>        0.000
     13 C25         3.4985   -2.6643   -2.4605 C.ar       1 <1>        0.000
     14 O5          1.9250   -3.9954   -0.9352 O.2        1 <1>        0.000
     15 O6          1.0983   -2.0027   -2.2455 O.2        1 <1>        0.000
     16 C27         4.8201   -2.7629   -2.0498 C.ar       1 <1>        0.000
     17 C28         4.4316   -2.3291   -4.7122 C.ar       1 <1>        0.000
     18 C30         5.9069   -2.8625   -2.9253 C.ar       1 <1>        0.000
     19 C31         5.6924   -2.6295   -4.2669 C.ar       1 <1>        0.000
     20 H          -3.3440   -1.0975    1.6580 H.spc      1 <1>        0.000
     21 H          -2.5178   -2.5745   -0.1075 H.spc      1 <1>        0.000
     22 H           0.5130    0.3425    2.3737 H.spc      1 <1>        0.000
     23 H          -2.9428    0.6503    3.0771 H.spc      1 <1>        0.000
     24 H          -0.0895   -2.6132   -0.5909 H.spc      1 <1>        0.000
     25 H           2.4374   -1.9173   -4.1295 H.spc      1 <1>        0.000
     26 H           3.4751   -1.7320   -0.0512 H.spc      1 <1>        0.000
     27 H           5.0243   -2.7628   -0.9791 H.spc      1 <1>        0.000
     28 H           4.2427   -2.1309   -5.7672 H.spc      1 <1>        0.000
     29 H           6.8997   -3.1183   -2.5553 H.spc      1 <1>        0.000
     30 H           6.5226   -2.6840   -4.9711 H.spc      1 <1>        0.000
@<TRIPOS>BOND
     1    2    5 1  
     2    2    4 ar 
     3    3    6 ar 
     4   17   19 ar 
     5    4    7 ar 
     6    6    7 ar 
     7    9   11 2  
     8   10   12 1  
     9   16   18 ar 
    10   12   15 2  
    11    9   10 am 
    12   13   16 ar 
    13    7    9 1  
    14   12   14 2  
    15   12   13 1  
    16   18   19 ar 
    17    8   17 ar 
    18   13    8 ar 
    19    1    3 ar 
    20    1    2 ar 
    21    1   20 1  
    22    3   21 1  
    23    4   22 1  
    24    5   23 1  
    25    6   24 1  
    26    8   25 1  
    27   10   26 1  
    28   16   27 1  
    29   17   28 1  
    30   18   29 1  
    31   19   30 1  
# Name:          frag5-677-62/138278 -- energy: -3.321335
# Creation time: Sat Jun  5 12:51:55 2010


@<TRIPOS>MOLECULE
frag5-677-62/138278 -- energy: -3.321335
   30    31     1     1     1
SMALL
USER_CHARGES


@<TRIPOS>ATOM
      1 C9         -1.2708   -0.8120    2.6265 C.ar       1 <1>        0.000
      2 C12        -1.0377    0.3657    1.9088 C.ar       1 <1>        0.000
      3 C13        -0.9081   -2.1061    2.2435 C.ar       1 <1>        0.000
      4 C15        -0.2771    0.1054    0.7787 C.ar       1 <1>        0.000
      5 O1         -1.4120    1.5766    2.2854 O.3        1 <1>        0.000
      6 C16        -0.2490   -2.2682    1.0429 C.ar       1 <1>        0.000
      7 C17         0.0114   -1.1476    0.2484 C.ar       1 <1>        0.000
      8 C26         3.3212   -1.8643   -3.3558 C.ar       1 <1>        0.000
      9 C20         0.5733   -1.1918   -1.1131 C.2        1 <1>        0.000
     10 N3          1.0647   -2.3875   -1.5251 N.am       1 <1>        0.000
     11 O4          0.7534   -0.2088   -1.8128 O.2        1 <1>        0.000
     12 S1          2.3318   -3.1906   -1.0358 S.o2       1 <1>        0.000
     13 C25         3.4839   -2.6549   -2.1740 C.ar       1 <1>        0.000
     14 O5          2.6925   -2.6787    0.2710 O.2        1 <1>        0.000
     15 O6          2.0549   -4.5832   -1.2779 O.2        1 <1>        0.000
     16 C27         4.8090   -2.9970   -1.9952 C.ar       1 <1>        0.000
     17 C28         4.3552   -1.4784   -4.2230 C.ar       1 <1>        0.000
     18 C30         5.8621   -2.7022   -2.8368 C.ar       1 <1>        0.000
     19 C31         5.6327   -1.9173   -3.9447 C.ar       1 <1>        0.000
     20 H          -1.7875   -0.7101    3.5808 H.spc      1 <1>        0.000
     21 H          -1.1396   -2.9632    2.8758 H.spc      1 <1>        0.000
     22 H           0.1351    0.9676    0.2545 H.spc      1 <1>        0.000
     23 H          -1.9284    1.5142    3.0923 H.spc      1 <1>        0.000
     24 H           0.0656   -3.2596    0.7168 H.spc      1 <1>        0.000
     25 H           2.3119   -1.5349   -3.6026 H.spc      1 <1>        0.000
     26 H           0.5309   -2.8383   -2.2682 H.spc      1 <1>        0.000
     27 H           5.0492   -3.5599   -1.0933 H.spc      1 <1>        0.000
     28 H           4.1544   -0.8503   -5.0909 H.spc      1 <1>        0.000
     29 H           6.8610   -3.0851   -2.6276 H.spc      1 <1>        0.000
     30 H           6.4592   -1.6434   -4.6005 H.spc      1 <1>        0.000
@<TRIPOS>BOND
     1    2    5 1  
     2    2    4 ar 
     3    3    6 ar 
     4   17   19 ar 
     5    4    7 ar 
     6    6    7 ar 
     7    9   11 2  
     8   10   12 1  
     9   16   18 ar 
    10   12   15 2  
    11    9   10 am 
    12   13   16 ar 
    13    7    9 1  
    14   12   14 2  
    15   12   13 1  
    16   18   19 ar 
    17    8   17 ar 
    18   13    8 ar 
    19    1    3 ar 
    20    1    2 ar 
    21    1   20 1  
    22    3   21 1  
    23    4   22 1  
    24    5   23 1  
    25    6   24 1  
    26    8   25 1  
    27   10   26 1  
    28   16   27 1  
    29   17   28 1  
    30   18   29 1  
    31   19   30 1  
# Name:          frag5-677-62/138278 -- energy: -3.646122
# Creation time: Sat Jun  5 12:51:55 2010


@<TRIPOS>MOLECULE
frag5-677-62/138278 -- energy: -3.646122
   30    31     1     1     1
SMALL
USER_CHARGES


@<TRIPOS>ATOM
      1 C9         -1.0792    0.6208    0.9012 C.ar       1 <1>        0.000
      2 C12        -0.8041    0.2068   -0.4046 C.ar       1 <1>        0.000
      3 C13        -0.5626    0.0777    2.0817 C.ar       1 <1>        0.000
      4 C15         0.1479   -0.8087   -0.3921 C.ar       1 <1>        0.000
      5 O1         -1.3354    0.7594   -1.4828 O.3        1 <1>        0.000
      6 C16         0.2997   -0.9720    2.0006 C.ar       1 <1>        0.000
      7 C17         0.6376   -1.4434    0.7646 C.ar       1 <1>        0.000
      8 C26         2.3471   -1.9335   -2.9641 C.ar       1 <1>        0.000
      9 C20         1.5219   -2.5768    0.7612 C.2        1 <1>        0.000
     10 N3          1.4083   -3.4531   -0.2779 N.am       1 <1>        0.000
     11 O4          2.4381   -2.6440    1.5584 O.2        1 <1>        0.000
     12 S1          2.5428   -4.0681   -1.1856 S.o2       1 <1>        0.000
     13 C25         3.0733   -2.6423   -1.9759 C.ar       1 <1>        0.000
     14 O5          3.5568   -4.5652   -0.2976 O.2        1 <1>        0.000
     15 O6          1.8618   -4.8907   -2.1625 O.2        1 <1>        0.000
     16 C27         4.1769   -1.8880   -1.5648 C.ar       1 <1>        0.000
     17 C28         2.8032   -0.8162   -3.6665 C.ar       1 <1>        0.000
     18 C30         4.7342   -0.8261   -2.2677 C.ar       1 <1>        0.000
     19 C31         4.0229   -0.2776   -3.3149 C.ar       1 <1>        0.000
     20 H          -1.7704    1.4564    1.0115 H.spc      1 <1>        0.000
     21 H          -0.8459    0.4883    3.0508 H.spc      1 <1>        0.000
     22 H           0.5448   -1.1377   -1.3525 H.spc      1 <1>        0.000
     23 H          -1.9647    1.4343   -1.2181 H.spc      1 <1>        0.000
     24 H           0.7113   -1.4261    2.9020 H.spc      1 <1>        0.000
     25 H           1.3442   -2.2917   -3.1967 H.spc      1 <1>        0.000
     26 H           0.4584   -3.7522   -0.4987 H.spc      1 <1>        0.000
     27 H           4.6384   -2.1550   -0.6141 H.spc      1 <1>        0.000
     28 H           2.2108   -0.3813   -4.4715 H.spc      1 <1>        0.000
     29 H           5.7145   -0.4342   -1.9967 H.spc      1 <1>        0.000
     30 H           4.4228    0.5766   -3.8612 H.spc      1 <1>        0.000
@<TRIPOS>BOND
     1    2    5 1  
     2    2    4 ar 
     3    3    6 ar 
     4   17   19 ar 
     5    4    7 ar 
     6    6    7 ar 
     7    9   11 2  
     8   10   12 1  
     9   16   18 ar 
    10   12   15 2  
    11    9   10 am 
    12   13   16 ar 
    13    7    9 1  
    14   12   14 2  
    15   12   13 1  
    16   18   19 ar 
    17    8   17 ar 
    18   13    8 ar 
    19    1    3 ar 
    20    1    2 ar 
    21    1   20 1  
    22    3   21 1  
    23    4   22 1  
    24    5   23 1  
    25    6   24 1  
    26    8   25 1  
    27   10   26 1  
    28   16   27 1  
    29   17   28 1  
    30   18   29 1  
    31   19   30 1  
# Name:          frag5-677-62/138278 -- energy: -4.861844
# Creation time: Sat Jun  5 12:51:55 2010


@<TRIPOS>MOLECULE
frag5-677-62/138278 -- energy: -4.861844
   30    31     1     1     1
SMALL
USER_CHARGES


@<TRIPOS>ATOM
      1 C9          0.8244    1.1459    0.2127 C.ar       1 <1>        0.000
      2 C12        -0.4140    0.5602    0.0047 C.ar       1 <1>        0.000
      3 C13         2.0072    0.4510    0.4845 C.ar       1 <1>        0.000
      4 C15        -0.3021   -0.8267   -0.0463 C.ar       1 <1>        0.000
      5 O1         -1.5343    1.2406   -0.2409 O.3        1 <1>        0.000
      6 C16         1.9182   -0.9048    0.7308 C.ar       1 <1>        0.000
      7 C17         0.7631   -1.6108    0.4490 C.ar       1 <1>        0.000
      8 C26         1.9968   -2.6318   -2.7298 C.ar       1 <1>        0.000
      9 C20         0.5641   -3.1217    0.4663 C.2        1 <1>        0.000
     10 N3          1.5519   -3.9767    0.0200 N.am       1 <1>        0.000
     11 O4         -0.5272   -3.5798    0.7749 O.2        1 <1>        0.000
     12 S1          3.1063   -3.8850   -0.4466 S.o2       1 <1>        0.000
     13 C25         2.9525   -2.6675   -1.6791 C.ar       1 <1>        0.000
     14 O5          3.8270   -3.3552    0.6864 O.2        1 <1>        0.000
     15 O6          3.5275   -5.0924   -1.1051 O.2        1 <1>        0.000
     16 C27         3.5761   -1.4101   -1.6260 C.ar       1 <1>        0.000
     17 C28         1.8838   -1.6404   -3.7232 C.ar       1 <1>        0.000
     18 C30         3.4364   -0.3397   -2.5146 C.ar       1 <1>        0.000
     19 C31         2.6337   -0.4960   -3.6070 C.ar       1 <1>        0.000
     20 H           0.8811    2.2332    0.1604 H.spc      1 <1>        0.000
     21 H           2.9691    0.9635    0.5014 H.spc      1 <1>        0.000
     22 H          -1.1240   -1.3646   -0.5188 H.spc      1 <1>        0.000
     23 H          -1.3643    2.1804   -0.1439 H.spc      1 <1>        0.000
     24 H           2.7747   -1.4284    1.1554 H.spc      1 <1>        0.000
     25 H           1.2807   -3.4525   -2.7709 H.spc      1 <1>        0.000
     26 H           1.2100   -4.9363   -0.0314 H.spc      1 <1>        0.000
     27 H           4.2535   -1.2486   -0.7874 H.spc      1 <1>        0.000
     28 H           1.2122   -1.7790   -4.5704 H.spc      1 <1>        0.000
     29 H           3.9583    0.6009   -2.3383 H.spc      1 <1>        0.000
     30 H           2.5885    0.2757   -4.3755 H.spc      1 <1>        0.000
@<TRIPOS>BOND
     1    2    5 1  
     2    2    4 ar 
     3    3    6 ar 
     4   17   19 ar 
     5    4    7 ar 
     6    6    7 ar 
     7    9   11 2  
     8   10   12 1  
     9   16   18 ar 
    10   12   15 2  
    11    9   10 am 
    12   13   16 ar 
    13    7    9 1  
    14   12   14 2  
    15   12   13 1  
    16   18   19 ar 
    17    8   17 ar 
    18   13    8 ar 
    19    1    3 ar 
    20    1    2 ar 
    21    1   20 1  
    22    3   21 1  
    23    4   22 1  
    24    5   23 1  
    25    6   24 1  
    26    8   25 1  
    27   10   26 1  
    28   16   27 1  
    29   17   28 1  
    30   18   29 1  
    31   19   30 1  
# Name:          frag5-677-62/138278 -- energy: -1.919676
# Creation time: Sat Jun  5 12:51:55 2010


@<TRIPOS>MOLECULE
frag5-677-62/138278 -- energy: -1.919676
   30    31     1     1     1
SMALL
USER_CHARGES


@<TRIPOS>ATOM
      1 C9         -0.6375    0.6942    0.1263 C.ar       1 <1>        0.000
      2 C12        -0.9428   -0.5008   -0.4925 C.ar       1 <1>        0.000
      3 C13         0.4345    0.9109    1.0049 C.ar       1 <1>        0.000
      4 C15         0.0472   -1.4431   -0.1861 C.ar       1 <1>        0.000
      5 O1         -1.9791   -0.7094   -1.2925 O.3        1 <1>        0.000
      6 C16         1.3038   -0.1205    1.2978 C.ar       1 <1>        0.000
      7 C17         1.0465   -1.3903    0.8228 C.ar       1 <1>        0.000
      8 C26         2.3744   -2.1582   -3.0949 C.ar       1 <1>        0.000
      9 C20         1.9856   -2.4868    1.2743 C.2        1 <1>        0.000
     10 N3          2.3234   -3.5461    0.4559 N.am       1 <1>        0.000
     11 O4          2.5673   -2.3841    2.3459 O.2        1 <1>        0.000
     12 S1          2.1704   -3.9706   -1.0766 S.o2       1 <1>        0.000
     13 C25         2.8160   -2.5591   -1.8362 C.ar       1 <1>        0.000
     14 O5          3.0431   -5.0844   -1.3627 O.2        1 <1>        0.000
     15 O6          0.7538   -4.0986   -1.3636 O.2        1 <1>        0.000
     16 C27         3.6802   -1.5411   -1.3207 C.ar       1 <1>        0.000
     17 C28         2.8366   -1.0869   -3.8500 C.ar       1 <1>        0.000
     18 C30         4.2028   -0.4427   -2.0286 C.ar       1 <1>        0.000
     19 C31         3.7653   -0.2233   -3.3125 C.ar       1 <1>        0.000
     20 H          -1.2860    1.5441   -0.0861 H.spc      1 <1>        0.000
     21 H           0.5808    1.8925    1.4557 H.spc      1 <1>        0.000
     22 H           0.0517   -2.3394   -0.8063 H.spc      1 <1>        0.000
     23 H          -2.5109    0.0884   -1.3401 H.spc      1 <1>        0.000
     24 H           2.1909    0.0675    1.9026 H.spc      1 <1>        0.000
     25 H           1.5753   -2.7524   -3.5382 H.spc      1 <1>        0.000
     26 H           2.8136   -4.2683    0.9836 H.spc      1 <1>        0.000
     27 H           3.9628   -1.6253   -0.2713 H.spc      1 <1>        0.000
     28 H           2.4658   -0.9308   -4.8630 H.spc      1 <1>        0.000
     29 H           4.9375    0.2185   -1.5691 H.spc      1 <1>        0.000
     30 H           4.1453    0.6169   -3.8937 H.spc      1 <1>        0.000
@<TRIPOS>BOND
     1    2    5 1  
     2    2    4 ar 
     3    3    6 ar 
     4   17   19 ar 
     5    4    7 ar 
     6    6    7 ar 
     7    9   11 2  
     8   10   12 1  
     9   16   18 ar 
    10   12   15 2  
    11    9   10 am 
    12   13   16 ar 
    13    7    9 1  
    14   12   14 2  
    15   12   13 1  
    16   18   19 ar 
    17    8   17 ar 
    18   13    8 ar 
    19    1    3 ar 
    20    1    2 ar 
    21    1   20 1  
    22    3   21 1  
    23    4   22 1  
    24    5   23 1  
    25    6   24 1  
    26    8   25 1  
    27   10   26 1  
    28   16   27 1  
    29   17   28 1  
    30   18   29 1  
    31   19   30 1  
# Name:          frag5-677-62/138278 -- energy: -3.088046
# Creation time: Sat Jun  5 12:51:55 2010


@<TRIPOS>MOLECULE
frag5-677-62/138278 -- energy: -3.088046
   30    31     1     1     1
SMALL
USER_CHARGES


@<TRIPOS>ATOM
      1 C9         -0.8839    1.1154    0.5854 C.ar       1 <1>        0.000
      2 C12        -1.4851   -0.0701    1.0111 C.ar       1 <1>        0.000
      3 C13         0.4507    1.2653    0.1804 C.ar       1 <1>        0.000
      4 C15        -0.6291   -1.1514    0.8901 C.ar       1 <1>        0.000
      5 O1         -2.7480   -0.1647    1.4153 O.3        1 <1>        0.000
      6 C16         1.2665    0.1608    0.1933 C.ar       1 <1>        0.000
      7 C17         0.7159   -1.0158    0.6277 C.ar       1 <1>        0.000
      8 C26         2.4710   -2.5762   -3.2920 C.ar       1 <1>        0.000
      9 C20         1.5183   -2.2092    0.7368 C.2        1 <1>        0.000
     10 N3          1.4325   -3.0894   -0.2767 N.am       1 <1>        0.000
     11 O4          2.3307   -2.3023    1.6442 O.2        1 <1>        0.000
     12 S1          2.5732   -3.9805   -0.9024 S.o2       1 <1>        0.000
     13 C25         3.1468   -2.8635   -2.0905 C.ar       1 <1>        0.000
     14 O5          3.5674   -4.1468    0.1201 O.2        1 <1>        0.000
     15 O6          1.9141   -5.0493   -1.5814 O.2        1 <1>        0.000
     16 C27         4.2102   -1.9886   -1.8787 C.ar       1 <1>        0.000
     17 C28         2.9788   -1.7701   -4.3143 C.ar       1 <1>        0.000
     18 C30         4.8011   -1.2124   -2.8705 C.ar       1 <1>        0.000
     19 C31         4.1602   -1.0919   -4.0868 C.ar       1 <1>        0.000
     20 H          -1.5096    2.0077    0.5658 H.spc      1 <1>        0.000
     21 H           0.8314    2.2360   -0.1372 H.spc      1 <1>        0.000
     22 H          -1.0380   -2.1549    1.0078 H.spc      1 <1>        0.000
     23 H          -3.1468    0.7085    1.4223 H.spc      1 <1>        0.000
     24 H           2.3065    0.2179   -0.1280 H.spc      1 <1>        0.000
     25 H           1.4826   -3.0131   -3.4346 H.spc      1 <1>        0.000
     26 H           0.5084   -3.1942   -0.6955 H.spc      1 <1>        0.000
     27 H           4.6063   -1.9067   -0.8665 H.spc      1 <1>        0.000
     28 H           2.4561   -1.6790   -5.2665 H.spc      1 <1>        0.000
     29 H           5.7512   -0.7095   -2.6906 H.spc      1 <1>        0.000
     30 H           4.5862   -0.4618   -4.8675 H.spc      1 <1>        0.000
@<TRIPOS>BOND
     1    2    5 1  
     2    2    4 ar 
     3    3    6 ar 
     4   17   19 ar 
     5    4    7 ar 
     6    6    7 ar 
     7    9   11 2  
     8   10   12 1  
     9   16   18 ar 
    10   12   15 2  
    11    9   10 am 
    12   13   16 ar 
    13    7    9 1  
    14   12   14 2  
    15   12   13 1  
    16   18   19 ar 
    17    8   17 ar 
    18   13    8 ar 
    19    1    3 ar 
    20    1    2 ar 
    21    1   20 1  
    22    3   21 1  
    23    4   22 1  
    24    5   23 1  
    25    6   24 1  
    26    8   25 1  
    27   10   26 1  
    28   16   27 1  
    29   17   28 1  
    30   18   29 1  
    31   19   30 1  
# Name:          frag5-677-62/138278 -- energy: -6.159358
# Creation time: Sat Jun  5 12:51:55 2010


@<TRIPOS>MOLECULE
frag5-677-62/138278 -- energy: -6.159358
   30    31     1     1     1
SMALL
USER_CHARGES


@<TRIPOS>ATOM
      1 C9         -0.3267    0.5410   -0.6123 C.ar       1 <1>        0.000
      2 C12         0.9722    0.5546   -0.1099 C.ar       1 <1>        0.000
      3 C13        -1.1743   -0.5688   -0.6942 C.ar       1 <1>        0.000
      4 C15         1.2189   -0.6726    0.5467 C.ar       1 <1>        0.000
      5 O1          1.7905    1.6025   -0.1475 O.3        1 <1>        0.000
      6 C16        -0.6875   -1.8056   -0.3214 C.ar       1 <1>        0.000
      7 C17         0.4866   -1.8828    0.4070 C.ar       1 <1>        0.000
      8 C26         1.9997   -2.7537   -2.4453 C.ar       1 <1>        0.000
      9 C20         0.9336   -3.2262    0.8392 C.2        1 <1>        0.000
     10 N3          2.2104   -3.6799    0.5535 N.am       1 <1>        0.000
     11 O4          0.1323   -3.9881    1.3642 O.2        1 <1>        0.000
     12 S1          3.5801   -3.2706   -0.2020 S.o2       1 <1>        0.000
     13 C25         2.9806   -2.3455   -1.5232 C.ar       1 <1>        0.000
     14 O5          4.3039   -2.3928    0.6947 O.2        1 <1>        0.000
     15 O6          4.2205   -4.4615   -0.7069 O.2        1 <1>        0.000
     16 C27         3.3027   -1.0113   -1.7812 C.ar       1 <1>        0.000
     17 C28         1.3704   -1.9632   -3.4272 C.ar       1 <1>        0.000
     18 C30         2.7104   -0.1581   -2.7297 C.ar       1 <1>        0.000
     19 C31         1.7670   -0.6583   -3.5936 C.ar       1 <1>        0.000
     20 H          -0.7219    1.4888   -0.9778 H.spc      1 <1>        0.000
     21 H          -2.2002   -0.4590   -1.0459 H.spc      1 <1>        0.000
     22 H           2.0633   -0.6931    1.2357 H.spc      1 <1>        0.000
     23 H           1.3842    2.3062   -0.6587 H.spc      1 <1>        0.000
     24 H          -1.2233   -2.7135   -0.5984 H.spc      1 <1>        0.000
     25 H           1.6922   -3.7982   -2.3944 H.spc      1 <1>        0.000
     26 H           2.3296   -4.6039    0.9687 H.spc      1 <1>        0.000
     27 H           4.1039   -0.5825   -1.1793 H.spc      1 <1>        0.000
     28 H           0.5781   -2.3820   -4.0476 H.spc      1 <1>        0.000
     29 H           2.9979    0.8921   -2.7788 H.spc      1 <1>        0.000
     30 H           1.3462   -0.0395   -4.3862 H.spc      1 <1>        0.000
@<TRIPOS>BOND
     1    2    5 1  
     2    2    4 ar 
     3    3    6 ar 
     4   17   19 ar 
     5    4    7 ar 
     6    6    7 ar 
     7    9   11 2  
     8   10   12 1  
     9   16   18 ar 
    10   12   15 2  
    11    9   10 am 
    12   13   16 ar 
    13    7    9 1  
    14   12   14 2  
    15   12   13 1  
    16   18   19 ar 
    17    8   17 ar 
    18   13    8 ar 
    19    1    3 ar 
    20    1    2 ar 
    21    1   20 1  
    22    3   21 1  
    23    4   22 1  
    24    5   23 1  
    25    6   24 1  
    26    8   25 1  
    27   10   26 1  
    28   16   27 1  
    29   17   28 1  
    30   18   29 1  
    31   19   30 1  
# Name:          frag5-677-62/138278 -- energy: -2.724515
# Creation time: Sat Jun  5 12:51:55 2010


@<TRIPOS>MOLECULE
frag5-677-62/138278 -- energy: -2.724515
   30    31     1     1     1
SMALL
USER_CHARGES


@<TRIPOS>ATOM
      1 C9         -2.1919   -0.2930    1.5934 C.ar       1 <1>        0.000
      2 C12        -1.1561    0.6367    1.7148 C.ar       1 <1>        0.000
      3 C13        -2.1130   -1.5716    1.0297 C.ar       1 <1>        0.000
      4 C15         0.0429    0.0949    1.3038 C.ar       1 <1>        0.000
      5 O1         -1.2772    1.8613    2.2125 O.3        1 <1>        0.000
      6 C16        -0.8960   -1.9845    0.5315 C.ar       1 <1>        0.000
      7 C17         0.1831   -1.1274    0.6817 C.ar       1 <1>        0.000
      8 C26         4.5786   -1.9512   -2.0054 C.ar       1 <1>        0.000
      9 C20         1.5057   -1.4300    0.1961 C.2        1 <1>        0.000
     10 N3          1.5646   -2.1593   -0.9290 N.am       1 <1>        0.000
     11 O4          2.5010   -1.1684    0.8401 O.2        1 <1>        0.000
     12 S1          2.4066   -3.4669   -1.2470 S.o2       1 <1>        0.000
     13 C25         3.5200   -2.7966   -2.3428 C.ar       1 <1>        0.000
     14 O5          3.0688   -3.8346   -0.0178 O.2        1 <1>        0.000
     15 O6          1.5086   -4.3415   -1.9295 O.2        1 <1>        0.000
     16 C27         3.3038   -2.8013   -3.7202 C.ar       1 <1>        0.000
     17 C28         5.5924   -1.5789   -2.8903 C.ar       1 <1>        0.000
     18 C30         4.2433   -2.4147   -4.6726 C.ar       1 <1>        0.000
     19 C31         5.4060   -1.8139   -4.2380 C.ar       1 <1>        0.000
     20 H          -3.1655    0.0098    1.9789 H.spc      1 <1>        0.000
     21 H          -2.9873   -2.2210    0.9860 H.spc      1 <1>        0.000
     22 H           0.9473    0.6760    1.4840 H.spc      1 <1>        0.000
     23 H          -2.1973    2.0274    2.4305 H.spc      1 <1>        0.000
     24 H          -0.7861   -2.9498    0.0374 H.spc      1 <1>        0.000
     25 H           4.6159   -1.5579   -0.9895 H.spc      1 <1>        0.000
     26 H           0.9807   -1.8229   -1.6947 H.spc      1 <1>        0.000
     27 H           2.3284   -3.1316   -4.0775 H.spc      1 <1>        0.000
     28 H           6.5086   -1.1141   -2.5261 H.spc      1 <1>        0.000
     29 H           4.0642   -2.5827   -5.7346 H.spc      1 <1>        0.000
     30 H           6.1745   -1.5258   -4.9553 H.spc      1 <1>        0.000
@<TRIPOS>BOND
     1    2    5 1  
     2    2    4 ar 
     3    3    6 ar 
     4   17   19 ar 
     5    4    7 ar 
     6    6    7 ar 
     7    9   11 2  
     8   10   12 1  
     9   16   18 ar 
    10   12   15 2  
    11    9   10 am 
    12   13   16 ar 
    13    7    9 1  
    14   12   14 2  
    15   12   13 1  
    16   18   19 ar 
    17    8   17 ar 
    18   13    8 ar 
    19    1    3 ar 
    20    1    2 ar 
    21    1   20 1  
    22    3   21 1  
    23    4   22 1  
    24    5   23 1  
    25    6   24 1  
    26    8   25 1  
    27   10   26 1  
    28   16   27 1  
    29   17   28 1  
    30   18   29 1  
    31   19   30 1  
# Name:          frag5-677-62/138278 -- energy: -1.880333
# Creation time: Sat Jun  5 12:51:55 2010


@<TRIPOS>MOLECULE
frag5-677-62/138278 -- energy: -1.880333
   30    31     1     1     1
SMALL
USER_CHARGES


@<TRIPOS>ATOM
      1 C9         -0.9933    0.8874    0.5537 C.ar       1 <1>        0.000
      2 C12        -1.3004   -0.0490    1.5410 C.ar       1 <1>        0.000
      3 C13        -0.0442    0.7361   -0.4417 C.ar       1 <1>        0.000
      4 C15        -0.6676   -1.2731    1.2801 C.ar       1 <1>        0.000
      5 O1         -2.1121    0.1468    2.5684 O.3        1 <1>        0.000
      6 C16         0.5619   -0.5034   -0.5539 C.ar       1 <1>        0.000
      7 C17         0.2732   -1.5656    0.2949 C.ar       1 <1>        0.000
      8 C26         3.8204   -3.5134   -2.5851 C.ar       1 <1>        0.000
      9 C20         0.9142   -2.8994    0.2908 C.2        1 <1>        0.000
     10 N3          2.2841   -3.0122    0.1888 N.am       1 <1>        0.000
     11 O4          0.2197   -3.9082    0.4030 O.2        1 <1>        0.000
     12 S1          3.5883   -2.1438   -0.1959 S.o2       1 <1>        0.000
     13 C25         3.5528   -2.3230   -1.9001 C.ar       1 <1>        0.000
     14 O5          3.3089   -0.7720    0.1563 O.2        1 <1>        0.000
     15 O6          4.7721   -2.7806    0.3239 O.2        1 <1>        0.000
     16 C27         3.0762   -1.3918   -2.8234 C.ar       1 <1>        0.000
     17 C28         3.9207   -3.6680   -3.9774 C.ar       1 <1>        0.000
     18 C30         3.0635   -1.4842   -4.2151 C.ar       1 <1>        0.000
     19 C31         3.5529   -2.6236   -4.7972 C.ar       1 <1>        0.000
     20 H          -1.5518    1.8234    0.5677 H.spc      1 <1>        0.000
     21 H           0.2152    1.5579   -1.1091 H.spc      1 <1>        0.000
     22 H          -0.9475   -2.1013    1.9311 H.spc      1 <1>        0.000
     23 H          -2.4312    1.0521    2.5547 H.spc      1 <1>        0.000
     24 H           1.2985   -0.6531   -1.3432 H.spc      1 <1>        0.000
     25 H           3.9651   -4.4078   -1.9791 H.spc      1 <1>        0.000
     26 H           2.5675   -3.9593    0.4400 H.spc      1 <1>        0.000
     27 H           2.6610   -0.4755   -2.4037 H.spc      1 <1>        0.000
     28 H           4.2850   -4.6026   -4.4040 H.spc      1 <1>        0.000
     29 H           2.6735   -0.6693   -4.8249 H.spc      1 <1>        0.000
     30 H           3.6488   -2.7018   -5.8802 H.spc      1 <1>        0.000
@<TRIPOS>BOND
     1    2    5 1  
     2    2    4 ar 
     3    3    6 ar 
     4   17   19 ar 
     5    4    7 ar 
     6    6    7 ar 
     7    9   11 2  
     8   10   12 1  
     9   16   18 ar 
    10   12   15 2  
    11    9   10 am 
    12   13   16 ar 
    13    7    9 1  
    14   12   14 2  
    15   12   13 1  
    16   18   19 ar 
    17    8   17 ar 
    18   13    8 ar 
    19    1    3 ar 
    20    1    2 ar 
    21    1   20 1  
    22    3   21 1  
    23    4   22 1  
    24    5   23 1  
    25    6   24 1  
    26    8   25 1  
    27   10   26 1  
    28   16   27 1  
    29   17   28 1  
    30   18   29 1  
    31   19   30 1  
# Name:          frag5-677-62/138278 -- energy: -3.333900
# Creation time: Sat Jun  5 12:51:55 2010


@<TRIPOS>MOLECULE
frag5-677-62/138278 -- energy: -3.333900
   30    31     1     1     1
SMALL
USER_CHARGES


@<TRIPOS>ATOM
      1 C9         -0.8401    0.8554    0.0458 C.ar       1 <1>        0.000
      2 C12        -1.1271    0.2346    1.2589 C.ar       1 <1>        0.000
      3 C13         0.0908    0.4151   -0.8874 C.ar       1 <1>        0.000
      4 C15        -0.4994   -1.0157    1.3434 C.ar       1 <1>        0.000
      5 O1         -1.9210    0.7352    2.1990 O.3        1 <1>        0.000
      6 C16         0.5808   -0.8658   -0.7217 C.ar       1 <1>        0.000
      7 C17         0.3839   -1.5944    0.4356 C.ar       1 <1>        0.000
      8 C26         3.5183   -3.4590   -2.8112 C.ar       1 <1>        0.000
      9 C20         0.9612   -2.9369    0.7030 C.2        1 <1>        0.000
     10 N3          2.1847   -3.2892    0.1782 N.am       1 <1>        0.000
     11 O4          0.3701   -3.7363    1.4147 O.2        1 <1>        0.000
     12 S1          3.5798   -2.5801   -0.2005 S.o2       1 <1>        0.000
     13 C25         3.4733   -2.4065   -1.8905 C.ar       1 <1>        0.000
     14 O5          3.5582   -1.2799    0.4066 O.2        1 <1>        0.000
     15 O6          4.6610   -3.5074    0.0906 O.2        1 <1>        0.000
     16 C27         3.1950   -1.2097   -2.5681 C.ar       1 <1>        0.000
     17 C28         3.4956   -3.3357   -4.2021 C.ar       1 <1>        0.000
     18 C30         2.9159   -1.0587   -3.9230 C.ar       1 <1>        0.000
     19 C31         3.2103   -2.1060   -4.7603 C.ar       1 <1>        0.000
     20 H          -1.3928    1.7643   -0.1921 H.spc      1 <1>        0.000
     21 H           0.4186    1.0500   -1.7106 H.spc      1 <1>        0.000
     22 H          -0.7311   -1.6080    2.2286 H.spc      1 <1>        0.000
     23 H          -2.2346    1.5999    1.9243 H.spc      1 <1>        0.000
     24 H           1.1452   -1.3197   -1.5363 H.spc      1 <1>        0.000
     25 H           3.5765   -4.4689   -2.4052 H.spc      1 <1>        0.000
     26 H           2.2162   -4.2870   -0.0309 H.spc      1 <1>        0.000
     27 H           3.1977   -0.2997   -1.9682 H.spc      1 <1>        0.000
     28 H           3.7001   -4.1976   -4.8373 H.spc      1 <1>        0.000
     29 H           2.4773   -0.1378   -4.3074 H.spc      1 <1>        0.000
     30 H           3.2186   -1.9695   -5.8417 H.spc      1 <1>        0.000
@<TRIPOS>BOND
     1    2    5 1  
     2    2    4 ar 
     3    3    6 ar 
     4   17   19 ar 
     5    4    7 ar 
     6    6    7 ar 
     7    9   11 2  
     8   10   12 1  
     9   16   18 ar 
    10   12   15 2  
    11    9   10 am 
    12   13   16 ar 
    13    7    9 1  
    14   12   14 2  
    15   12   13 1  
    16   18   19 ar 
    17    8   17 ar 
    18   13    8 ar 
    19    1    3 ar 
    20    1    2 ar 
    21    1   20 1  
    22    3   21 1  
    23    4   22 1  
    24    5   23 1  
    25    6   24 1  
    26    8   25 1  
    27   10   26 1  
    28   16   27 1  
    29   17   28 1  
    30   18   29 1  
    31   19   30 1  
# Name:          frag5-677-62/138278 -- energy: -2.365572
# Creation time: Sat Jun  5 12:51:55 2010


@<TRIPOS>MOLECULE
frag5-677-62/138278 -- energy: -2.365572
   30    31     1     1     1
SMALL
USER_CHARGES


@<TRIPOS>ATOM
      1 C9         -1.5977    0.4594    1.3346 C.ar       1 <1>        0.000
      2 C12        -0.4328    0.8258    0.6522 C.ar       1 <1>        0.000
      3 C13        -1.9758   -0.8275    1.7179 C.ar       1 <1>        0.000
      4 C15         0.4088   -0.2702    0.4939 C.ar       1 <1>        0.000
      5 O1         -0.1691    2.0587    0.2518 O.3        1 <1>        0.000
      6 C16        -1.1365   -1.8660    1.4440 C.ar       1 <1>        0.000
      7 C17         0.0613   -1.5862    0.8491 C.ar       1 <1>        0.000
      8 C26         4.4183   -1.5076   -2.1432 C.ar       1 <1>        0.000
      9 C20         0.9027   -2.7060    0.5911 C.2        1 <1>        0.000
     10 N3          1.6779   -2.6178   -0.5147 N.am       1 <1>        0.000
     11 O4          0.9794   -3.6525    1.3363 O.2        1 <1>        0.000
     12 S1          2.9956   -3.4143   -0.8577 S.o2       1 <1>        0.000
     13 C25         3.5022   -2.5532   -2.2147 C.ar       1 <1>        0.000
     14 O5          3.8532   -3.1375    0.2684 O.2        1 <1>        0.000
     15 O6          2.5892   -4.7367   -1.2681 O.2        1 <1>        0.000
     16 C27         2.8647   -2.5789   -3.4686 C.ar       1 <1>        0.000
     17 C28         5.0145   -0.9140   -3.2479 C.ar       1 <1>        0.000
     18 C30         3.3670   -1.9701   -4.6190 C.ar       1 <1>        0.000
     19 C31         4.4686   -1.1463   -4.4947 C.ar       1 <1>        0.000
     20 H          -2.2834    1.2658    1.5947 H.spc      1 <1>        0.000
     21 H          -2.9243   -0.9993    2.2267 H.spc      1 <1>        0.000
     22 H           1.3978   -0.0990    0.0688 H.spc      1 <1>        0.000
     23 H          -0.9060    2.6314    0.4765 H.spc      1 <1>        0.000
     24 H          -1.4130   -2.8906    1.6925 H.spc      1 <1>        0.000
     25 H           4.6850   -1.1303   -1.1560 H.spc      1 <1>        0.000
     26 H           1.3694   -1.9479   -1.2193 H.spc      1 <1>        0.000
     27 H           1.9157   -3.1095   -3.5464 H.spc      1 <1>        0.000
     28 H           5.8932   -0.2793   -3.1334 H.spc      1 <1>        0.000
     29 H           2.9023   -2.1401   -5.5902 H.spc      1 <1>        0.000
     30 H           4.9057   -0.6810   -5.3782 H.spc      1 <1>        0.000
@<TRIPOS>BOND
     1    2    5 1  
     2    2    4 ar 
     3    3    6 ar 
     4   17   19 ar 
     5    4    7 ar 
     6    6    7 ar 
     7    9   11 2  
     8   10   12 1  
     9   16   18 ar 
    10   12   15 2  
    11    9   10 am 
    12   13   16 ar 
    13    7    9 1  
    14   12   14 2  
    15   12   13 1  
    16   18   19 ar 
    17    8   17 ar 
    18   13    8 ar 
    19    1    3 ar 
    20    1    2 ar 
    21    1   20 1  
    22    3   21 1  
    23    4   22 1  
    24    5   23 1  
    25    6   24 1  
    26    8   25 1  
    27   10   26 1  
    28   16   27 1  
    29   17   28 1  
    30   18   29 1  
    31   19   30 1  
# Name:          frag5-677-62/138278 -- energy: -2.647985
# Creation time: Sat Jun  5 12:51:55 2010


@<TRIPOS>MOLECULE
frag5-677-62/138278 -- energy: -2.647985
   30    31     1     1     1
SMALL
USER_CHARGES


@<TRIPOS>ATOM
      1 C9         -1.0243    0.7664    1.6773 C.ar       1 <1>        0.000
      2 C12        -1.1238    0.4821    0.3052 C.ar       1 <1>        0.000
      3 C13        -0.3452    0.0125    2.6383 C.ar       1 <1>        0.000
      4 C15        -0.3367   -0.6104   -0.0309 C.ar       1 <1>        0.000
      5 O1         -1.8332    1.1913   -0.5569 O.3        1 <1>        0.000
      6 C16         0.3041   -1.1201    2.2436 C.ar       1 <1>        0.000
      7 C17         0.2311   -1.4639    0.9202 C.ar       1 <1>        0.000
      8 C26         2.8018   -2.2175   -3.3951 C.ar       1 <1>        0.000
      9 C20         0.8780   -2.6669    0.5396 C.2        1 <1>        0.000
     10 N3          2.0197   -2.5307   -0.1714 N.am       1 <1>        0.000
     11 O4          0.4295   -3.7579    0.8141 O.2        1 <1>        0.000
     12 S1          2.7827   -3.5981   -1.0430 S.o2       1 <1>        0.000
     13 C25         3.4673   -2.5984   -2.2189 C.ar       1 <1>        0.000
     14 O5          3.7886   -4.0934   -0.1411 O.2        1 <1>        0.000
     15 O6          1.7798   -4.4162   -1.6906 O.2        1 <1>        0.000
     16 C27         4.6457   -1.8661   -2.0400 C.ar       1 <1>        0.000
     17 C28         3.3780   -1.4960   -4.4348 C.ar       1 <1>        0.000
     18 C30         5.3033   -1.1777   -3.0533 C.ar       1 <1>        0.000
     19 C31         4.6451   -0.9798   -4.2516 C.ar       1 <1>        0.000
     20 H          -1.5282    1.6670    2.0282 H.spc      1 <1>        0.000
     21 H          -0.3347    0.3236    3.6829 H.spc      1 <1>        0.000
     22 H          -0.1524   -0.8127   -1.0860 H.spc      1 <1>        0.000
     23 H          -2.2929    1.8932   -0.0904 H.spc      1 <1>        0.000
     24 H           0.8608   -1.7293    2.9556 H.spc      1 <1>        0.000
     25 H           1.7568   -2.5088   -3.5010 H.spc      1 <1>        0.000
     26 H           2.4478   -1.6055   -0.1388 H.spc      1 <1>        0.000
     27 H           5.0771   -1.8330   -1.0396 H.spc      1 <1>        0.000
     28 H           2.8423   -1.3418   -5.3715 H.spc      1 <1>        0.000
     29 H           6.3159   -0.8024   -2.9054 H.spc      1 <1>        0.000
     30 H           5.1257   -0.4167   -5.0516 H.spc      1 <1>        0.000
@<TRIPOS>BOND
     1    2    5 1  
     2    2    4 ar 
     3    3    6 ar 
     4   17   19 ar 
     5    4    7 ar 
     6    6    7 ar 
     7    9   11 2  
     8   10   12 1  
     9   16   18 ar 
    10   12   15 2  
    11    9   10 am 
    12   13   16 ar 
    13    7    9 1  
    14   12   14 2  
    15   12   13 1  
    16   18   19 ar 
    17    8   17 ar 
    18   13    8 ar 
    19    1    3 ar 
    20    1    2 ar 
    21    1   20 1  
    22    3   21 1  
    23    4   22 1  
    24    5   23 1  
    25    6   24 1  
    26    8   25 1  
    27   10   26 1  
    28   16   27 1  
    29   17   28 1  
    30   18   29 1  
    31   19   30 1  
# Name:          frag5-677-62/138278 -- energy: -5.033331
# Creation time: Sat Jun  5 12:51:55 2010


@<TRIPOS>MOLECULE
frag5-677-62/138278 -- energy: -5.033331
   30    31     1     1     1
SMALL
USER_CHARGES


@<TRIPOS>ATOM
      1 C9         -0.1058    0.9216   -0.0781 C.ar       1 <1>        0.000
      2 C12        -0.7896   -0.2261   -0.4789 C.ar       1 <1>        0.000
      3 C13         1.0809    0.9577    0.6637 C.ar       1 <1>        0.000
      4 C15        -0.0666   -1.3837   -0.1340 C.ar       1 <1>        0.000
      5 O1         -1.9468   -0.2083   -1.1383 O.3        1 <1>        0.000
      6 C16         1.6656   -0.2346    1.0300 C.ar       1 <1>        0.000
      7 C17         1.0576   -1.4312    0.7194 C.ar       1 <1>        0.000
      8 C26         1.8740   -2.0061   -2.6790 C.ar       1 <1>        0.000
      9 C20         1.6824   -2.6572    1.2738 C.2        1 <1>        0.000
     10 N3          2.5147   -3.4128    0.5122 N.am       1 <1>        0.000
     11 O4          1.4050   -3.0427    2.4001 O.2        1 <1>        0.000
     12 S1          2.4558   -3.9960   -0.9443 S.o2       1 <1>        0.000
     13 C25         2.8193   -2.5921   -1.8406 C.ar       1 <1>        0.000
     14 O5          3.5429   -4.9369   -1.0402 O.2        1 <1>        0.000
     15 O6          1.0803   -4.3521   -1.1604 O.2        1 <1>        0.000
     16 C27         3.9228   -1.7347   -1.6469 C.ar       1 <1>        0.000
     17 C28         2.0857   -0.9111   -3.4885 C.ar       1 <1>        0.000
     18 C30         4.2293   -0.6546   -2.4708 C.ar       1 <1>        0.000
     19 C31         3.2837   -0.2400   -3.3886 C.ar       1 <1>        0.000
     20 H          -0.5355    1.8799   -0.3697 H.spc      1 <1>        0.000
     21 H           1.5326    1.9089    0.9454 H.spc      1 <1>        0.000
     22 H          -0.4044   -2.3268   -0.5636 H.spc      1 <1>        0.000
     23 H          -2.2361    0.7002   -1.2502 H.spc      1 <1>        0.000
     24 H           2.6136   -0.2313    1.5680 H.spc      1 <1>        0.000
     25 H           0.8798   -2.4526   -2.6964 H.spc      1 <1>        0.000
     26 H           3.3771   -3.6581    0.9985 H.spc      1 <1>        0.000
     27 H           4.5776   -1.9302   -0.7977 H.spc      1 <1>        0.000
     28 H           1.3211   -0.5833   -4.1928 H.spc      1 <1>        0.000
     29 H           5.1917   -0.1487   -2.3934 H.spc      1 <1>        0.000
     30 H           3.4855    0.6163   -4.0321 H.spc      1 <1>        0.000
@<TRIPOS>BOND
     1    2    5 1  
     2    2    4 ar 
     3    3    6 ar 
     4   17   19 ar 
     5    4    7 ar 
     6    6    7 ar 
     7    9   11 2  
     8   10   12 1  
     9   16   18 ar 
    10   12   15 2  
    11    9   10 am 
    12   13   16 ar 
    13    7    9 1  
    14   12   14 2  
    15   12   13 1  
    16   18   19 ar 
    17    8   17 ar 
    18   13    8 ar 
    19    1    3 ar 
    20    1    2 ar 
    21    1   20 1  
    22    3   21 1  
    23    4   22 1  
    24    5   23 1  
    25    6   24 1  
    26    8   25 1  
    27   10   26 1  
    28   16   27 1  
    29   17   28 1  
    30   18   29 1  
    31   19   30 1  
# Name:          frag5-677-62/138278 -- energy: -1.399768
# Creation time: Sat Jun  5 12:51:55 2010


@<TRIPOS>MOLECULE
frag5-677-62/138278 -- energy: -1.399768
   30    31     1     1     1
SMALL
USER_CHARGES


@<TRIPOS>ATOM
      1 C9         -1.2872    0.4322    0.5015 C.ar       1 <1>        0.000
      2 C12        -1.4347   -0.7880   -0.1238 C.ar       1 <1>        0.000
      3 C13        -0.1610    0.8723    1.2067 C.ar       1 <1>        0.000
      4 C15        -0.2401   -1.4955   -0.0313 C.ar       1 <1>        0.000
      5 O1         -2.5272   -1.2268   -0.7353 O.3        1 <1>        0.000
      6 C16         0.9446    0.0583    1.2881 C.ar       1 <1>        0.000
      7 C17         0.9247   -1.1887    0.7201 C.ar       1 <1>        0.000
      8 C26         2.4208   -1.5029   -2.5923 C.ar       1 <1>        0.000
      9 C20         2.0961   -2.0660    0.9675 C.2        1 <1>        0.000
     10 N3          2.1640   -3.2939    0.3623 N.am       1 <1>        0.000
     11 O4          3.0529   -1.6630    1.6172 O.2        1 <1>        0.000
     12 S1          2.1239   -3.8420   -1.1443 S.o2       1 <1>        0.000
     13 C25         3.0111   -2.6003   -1.9429 C.ar       1 <1>        0.000
     14 O5          2.8675   -5.0678   -1.1433 O.2        1 <1>        0.000
     15 O6          0.7682   -3.7981   -1.6353 O.2        1 <1>        0.000
     16 C27         4.3947   -2.3771   -1.8351 C.ar       1 <1>        0.000
     17 C28         3.0810   -0.5461   -3.3634 C.ar       1 <1>        0.000
     18 C30         5.1351   -1.4905   -2.6250 C.ar       1 <1>        0.000
     19 C31         4.4569   -0.5570   -3.3805 C.ar       1 <1>        0.000
     20 H          -2.1297    1.1211    0.4407 H.spc      1 <1>        0.000
     21 H          -0.1602    1.8509    1.6868 H.spc      1 <1>        0.000
     22 H          -0.1919   -2.4132   -0.6175 H.spc      1 <1>        0.000
     23 H          -3.2189   -0.5647   -0.6664 H.spc      1 <1>        0.000
     24 H           1.8388    0.4058    1.8056 H.spc      1 <1>        0.000
     25 H           1.3424   -1.3881   -2.4829 H.spc      1 <1>        0.000
     26 H           2.2656   -4.0488    1.0407 H.spc      1 <1>        0.000
     27 H           4.9349   -2.9405   -1.0743 H.spc      1 <1>        0.000
     28 H           2.5210    0.1917   -3.9380 H.spc      1 <1>        0.000
     29 H           6.2240   -1.5367   -2.6428 H.spc      1 <1>        0.000
     30 H           5.0055    0.1651   -3.9853 H.spc      1 <1>        0.000
@<TRIPOS>BOND
     1    2    5 1  
     2    2    4 ar 
     3    3    6 ar 
     4   17   19 ar 
     5    4    7 ar 
     6    6    7 ar 
     7    9   11 2  
     8   10   12 1  
     9   16   18 ar 
    10   12   15 2  
    11    9   10 am 
    12   13   16 ar 
    13    7    9 1  
    14   12   14 2  
    15   12   13 1  
    16   18   19 ar 
    17    8   17 ar 
    18   13    8 ar 
    19    1    3 ar 
    20    1    2 ar 
    21    1   20 1  
    22    3   21 1  
    23    4   22 1  
    24    5   23 1  
    25    6   24 1  
    26    8   25 1  
    27   10   26 1  
    28   16   27 1  
    29   17   28 1  
    30   18   29 1  
    31   19   30 1  
