#      Rotatable Fragment
#      Build by yxyuan
#
# Name:          frag5-682-23/41815
# Creation time: Sat Jun  5 12:53:04 2010


@<TRIPOS>MOLECULE
frag5-682-23/41815
   18    18     1     1     1
SMALL
USER_CHARGES


@<TRIPOS>ATOM
      1 N1         -2.6237    0.8982    1.0412 N.pl3      1 <1>        0.000
      2 C1         -2.0246    0.2245    0.0312 C.2        1 <1>        0.000
      3 N2         -2.6372   -0.3774   -0.8992 N.2        1 <1>        0.000
      4 C2         -0.5402    0.1618    0.0272 C.ar       1 <1>        0.000
      5 C3          0.2290    1.2930    0.2010 C.ar       1 <1>        0.000
      6 C4          1.6365    1.2036    0.2208 C.ar       1 <1>        0.000
      7 C5          2.4040    0.0574    0.0095 C.ar       1 <1>        0.000
      8 C6          1.5596   -1.0516   -0.0109 C.ar       1 <1>        0.000
      9 C7          0.1415   -1.0397   -0.0068 C.ar       1 <1>        0.000
     10 O1          3.7377    0.0115   -0.0549 O.3        1 <1>        0.000
     11 H          -3.6414    0.9461    1.0892 H.spc      1 <1>        0.000
     12 H          -2.0573    1.3579    1.7542 H.spc      1 <1>        0.000
     13 H          -2.1114   -0.8802   -1.6142 H.spc      1 <1>        0.000
     14 H          -0.2538    2.2625    0.3239 H.spc      1 <1>        0.000
     15 H           2.1815    2.1258    0.4221 H.spc      1 <1>        0.000
     16 H           2.0394   -2.0301   -0.0322 H.spc      1 <1>        0.000
     17 H          -0.4111   -1.9789   -0.0305 H.spc      1 <1>        0.000
     18 H           4.0894    0.9042   -0.0232 H.spc      1 <1>        0.000
@<TRIPOS>BOND
     1    7    8 ar 
     2    8    9 ar 
     3    6    7 ar 
     4    7   10 1  
     5    1    2 1  
     6    2    3 2  
     7    2    4 1  
     8    4    5 ar 
     9    4    9 ar 
    10    5    6 ar 
    11    1   11 1  
    12    1   12 1  
    13    3   13 1  
    14    5   14 1  
    15    6   15 1  
    16    8   16 1  
    17    9   17 1  
    18   10   18 1  
# Name:          frag5-682-23/41815
# Creation time: Sat Jun  5 12:53:04 2010


@<TRIPOS>MOLECULE
frag5-682-23/41815
   18    18     1     1     1
SMALL
USER_CHARGES


@<TRIPOS>ATOM
      1 N1         -2.6614    1.4216    0.1250 N.pl3      1 <1>        0.000
      2 C1         -2.0233    0.2308    0.0525 C.2        1 <1>        0.000
      3 N2         -2.6126   -0.8917    0.0411 N.2        1 <1>        0.000
      4 C2         -0.5332    0.1898    0.0135 C.ar       1 <1>        0.000
      5 C3          0.2377    1.1397    0.6583 C.ar       1 <1>        0.000
      6 C4          1.6431    1.0314    0.6662 C.ar       1 <1>        0.000
      7 C5          2.4029    0.0593    0.0147 C.ar       1 <1>        0.000
      8 C6          1.5550   -0.9367   -0.4763 C.ar       1 <1>        0.000
      9 C7          0.1457   -0.9112   -0.4814 C.ar       1 <1>        0.000
     10 O1          3.7288    0.0484   -0.0545 O.3        1 <1>        0.000
     11 H          -3.6797    1.4523    0.1748 H.spc      1 <1>        0.000
     12 H          -2.1242    2.2886    0.1299 H.spc      1 <1>        0.000
     13 H          -2.0679   -1.7534    0.0069 H.spc      1 <1>        0.000
     14 H          -0.2442    1.9769    1.1633 H.spc      1 <1>        0.000
     15 H           2.1903    1.7811    1.2377 H.spc      1 <1>        0.000
     16 H           2.0310   -1.8221   -0.8976 H.spc      1 <1>        0.000
     17 H          -0.4116   -1.7607   -0.8761 H.spc      1 <1>        0.000
     18 H           4.0760    0.8448    0.3539 H.spc      1 <1>        0.000
@<TRIPOS>BOND
     1    7    8 ar 
     2    8    9 ar 
     3    6    7 ar 
     4    7   10 1  
     5    1    2 1  
     6    2    3 2  
     7    2    4 1  
     8    4    5 ar 
     9    4    9 ar 
    10    5    6 ar 
    11    1   11 1  
    12    1   12 1  
    13    3   13 1  
    14    5   14 1  
    15    6   15 1  
    16    8   16 1  
    17    9   17 1  
    18   10   18 1  
# Name:          frag5-682-23/41815 -- energy: -0.796218
# Creation time: Sat Jun  5 12:53:04 2010


@<TRIPOS>MOLECULE
frag5-682-23/41815 -- energy: -0.796218
   18    18     1     1     1
SMALL
USER_CHARGES


@<TRIPOS>ATOM
      1 N1         -2.6237    0.8982    1.0412 N.pl3      1 <1>        0.000
      2 C1         -2.0246    0.2245    0.0312 C.2        1 <1>        0.000
      3 N2         -2.6372   -0.3774   -0.8992 N.2        1 <1>        0.000
      4 C2         -0.5402    0.1618    0.0272 C.ar       1 <1>        0.000
      5 C3          0.2290    1.2930    0.2010 C.ar       1 <1>        0.000
      6 C4          1.6365    1.2036    0.2208 C.ar       1 <1>        0.000
      7 C5          2.4040    0.0574    0.0095 C.ar       1 <1>        0.000
      8 C6          1.5596   -1.0516   -0.0109 C.ar       1 <1>        0.000
      9 C7          0.1415   -1.0397   -0.0068 C.ar       1 <1>        0.000
     10 O1          3.7377    0.0115   -0.0549 O.3        1 <1>        0.000
     11 H          -3.6414    0.9461    1.0892 H.spc      1 <1>        0.000
     12 H          -2.0573    1.3579    1.7542 H.spc      1 <1>        0.000
     13 H          -2.1114   -0.8802   -1.6142 H.spc      1 <1>        0.000
     14 H          -0.2538    2.2625    0.3239 H.spc      1 <1>        0.000
     15 H           2.1815    2.1258    0.4221 H.spc      1 <1>        0.000
     16 H           2.0394   -2.0301   -0.0322 H.spc      1 <1>        0.000
     17 H          -0.4111   -1.9789   -0.0305 H.spc      1 <1>        0.000
     18 H           4.0894    0.9042   -0.0232 H.spc      1 <1>        0.000
@<TRIPOS>BOND
     1    7    8 ar 
     2    8    9 ar 
     3    6    7 ar 
     4    7   10 1  
     5    1    2 1  
     6    2    3 2  
     7    2    4 1  
     8    4    5 ar 
     9    4    9 ar 
    10    5    6 ar 
    11    1   11 1  
    12    1   12 1  
    13    3   13 1  
    14    5   14 1  
    15    6   15 1  
    16    8   16 1  
    17    9   17 1  
    18   10   18 1  
# Name:          frag5-682-23/41815 -- energy: 0.114399
# Creation time: Sat Jun  5 12:53:04 2010


@<TRIPOS>MOLECULE
frag5-682-23/41815 -- energy: 0.114399
   18    18     1     1     1
SMALL
USER_CHARGES


@<TRIPOS>ATOM
      1 N1         -2.6614    1.4216    0.1250 N.pl3      1 <1>        0.000
      2 C1         -2.0233    0.2308    0.0525 C.2        1 <1>        0.000
      3 N2         -2.6126   -0.8917    0.0411 N.2        1 <1>        0.000
      4 C2         -0.5332    0.1898    0.0135 C.ar       1 <1>        0.000
      5 C3          0.2377    1.1397    0.6583 C.ar       1 <1>        0.000
      6 C4          1.6431    1.0314    0.6662 C.ar       1 <1>        0.000
      7 C5          2.4029    0.0593    0.0147 C.ar       1 <1>        0.000
      8 C6          1.5550   -0.9367   -0.4763 C.ar       1 <1>        0.000
      9 C7          0.1457   -0.9112   -0.4814 C.ar       1 <1>        0.000
     10 O1          3.7288    0.0484   -0.0545 O.3        1 <1>        0.000
     11 H          -3.6797    1.4523    0.1748 H.spc      1 <1>        0.000
     12 H          -2.1242    2.2886    0.1299 H.spc      1 <1>        0.000
     13 H          -2.0679   -1.7534    0.0069 H.spc      1 <1>        0.000
     14 H          -0.2442    1.9769    1.1633 H.spc      1 <1>        0.000
     15 H           2.1903    1.7811    1.2377 H.spc      1 <1>        0.000
     16 H           2.0310   -1.8221   -0.8976 H.spc      1 <1>        0.000
     17 H          -0.4116   -1.7607   -0.8761 H.spc      1 <1>        0.000
     18 H           4.0760    0.8448    0.3539 H.spc      1 <1>        0.000
@<TRIPOS>BOND
     1    7    8 ar 
     2    8    9 ar 
     3    6    7 ar 
     4    7   10 1  
     5    1    2 1  
     6    2    3 2  
     7    2    4 1  
     8    4    5 ar 
     9    4    9 ar 
    10    5    6 ar 
    11    1   11 1  
    12    1   12 1  
    13    3   13 1  
    14    5   14 1  
    15    6   15 1  
    16    8   16 1  
    17    9   17 1  
    18   10   18 1  
