#      Rotatable Fragment
#      Build by yxyuan
#
# Name:          frag4-337-515/150395
# Creation time: Sat Jun  5 12:53:31 2010


@<TRIPOS>MOLECULE
frag4-337-515/150395
   26    28     1     1     1
SMALL
USER_CHARGES


@<TRIPOS>ATOM
      1 C1         -1.9132    0.1936   -0.1497 C.3        1 <1>        0.000
      2 C2         -3.2280    0.4221    0.6331 C.3        1 <1>        0.000
      3 C3         -0.7500    0.8980    0.5884 C.3        1 <1>        0.000
      4 C4         -2.0537    0.7908   -1.5701 C.3        1 <1>        0.000
      5 C6         -3.5218    1.9377    0.7348 C.3        1 <1>        0.000
      6 C7         -1.0353    2.4152    0.6904 C.3        1 <1>        0.000
      7 C8         -2.3429    2.3078   -1.4754 C.3        1 <1>        0.000
      8 C9         -2.3534    2.6365    1.4699 C.3        1 <1>        0.000
      9 C10        -3.6564    2.5295   -0.6885 C.3        1 <1>        0.000
     10 C11        -1.1780    3.0047   -0.7329 C.3        1 <1>        0.000
     11 H          -1.7092   -0.8748   -0.2199 H.spc      1 <1>        0.000
     12 H          -3.1269    0.0068    1.6358 H.spc      1 <1>        0.000
     13 H          -4.0484   -0.0694    0.1102 H.spc      1 <1>        0.000
     14 H           0.1753    0.7421    0.0338 H.spc      1 <1>        0.000
     15 H          -0.6549    0.4813    1.5911 H.spc      1 <1>        0.000
     16 H          -1.1255    0.6348   -2.1198 H.spc      1 <1>        0.000
     17 H          -2.8772    0.2988   -2.0878 H.spc      1 <1>        0.000
     18 H          -4.4488    2.0949    1.2863 H.spc      1 <1>        0.000
     19 H          -0.2146    2.9084    1.2112 H.spc      1 <1>        0.000
     20 H          -2.4410    2.7257   -2.4773 H.spc      1 <1>        0.000
     21 H          -2.5574    3.7052    1.5361 H.spc      1 <1>        0.000
     22 H          -2.2548    2.2160    2.4707 H.spc      1 <1>        0.000
     23 H          -3.8571    3.5984   -0.6166 H.spc      1 <1>        0.000
     24 H          -4.4759    2.0336   -1.2087 H.spc      1 <1>        0.000
     25 H          -1.3842    4.0726   -0.6613 H.spc      1 <1>        0.000
     26 H          -0.2517    2.8430   -1.2841 H.spc      1 <1>        0.000
@<TRIPOS>BOND
     1    7   10 1  
     2    4    7 1  
     3    1    2 1  
     4    1    3 1  
     5    1    4 1  
     6    6    8 1  
     7    5    8 1  
     8    6   10 1  
     9    5    9 1  
    10    2    5 1  
    11    3    6 1  
    12    7    9 1  
    13    1   11 1  
    14    2   12 1  
    15    2   13 1  
    16    3   14 1  
    17    3   15 1  
    18    4   16 1  
    19    4   17 1  
    20    5   18 1  
    21    6   19 1  
    22    7   20 1  
    23    8   21 1  
    24    8   22 1  
    25    9   23 1  
    26    9   24 1  
    27   10   25 1  
    28   10   26 1  
# Name:          frag4-337-515/150395 -- energy: -3.614998
# Creation time: Sat Jun  5 12:53:31 2010


@<TRIPOS>MOLECULE
frag4-337-515/150395 -- energy: -3.614998
   26    28     1     1     1
SMALL
USER_CHARGES


@<TRIPOS>ATOM
      1 C1         -1.9132    0.1936   -0.1497 C.3        1 <1>        0.000
      2 C2         -3.2280    0.4221    0.6331 C.3        1 <1>        0.000
      3 C3         -0.7500    0.8980    0.5884 C.3        1 <1>        0.000
      4 C4         -2.0537    0.7908   -1.5701 C.3        1 <1>        0.000
      5 C6         -3.5218    1.9377    0.7348 C.3        1 <1>        0.000
      6 C7         -1.0353    2.4152    0.6904 C.3        1 <1>        0.000
      7 C8         -2.3429    2.3078   -1.4754 C.3        1 <1>        0.000
      8 C9         -2.3534    2.6365    1.4699 C.3        1 <1>        0.000
      9 C10        -3.6564    2.5295   -0.6885 C.3        1 <1>        0.000
     10 C11        -1.1780    3.0047   -0.7329 C.3        1 <1>        0.000
     11 H          -1.7092   -0.8748   -0.2199 H.spc      1 <1>        0.000
     12 H          -3.1269    0.0068    1.6358 H.spc      1 <1>        0.000
     13 H          -4.0484   -0.0694    0.1102 H.spc      1 <1>        0.000
     14 H           0.1753    0.7421    0.0338 H.spc      1 <1>        0.000
     15 H          -0.6549    0.4813    1.5911 H.spc      1 <1>        0.000
     16 H          -1.1255    0.6348   -2.1198 H.spc      1 <1>        0.000
     17 H          -2.8772    0.2988   -2.0878 H.spc      1 <1>        0.000
     18 H          -4.4488    2.0949    1.2863 H.spc      1 <1>        0.000
     19 H          -0.2146    2.9084    1.2112 H.spc      1 <1>        0.000
     20 H          -2.4410    2.7257   -2.4773 H.spc      1 <1>        0.000
     21 H          -2.5574    3.7052    1.5361 H.spc      1 <1>        0.000
     22 H          -2.2548    2.2160    2.4707 H.spc      1 <1>        0.000
     23 H          -3.8571    3.5984   -0.6166 H.spc      1 <1>        0.000
     24 H          -4.4759    2.0336   -1.2087 H.spc      1 <1>        0.000
     25 H          -1.3842    4.0726   -0.6613 H.spc      1 <1>        0.000
     26 H          -0.2517    2.8430   -1.2841 H.spc      1 <1>        0.000
@<TRIPOS>BOND
     1    7   10 1  
     2    4    7 1  
     3    1    2 1  
     4    1    3 1  
     5    1    4 1  
     6    6    8 1  
     7    5    8 1  
     8    6   10 1  
     9    5    9 1  
    10    2    5 1  
    11    3    6 1  
    12    7    9 1  
    13    1   11 1  
    14    2   12 1  
    15    2   13 1  
    16    3   14 1  
    17    3   15 1  
    18    4   16 1  
    19    4   17 1  
    20    5   18 1  
    21    6   19 1  
    22    7   20 1  
    23    8   21 1  
    24    8   22 1  
    25    9   23 1  
    26    9   24 1  
    27   10   25 1  
    28   10   26 1  
