#      Rotatable Fragment
#      Build by yxyuan
#
# Name:          frag3-166-15/96164
# Creation time: Sat Jun  5 12:53:07 2010


@<TRIPOS>MOLECULE
frag3-166-15/96164
    8     7     1     1     1
SMALL
USER_CHARGES


@<TRIPOS>ATOM
      1 P1         -2.3146    0.6880    0.3202 P.3        1 <1>        0.000
      2 O1         -1.0687   -0.1553   -0.0850 O.3        1 <1>        0.000
      3 O2         -2.2523    0.7132    1.7626 O.2        1 <1>        0.000
      4 O3         -2.0985    2.1249   -0.1800 O.3        1 <1>        0.000
      5 S1         -3.9564   -0.2156   -0.3037 S.3        1 <1>        0.000
      6 H          -1.0287   -0.2258   -1.0416 H.spc      1 <1>        0.000
      7 H          -2.1351    2.1375   -1.1392 H.spc      1 <1>        0.000
      8 H          -3.9800   -0.2201   -1.6335 H.spc      1 <1>        0.000
@<TRIPOS>BOND
     1    1    2 1  
     2    1    3 2  
     3    1    4 1  
     4    1    5 1  
     5    2    6 1  
     6    4    7 1  
     7    5    8 1  
# Name:          frag3-166-15/96164 -- energy: -0.340093
# Creation time: Sat Jun  5 12:53:07 2010


@<TRIPOS>MOLECULE
frag3-166-15/96164 -- energy: -0.340093
    8     7     1     1     1
SMALL
USER_CHARGES


@<TRIPOS>ATOM
      1 P1         -2.3146    0.6880    0.3202 P.3        1 <1>        0.000
      2 O1         -1.0687   -0.1553   -0.0850 O.3        1 <1>        0.000
      3 O2         -2.2523    0.7132    1.7626 O.2        1 <1>        0.000
      4 O3         -2.0985    2.1249   -0.1800 O.3        1 <1>        0.000
      5 S1         -3.9564   -0.2156   -0.3037 S.3        1 <1>        0.000
      6 H          -1.0287   -0.2258   -1.0416 H.spc      1 <1>        0.000
      7 H          -2.1351    2.1375   -1.1392 H.spc      1 <1>        0.000
      8 H          -3.9800   -0.2201   -1.6335 H.spc      1 <1>        0.000
@<TRIPOS>BOND
     1    1    2 1  
     2    1    3 2  
     3    1    4 1  
     4    1    5 1  
     5    2    6 1  
     6    4    7 1  
     7    5    8 1  
