#      Rotatable Fragment
#      Build by yxyuan
#
# Name:          frag5-492-1982/138278
# Creation time: Sat Jun  5 12:53:39 2010


@<TRIPOS>MOLECULE
frag5-492-1982/138278
   12    12     1     1     1
SMALL
USER_CHARGES


@<TRIPOS>ATOM
      1 C5          1.4041   -0.0391    0.0219 C.ar       1 <1>        0.000
      2 C8          0.7239    1.1742    0.0744 C.ar       1 <1>        0.000
      3 C9          0.6913   -1.2328   -0.0513 C.ar       1 <1>        0.000
      4 C12        -0.6740    1.2031    0.0505 C.ar       1 <1>        0.000
      5 C13        -0.7033   -1.2151   -0.0781 C.ar       1 <1>        0.000
      6 C14        -1.3831   -0.0011   -0.0238 C.ar       1 <1>        0.000
      7 F1         -1.3287    2.3809    0.0996 F          1 <1>        0.000
      8 H           2.4939   -0.0546    0.0381 H.spc      1 <1>        0.000
      9 H           1.2842    2.1073    0.1345 H.spc      1 <1>        0.000
     10 H           1.2240   -2.1831   -0.0877 H.spc      1 <1>        0.000
     11 H          -1.2600   -2.1501   -0.1414 H.spc      1 <1>        0.000
     12 H          -2.4729    0.0114   -0.0392 H.spc      1 <1>        0.000
@<TRIPOS>BOND
     1    1    2 ar 
     2    1    3 ar 
     3    2    4 ar 
     4    3    5 ar 
     5    4    6 ar 
     6    4    7 1  
     7    5    6 ar 
     8    1    8 1  
     9    2    9 1  
    10    3   10 1  
    11    5   11 1  
    12    6   12 1  
# Name:          frag5-492-1982/138278 -- energy: 0.071675
# Creation time: Sat Jun  5 12:53:39 2010


@<TRIPOS>MOLECULE
frag5-492-1982/138278 -- energy: 0.071675
   12    12     1     1     1
SMALL
USER_CHARGES


@<TRIPOS>ATOM
      1 C5          1.4041   -0.0391    0.0219 C.ar       1 <1>        0.000
      2 C8          0.7239    1.1742    0.0744 C.ar       1 <1>        0.000
      3 C9          0.6913   -1.2328   -0.0513 C.ar       1 <1>        0.000
      4 C12        -0.6740    1.2031    0.0505 C.ar       1 <1>        0.000
      5 C13        -0.7033   -1.2151   -0.0781 C.ar       1 <1>        0.000
      6 C14        -1.3831   -0.0011   -0.0238 C.ar       1 <1>        0.000
      7 F1         -1.3287    2.3809    0.0996 F          1 <1>        0.000
      8 H           2.4939   -0.0546    0.0381 H.spc      1 <1>        0.000
      9 H           1.2842    2.1073    0.1345 H.spc      1 <1>        0.000
     10 H           1.2240   -2.1831   -0.0877 H.spc      1 <1>        0.000
     11 H          -1.2600   -2.1501   -0.1414 H.spc      1 <1>        0.000
     12 H          -2.4729    0.0114   -0.0392 H.spc      1 <1>        0.000
@<TRIPOS>BOND
     1    1    2 ar 
     2    1    3 ar 
     3    2    4 ar 
     4    3    5 ar 
     5    4    6 ar 
     6    4    7 1  
     7    5    6 ar 
     8    1    8 1  
     9    2    9 1  
    10    3   10 1  
    11    5   11 1  
    12    6   12 1  
