#      Rotatable Fragment
#      Build by yxyuan
#
# Name:          frag5-558-156/138278
# Creation time: Sat Jun  5 12:53:43 2010


@<TRIPOS>MOLECULE
frag5-558-156/138278
   11    11     1     1     1
SMALL
USER_CHARGES


@<TRIPOS>ATOM
      1 C3         -1.4616    0.6992   -0.2378 C.3        1 <1>        0.000
      2 N2         -2.6109    1.5836   -0.2252 N.am       1 <1>        0.000
      3 C6         -0.3952    1.7144    0.0903 C.2        1 <1>        0.000
      4 C10        -2.2781    2.8552    0.0537 C.2        1 <1>        0.000
      5 N4         -0.9488    2.9300    0.2418 N.am       1 <1>        0.000
      6 O1          0.7870    1.4378    0.1947 O.2        1 <1>        0.000
      7 O3         -3.0560    3.7867    0.1239 O.2        1 <1>        0.000
      8 H          -1.3091    0.1491   -1.1664 H.spc      1 <1>        0.000
      9 H          -1.5208   -0.1490    0.4442 H.spc      1 <1>        0.000
     10 H          -3.5657    1.2747   -0.4078 H.spc      1 <1>        0.000
     11 H          -0.4363    3.7829    0.4662 H.spc      1 <1>        0.000
@<TRIPOS>BOND
     1    1    2 1  
     2    1    3 1  
     3    2    4 am 
     4    3    6 2  
     5    3    5 am 
     6    4    7 2  
     7    4    5 am 
     8    1    8 1  
     9    1    9 1  
    10    2   10 1  
    11    5   11 1  
# Name:          frag5-558-156/138278 -- energy: -0.645776
# Creation time: Sat Jun  5 12:53:43 2010


@<TRIPOS>MOLECULE
frag5-558-156/138278 -- energy: -0.645776
   11    11     1     1     1
SMALL
USER_CHARGES


@<TRIPOS>ATOM
      1 C3         -1.4616    0.6992   -0.2378 C.3        1 <1>        0.000
      2 N2         -2.6109    1.5836   -0.2252 N.am       1 <1>        0.000
      3 C6         -0.3952    1.7144    0.0903 C.2        1 <1>        0.000
      4 C10        -2.2781    2.8552    0.0537 C.2        1 <1>        0.000
      5 N4         -0.9488    2.9300    0.2418 N.am       1 <1>        0.000
      6 O1          0.7870    1.4378    0.1947 O.2        1 <1>        0.000
      7 O3         -3.0560    3.7867    0.1239 O.2        1 <1>        0.000
      8 H          -1.3091    0.1491   -1.1664 H.spc      1 <1>        0.000
      9 H          -1.5208   -0.1490    0.4442 H.spc      1 <1>        0.000
     10 H          -3.5657    1.2747   -0.4078 H.spc      1 <1>        0.000
     11 H          -0.4363    3.7829    0.4662 H.spc      1 <1>        0.000
@<TRIPOS>BOND
     1    1    2 1  
     2    1    3 1  
     3    2    4 am 
     4    3    6 2  
     5    3    5 am 
     6    4    7 2  
     7    4    5 am 
     8    1    8 1  
     9    1    9 1  
    10    2   10 1  
    11    5   11 1  
