#      Rotatable Fragment
#      Build by yxyuan
#
# Name:          frag3-254-3/31924
# Creation time: Sat Jun  5 12:52:39 2010


@<TRIPOS>MOLECULE
frag3-254-3/31924
   25    24     1     1     1
SMALL
USER_CHARGES


@<TRIPOS>ATOM
      1 C9         -5.2917    4.6459    2.8068 C.2        1 <1>        0.000
      2 C10        -4.0114    4.7763    3.1728 C.2        1 <1>        0.000
      3 C11        -2.8889    4.8299    2.2321 C.2        1 <1>        0.000
      4 C12        -1.6022    4.7752    2.6017 C.2        1 <1>        0.000
      5 C13        -0.4774    4.8222    1.6577 C.2        1 <1>        0.000
      6 C14         0.8096    4.8298    2.0305 C.2        1 <1>        0.000
      7 Cl2        -6.5731    4.5857    3.9855 Cl         1 <1>        0.000
      8 C16         1.9318    4.8657    1.0827 C.2        1 <1>        0.000
      9 C17         3.2056    4.6288    1.4244 C.2        1 <1>        0.000
     10 C18         4.3264    4.6529    0.4717 C.2        1 <1>        0.000
     11 C19         5.6130    4.6877    0.8484 C.2        1 <1>        0.000
     12 C20         6.7521    4.7055   -0.0858 C.2        1 <1>        0.000
     13 O5          7.8893    4.5620    0.3430 O.2        1 <1>        0.000
     14 O6          6.5260    4.8825   -1.3907 O.3        1 <1>        0.000
     15 H          -5.5385    4.5758    1.7474 H.spc      1 <1>        0.000
     16 H          -3.7893    4.8471    4.2376 H.spc      1 <1>        0.000
     17 H          -3.1140    4.9195    1.1694 H.spc      1 <1>        0.000
     18 H          -1.3768    4.6909    3.6648 H.spc      1 <1>        0.000
     19 H          -0.7030    4.8527    0.5917 H.spc      1 <1>        0.000
     20 H           1.0367    4.8081    3.0964 H.spc      1 <1>        0.000
     21 H           1.7153    5.0988    0.0402 H.spc      1 <1>        0.000
     22 H           3.4240    4.4053    2.4686 H.spc      1 <1>        0.000
     23 H           4.0996    4.6419   -0.5944 H.spc      1 <1>        0.000
     24 H           5.8304    4.7039    1.9164 H.spc      1 <1>        0.000
     25 H           5.5825    4.9765   -1.5410 H.spc      1 <1>        0.000
@<TRIPOS>BOND
     1    6    8 1  
     2   12   13 2  
     3    1    7 1  
     4    2    3 1  
     5    8    9 2  
     6    1    2 2  
     7   10   11 2  
     8    4    5 1  
     9    9   10 1  
    10    3    4 2  
    11   11   12 1  
    12   12   14 1  
    13    5    6 2  
    14    1   15 1  
    15    2   16 1  
    16    3   17 1  
    17    4   18 1  
    18    5   19 1  
    19    6   20 1  
    20    8   21 1  
    21    9   22 1  
    22   10   23 1  
    23   11   24 1  
    24   14   25 1  
# Name:          frag3-254-3/31924
# Creation time: Sat Jun  5 12:52:39 2010


@<TRIPOS>MOLECULE
frag3-254-3/31924
   25    24     1     1     1
SMALL
USER_CHARGES


@<TRIPOS>ATOM
      1 C9         -5.0239    4.5083    3.7754 C.2        1 <1>        0.000
      2 C10        -4.1105    4.7976    2.8415 C.2        1 <1>        0.000
      3 C11        -2.7013    4.4127    2.9172 C.2        1 <1>        0.000
      4 C12        -1.7563    4.8578    2.0781 C.2        1 <1>        0.000
      5 C13        -0.3419    4.4766    2.1591 C.2        1 <1>        0.000
      6 C14         0.5920    4.8723    1.2835 C.2        1 <1>        0.000
      7 Cl2        -6.6838    5.0049    3.6162 Cl         1 <1>        0.000
      8 C16         2.0076    4.4977    1.3746 C.2        1 <1>        0.000
      9 C17         2.9835    5.0751    0.6604 C.2        1 <1>        0.000
     10 C18         4.4024    4.7072    0.7622 C.2        1 <1>        0.000
     11 C19         5.3294    5.0841   -0.1331 C.2        1 <1>        0.000
     12 C20         6.7567    4.7315   -0.0470 C.2        1 <1>        0.000
     13 O5          7.1519    4.0055    0.8534 O.2        1 <1>        0.000
     14 O6          7.6034    5.2187   -0.9606 O.3        1 <1>        0.000
     15 H          -4.7202    3.9469    4.6590 H.spc      1 <1>        0.000
     16 H          -4.4384    5.3575    1.9657 H.spc      1 <1>        0.000
     17 H          -2.4016    3.7212    3.7047 H.spc      1 <1>        0.000
     18 H          -2.0567    5.5450    1.2871 H.spc      1 <1>        0.000
     19 H          -0.0319    3.8322    2.9817 H.spc      1 <1>        0.000
     20 H           0.2820    5.5096    0.4553 H.spc      1 <1>        0.000
     21 H           2.2824    3.7008    2.0656 H.spc      1 <1>        0.000
     22 H           2.7081    5.8653   -0.0381 H.spc      1 <1>        0.000
     23 H           4.7188    4.0969    1.6081 H.spc      1 <1>        0.000
     24 H           5.0044    5.6904   -0.9786 H.spc      1 <1>        0.000
     25 H           7.1195    5.7641   -1.5850 H.spc      1 <1>        0.000
@<TRIPOS>BOND
     1    6    8 1  
     2   12   13 2  
     3    1    7 1  
     4    2    3 1  
     5    8    9 2  
     6    1    2 2  
     7   10   11 2  
     8    4    5 1  
     9    9   10 1  
    10    3    4 2  
    11   11   12 1  
    12   12   14 1  
    13    5    6 2  
    14    1   15 1  
    15    2   16 1  
    16    3   17 1  
    17    4   18 1  
    18    5   19 1  
    19    6   20 1  
    20    8   21 1  
    21    9   22 1  
    22   10   23 1  
    23   11   24 1  
    24   14   25 1  
# Name:          frag3-254-3/31924
# Creation time: Sat Jun  5 12:52:39 2010


@<TRIPOS>MOLECULE
frag3-254-3/31924
   25    24     1     1     1
SMALL
USER_CHARGES


@<TRIPOS>ATOM
      1 C9         -4.0028    3.9607    3.9907 C.2        1 <1>        0.000
      2 C10        -3.7655    4.5473    2.8117 C.2        1 <1>        0.000
      3 C11        -2.4474    4.6189    2.1784 C.2        1 <1>        0.000
      4 C12        -2.0831    5.5803    1.3172 C.2        1 <1>        0.000
      5 C13        -0.7562    5.6544    0.6927 C.2        1 <1>        0.000
      6 C14         0.3914    5.4676    1.3631 C.2        1 <1>        0.000
      7 Cl2        -5.5998    3.9198    4.6835 Cl         1 <1>        0.000
      8 C16         1.7182    5.5267    0.7376 C.2        1 <1>        0.000
      9 C17         2.7945    4.8792    1.2048 C.2        1 <1>        0.000
     10 C18         4.1196    4.9280    0.5692 C.2        1 <1>        0.000
     11 C19         5.1830    4.2513    1.0276 C.2        1 <1>        0.000
     12 C20         6.5176    4.2786    0.4042 C.2        1 <1>        0.000
     13 O5          7.4529    3.7095    0.9509 O.2        1 <1>        0.000
     14 O6          6.6870    4.9277   -0.7510 O.3        1 <1>        0.000
     15 H          -3.1768    3.4974    4.5303 H.spc      1 <1>        0.000
     16 H          -4.6076    5.0010    2.2892 H.spc      1 <1>        0.000
     17 H          -1.7191    3.8451    2.4212 H.spc      1 <1>        0.000
     18 H          -2.8131    6.3500    1.0667 H.spc      1 <1>        0.000
     19 H          -0.7002    5.8731   -0.3737 H.spc      1 <1>        0.000
     20 H           0.3351    5.2604    2.4317 H.spc      1 <1>        0.000
     21 H           1.8349    6.1334   -0.1604 H.spc      1 <1>        0.000
     22 H           2.6810    4.2813    2.1091 H.spc      1 <1>        0.000
     23 H           4.2440    5.5458   -0.3201 H.spc      1 <1>        0.000
     24 H           5.0510    3.6406    1.9207 H.spc      1 <1>        0.000
     25 H           5.8508    5.3094   -1.0279 H.spc      1 <1>        0.000
@<TRIPOS>BOND
     1    6    8 1  
     2   12   13 2  
     3    1    7 1  
     4    2    3 1  
     5    8    9 2  
     6    1    2 2  
     7   10   11 2  
     8    4    5 1  
     9    9   10 1  
    10    3    4 2  
    11   11   12 1  
    12   12   14 1  
    13    5    6 2  
    14    1   15 1  
    15    2   16 1  
    16    3   17 1  
    17    4   18 1  
    18    5   19 1  
    19    6   20 1  
    20    8   21 1  
    21    9   22 1  
    22   10   23 1  
    23   11   24 1  
    24   14   25 1  
# Name:          frag3-254-3/31924
# Creation time: Sat Jun  5 12:52:39 2010


@<TRIPOS>MOLECULE
frag3-254-3/31924
   25    24     1     1     1
SMALL
USER_CHARGES


@<TRIPOS>ATOM
      1 C9         -4.9746    5.4697    3.3497 C.2        1 <1>        0.000
      2 C10        -3.9647    4.6260    3.1086 C.2        1 <1>        0.000
      3 C11        -2.7820    4.9644    2.3127 C.2        1 <1>        0.000
      4 C12        -1.7782    4.1115    2.0668 C.2        1 <1>        0.000
      5 C13        -0.5950    4.4508    1.2654 C.2        1 <1>        0.000
      6 C14         0.6636    4.1950    1.6487 C.2        1 <1>        0.000
      7 Cl2        -6.3515    4.9927    4.3039 Cl         1 <1>        0.000
      8 C16         1.8447    4.5294    0.8419 C.2        1 <1>        0.000
      9 C17         3.1053    4.4280    1.2848 C.2        1 <1>        0.000
     10 C18         4.2873    4.7521    0.4715 C.2        1 <1>        0.000
     11 C19         5.5456    4.6378    0.9215 C.2        1 <1>        0.000
     12 C20         6.7446    4.9495    0.1241 C.2        1 <1>        0.000
     13 O5          7.7743    5.2949    0.6881 O.2        1 <1>        0.000
     14 O6          6.6897    4.8484   -1.2070 O.3        1 <1>        0.000
     15 H          -4.9348    6.4788    2.9396 H.spc      1 <1>        0.000
     16 H          -4.0256    3.6231    3.5311 H.spc      1 <1>        0.000
     17 H          -2.7147    5.9694    1.8960 H.spc      1 <1>        0.000
     18 H          -1.8435    3.1074    2.4859 H.spc      1 <1>        0.000
     19 H          -0.7494    4.9389    0.3031 H.spc      1 <1>        0.000
     20 H           0.8195    3.7117    2.6132 H.spc      1 <1>        0.000
     21 H           1.6863    4.8809   -0.1776 H.spc      1 <1>        0.000
     22 H           3.2641    4.0854    2.3073 H.spc      1 <1>        0.000
     23 H           4.1327    5.1030   -0.5488 H.spc      1 <1>        0.000
     24 H           5.6907    4.2914    1.9448 H.spc      1 <1>        0.000
     25 H           5.8101    4.5673   -1.4694 H.spc      1 <1>        0.000
@<TRIPOS>BOND
     1    6    8 1  
     2   12   13 2  
     3    1    7 1  
     4    2    3 1  
     5    8    9 2  
     6    1    2 2  
     7   10   11 2  
     8    4    5 1  
     9    9   10 1  
    10    3    4 2  
    11   11   12 1  
    12   12   14 1  
    13    5    6 2  
    14    1   15 1  
    15    2   16 1  
    16    3   17 1  
    17    4   18 1  
    18    5   19 1  
    19    6   20 1  
    20    8   21 1  
    21    9   22 1  
    22   10   23 1  
    23   11   24 1  
    24   14   25 1  
# Name:          frag3-254-3/31924
# Creation time: Sat Jun  5 12:52:39 2010


@<TRIPOS>MOLECULE
frag3-254-3/31924
   25    24     1     1     1
SMALL
USER_CHARGES


@<TRIPOS>ATOM
      1 C9         -4.4279    5.5311    3.3502 C.2        1 <1>        0.000
      2 C10        -3.5300    4.5405    3.2956 C.2        1 <1>        0.000
      3 C11        -2.1940    4.6692    2.7145 C.2        1 <1>        0.000
      4 C12        -1.5002    3.6446    2.1969 C.2        1 <1>        0.000
      5 C13        -0.1649    3.7810    1.6050 C.2        1 <1>        0.000
      6 C14         0.1770    4.7682    0.7601 C.2        1 <1>        0.000
      7 Cl2        -6.0025    5.2997    4.0542 Cl         1 <1>        0.000
      8 C16         1.5173    4.9116    0.1813 C.2        1 <1>        0.000
      9 C17         2.6510    4.7780    0.8875 C.2        1 <1>        0.000
     10 C18         3.9958    4.9058    0.3098 C.2        1 <1>        0.000
     11 C19         5.1229    4.7405    1.0181 C.2        1 <1>        0.000
     12 C20         6.4808    4.8561    0.4592 C.2        1 <1>        0.000
     13 O5          7.4497    4.7886    1.2038 O.2        1 <1>        0.000
     14 O6          6.6341    5.0352   -0.8554 O.3        1 <1>        0.000
     15 H          -4.1664    6.5079    2.9433 H.spc      1 <1>        0.000
     16 H          -3.8130    3.5736    3.7117 H.spc      1 <1>        0.000
     17 H          -1.7344    5.6575    2.7013 H.spc      1 <1>        0.000
     18 H          -1.9545    2.6540    2.2172 H.spc      1 <1>        0.000
     19 H           0.5917    3.0406    1.8650 H.spc      1 <1>        0.000
     20 H          -0.5824    5.5020    0.4902 H.spc      1 <1>        0.000
     21 H           1.5971    5.1394   -0.8816 H.spc      1 <1>        0.000
     22 H           2.5690    4.5619    1.9527 H.spc      1 <1>        0.000
     23 H           4.0821    5.1475   -0.7495 H.spc      1 <1>        0.000
     24 H           5.0275    4.5049    2.0781 H.spc      1 <1>        0.000
     25 H           5.7717    5.0632   -1.2761 H.spc      1 <1>        0.000
@<TRIPOS>BOND
     1    6    8 1  
     2   12   13 2  
     3    1    7 1  
     4    2    3 1  
     5    8    9 2  
     6    1    2 2  
     7   10   11 2  
     8    4    5 1  
     9    9   10 1  
    10    3    4 2  
    11   11   12 1  
    12   12   14 1  
    13    5    6 2  
    14    1   15 1  
    15    2   16 1  
    16    3   17 1  
    17    4   18 1  
    18    5   19 1  
    19    6   20 1  
    20    8   21 1  
    21    9   22 1  
    22   10   23 1  
    23   11   24 1  
    24   14   25 1  
# Name:          frag3-254-3/31924
# Creation time: Sat Jun  5 12:52:39 2010


@<TRIPOS>MOLECULE
frag3-254-3/31924
   25    24     1     1     1
SMALL
USER_CHARGES


@<TRIPOS>ATOM
      1 C9         -4.6029    3.8415    2.5214 C.2        1 <1>        0.000
      2 C10        -3.7892    4.8774    2.7562 C.2        1 <1>        0.000
      3 C11        -2.3325    4.8213    2.6766 C.2        1 <1>        0.000
      4 C12        -1.5149    5.7724    3.1527 C.2        1 <1>        0.000
      5 C13        -0.0530    5.7053    3.0756 C.2        1 <1>        0.000
      6 C14         0.6120    4.9592    2.1780 C.2        1 <1>        0.000
      7 Cl2        -6.3311    3.9855    2.6411 Cl         1 <1>        0.000
      8 C16         2.0727    4.8979    2.0897 C.2        1 <1>        0.000
      9 C17         2.7520    4.7876    0.9396 C.2        1 <1>        0.000
     10 C18         4.2167    4.7414    0.8511 C.2        1 <1>        0.000
     11 C19         4.8823    4.5051   -0.2914 C.2        1 <1>        0.000
     12 C20         6.3500    4.4606   -0.4022 C.2        1 <1>        0.000
     13 O5          7.0342    4.3553    0.6050 O.2        1 <1>        0.000
     14 O6          6.9127    4.5395   -1.6125 O.3        1 <1>        0.000
     15 H          -4.1696    2.8796    2.2472 H.spc      1 <1>        0.000
     16 H          -4.2458    5.8297    3.0257 H.spc      1 <1>        0.000
     17 H          -1.8805    3.9514    2.2001 H.spc      1 <1>        0.000
     18 H          -1.9643    6.6462    3.6245 H.spc      1 <1>        0.000
     19 H           0.5272    6.2937    3.7864 H.spc      1 <1>        0.000
     20 H           0.0302    4.3644    1.4739 H.spc      1 <1>        0.000
     21 H           2.6430    4.9449    3.0174 H.spc      1 <1>        0.000
     22 H           2.1817    4.7285    0.0126 H.spc      1 <1>        0.000
     23 H           4.7944    4.9076    1.7603 H.spc      1 <1>        0.000
     24 H           4.2978    4.3352   -1.1956 H.spc      1 <1>        0.000
     25 H           6.2261    4.6172   -2.2789 H.spc      1 <1>        0.000
@<TRIPOS>BOND
     1    6    8 1  
     2   12   13 2  
     3    1    7 1  
     4    2    3 1  
     5    8    9 2  
     6    1    2 2  
     7   10   11 2  
     8    4    5 1  
     9    9   10 1  
    10    3    4 2  
    11   11   12 1  
    12   12   14 1  
    13    5    6 2  
    14    1   15 1  
    15    2   16 1  
    16    3   17 1  
    17    4   18 1  
    18    5   19 1  
    19    6   20 1  
    20    8   21 1  
    21    9   22 1  
    22   10   23 1  
    23   11   24 1  
    24   14   25 1  
# Name:          frag3-254-3/31924
# Creation time: Sat Jun  5 12:52:39 2010


@<TRIPOS>MOLECULE
frag3-254-3/31924
   25    24     1     1     1
SMALL
USER_CHARGES


@<TRIPOS>ATOM
      1 C9         -4.7287    4.3259    2.5752 C.2        1 <1>        0.000
      2 C10        -3.5773    4.5162    3.2298 C.2        1 <1>        0.000
      3 C11        -2.2654    4.5914    2.5894 C.2        1 <1>        0.000
      4 C12        -1.1647    5.0710    3.1872 C.2        1 <1>        0.000
      5 C13         0.1491    5.1422    2.5402 C.2        1 <1>        0.000
      6 C14         0.3321    5.5322    1.2672 C.2        1 <1>        0.000
      7 Cl2        -6.2534    4.2454    3.4089 Cl         1 <1>        0.000
      8 C16         1.6474    5.6081    0.6235 C.2        1 <1>        0.000
      9 C17         2.6502    4.7516    0.8759 C.2        1 <1>        0.000
     10 C18         3.9667    4.8175    0.2283 C.2        1 <1>        0.000
     11 C19         5.0927    4.3583    0.7950 C.2        1 <1>        0.000
     12 C20         6.4222    4.4091    0.1632 C.2        1 <1>        0.000
     13 O5          7.4237    4.2349    0.8448 O.2        1 <1>        0.000
     14 O6          6.5145    4.6461   -1.1479 O.3        1 <1>        0.000
     15 H          -4.7108    4.2185    1.4907 H.spc      1 <1>        0.000
     16 H          -3.6205    4.6223    4.3138 H.spc      1 <1>        0.000
     17 H          -2.1762    4.2358    1.5629 H.spc      1 <1>        0.000
     18 H          -1.2519    5.4285    4.2132 H.spc      1 <1>        0.000
     19 H           1.0262    4.8633    3.1242 H.spc      1 <1>        0.000
     20 H          -0.5450    5.8071    0.6813 H.spc      1 <1>        0.000
     21 H           1.8208    6.4044   -0.1004 H.spc      1 <1>        0.000
     22 H           2.4768    3.9601    1.6050 H.spc      1 <1>        0.000
     23 H           4.0324    5.2627   -0.7645 H.spc      1 <1>        0.000
     24 H           5.0187    3.9182    1.7895 H.spc      1 <1>        0.000
     25 H           5.6342    4.7564   -1.5147 H.spc      1 <1>        0.000
@<TRIPOS>BOND
     1    6    8 1  
     2   12   13 2  
     3    1    7 1  
     4    2    3 1  
     5    8    9 2  
     6    1    2 2  
     7   10   11 2  
     8    4    5 1  
     9    9   10 1  
    10    3    4 2  
    11   11   12 1  
    12   12   14 1  
    13    5    6 2  
    14    1   15 1  
    15    2   16 1  
    16    3   17 1  
    17    4   18 1  
    18    5   19 1  
    19    6   20 1  
    20    8   21 1  
    21    9   22 1  
    22   10   23 1  
    23   11   24 1  
    24   14   25 1  
# Name:          frag3-254-3/31924
# Creation time: Sat Jun  5 12:52:40 2010


@<TRIPOS>MOLECULE
frag3-254-3/31924
   25    24     1     1     1
SMALL
USER_CHARGES


@<TRIPOS>ATOM
      1 C9         -4.5567    4.4569    2.3330 C.2        1 <1>        0.000
      2 C10        -3.7598    5.4861    2.6485 C.2        1 <1>        0.000
      3 C11        -2.3426    5.5666    2.3081 C.2        1 <1>        0.000
      4 C12        -1.4139    4.7213    2.7816 C.2        1 <1>        0.000
      5 C13         0.0073    4.7860    2.4367 C.2        1 <1>        0.000
      6 C14         0.9556    4.0237    3.0025 C.2        1 <1>        0.000
      7 Cl2        -6.2360    4.4249    2.7772 Cl         1 <1>        0.000
      8 C16         2.3737    4.0891    2.6417 C.2        1 <1>        0.000
      9 C17         2.8201    4.4898    1.4398 C.2        1 <1>        0.000
     10 C18         4.2386    4.5709    1.0755 C.2        1 <1>        0.000
     11 C19         4.6702    4.8269   -0.1705 C.2        1 <1>        0.000
     12 C20         6.0885    4.9194   -0.5544 C.2        1 <1>        0.000
     13 O5          6.9192    5.2824    0.2653 O.2        1 <1>        0.000
     14 O6          6.4448    4.6059   -1.8042 O.3        1 <1>        0.000
     15 H          -4.1394    3.6146    1.7813 H.spc      1 <1>        0.000
     16 H          -4.1991    6.3197    3.1964 H.spc      1 <1>        0.000
     17 H          -2.0204    6.3579    1.6312 H.spc      1 <1>        0.000
     18 H          -1.7382    3.9374    3.4660 H.spc      1 <1>        0.000
     19 H           0.3148    5.4988    1.6715 H.spc      1 <1>        0.000
     20 H           0.6535    3.3157    3.7743 H.spc      1 <1>        0.000
     21 H           3.1087    3.7959    3.3913 H.spc      1 <1>        0.000
     22 H           2.0825    4.7722    0.6886 H.spc      1 <1>        0.000
     23 H           4.9819    4.4152    1.8574 H.spc      1 <1>        0.000
     24 H           3.9213    4.9759   -0.9483 H.spc      1 <1>        0.000
     25 H           5.6664    4.3450   -2.3018 H.spc      1 <1>        0.000
@<TRIPOS>BOND
     1    6    8 1  
     2   12   13 2  
     3    1    7 1  
     4    2    3 1  
     5    8    9 2  
     6    1    2 2  
     7   10   11 2  
     8    4    5 1  
     9    9   10 1  
    10    3    4 2  
    11   11   12 1  
    12   12   14 1  
    13    5    6 2  
    14    1   15 1  
    15    2   16 1  
    16    3   17 1  
    17    4   18 1  
    18    5   19 1  
    19    6   20 1  
    20    8   21 1  
    21    9   22 1  
    22   10   23 1  
    23   11   24 1  
    24   14   25 1  
# Name:          frag3-254-3/31924
# Creation time: Sat Jun  5 12:52:40 2010


@<TRIPOS>MOLECULE
frag3-254-3/31924
   25    24     1     1     1
SMALL
USER_CHARGES


@<TRIPOS>ATOM
      1 C9         -5.0961    4.5568    2.3821 C.2        1 <1>        0.000
      2 C10        -3.8839    4.8171    2.8854 C.2        1 <1>        0.000
      3 C11        -2.6287    4.6284    2.1621 C.2        1 <1>        0.000
      4 C12        -1.4154    4.7361    2.7204 C.2        1 <1>        0.000
      5 C13        -0.1570    4.5407    1.9950 C.2        1 <1>        0.000
      6 C14         1.0420    4.9250    2.4536 C.2        1 <1>        0.000
      7 Cl2        -6.5468    4.8033    3.3080 Cl         1 <1>        0.000
      8 C16         2.2990    4.7192    1.7296 C.2        1 <1>        0.000
      9 C17         3.5137    4.9532    2.2489 C.2        1 <1>        0.000
     10 C18         4.7706    4.7334    1.5227 C.2        1 <1>        0.000
     11 C19         4.8879    4.8997    0.1921 C.2        1 <1>        0.000
     12 C20         6.1355    4.6925   -0.5613 C.2        1 <1>        0.000
     13 O5          7.1160    4.2266   -0.0002 O.2        1 <1>        0.000
     14 O6          6.1723    5.0180   -1.8577 O.3        1 <1>        0.000
     15 H          -5.1763    4.1795    1.3626 H.spc      1 <1>        0.000
     16 H          -3.8292    5.1962    3.9059 H.spc      1 <1>        0.000
     17 H          -2.6826    4.3846    1.1011 H.spc      1 <1>        0.000
     18 H          -1.3609    4.9846    3.7803 H.spc      1 <1>        0.000
     19 H          -0.1990    4.0522    1.0215 H.spc      1 <1>        0.000
     20 H           1.0847    5.4205    3.4235 H.spc      1 <1>        0.000
     21 H           2.2438    4.3529    0.7045 H.spc      1 <1>        0.000
     22 H           3.5708    5.3288    3.2706 H.spc      1 <1>        0.000
     23 H           5.6493    4.4211    2.0870 H.spc      1 <1>        0.000
     24 H           4.0020    5.2076   -0.3633 H.spc      1 <1>        0.000
     25 H           5.3179    5.3659   -2.1235 H.spc      1 <1>        0.000
@<TRIPOS>BOND
     1    6    8 1  
     2   12   13 2  
     3    1    7 1  
     4    2    3 1  
     5    8    9 2  
     6    1    2 2  
     7   10   11 2  
     8    4    5 1  
     9    9   10 1  
    10    3    4 2  
    11   11   12 1  
    12   12   14 1  
    13    5    6 2  
    14    1   15 1  
    15    2   16 1  
    16    3   17 1  
    17    4   18 1  
    18    5   19 1  
    19    6   20 1  
    20    8   21 1  
    21    9   22 1  
    22   10   23 1  
    23   11   24 1  
    24   14   25 1  
# Name:          frag3-254-3/31924
# Creation time: Sat Jun  5 12:52:40 2010


@<TRIPOS>MOLECULE
frag3-254-3/31924
   25    24     1     1     1
SMALL
USER_CHARGES


@<TRIPOS>ATOM
      1 C9         -5.0091    5.4606    2.9719 C.2        1 <1>        0.000
      2 C10        -3.8365    4.8609    3.2079 C.2        1 <1>        0.000
      3 C11        -2.5884    5.1919    2.5175 C.2        1 <1>        0.000
      4 C12        -1.5235    4.3802    2.4680 C.2        1 <1>        0.000
      5 C13        -0.2754    4.7086    1.7679 C.2        1 <1>        0.000
      6 C14         0.7355    3.8456    1.5975 C.2        1 <1>        0.000
      7 Cl2        -6.4540    5.0085    3.8318 Cl         1 <1>        0.000
      8 C16         1.9782    4.1758    0.8885 C.2        1 <1>        0.000
      9 C17         3.1624    3.6040    1.1495 C.2        1 <1>        0.000
     10 C18         4.4039    3.9308    0.4324 C.2        1 <1>        0.000
     11 C19         5.2069    4.9489    0.7799 C.2        1 <1>        0.000
     12 C20         6.4572    5.2963    0.0821 C.2        1 <1>        0.000
     13 O5          7.2956    5.9845    0.6483 O.2        1 <1>        0.000
     14 O6          6.6561    4.8533   -1.1625 O.3        1 <1>        0.000
     15 H          -5.0610    6.2512    2.2233 H.spc      1 <1>        0.000
     16 H          -3.8086    4.0752    3.9629 H.spc      1 <1>        0.000
     17 H          -2.5216    6.1562    2.0137 H.spc      1 <1>        0.000
     18 H          -1.5876    3.4189    2.9778 H.spc      1 <1>        0.000
     19 H          -0.1645    5.7143    1.3626 H.spc      1 <1>        0.000
     20 H           0.6293    2.8417    2.0085 H.spc      1 <1>        0.000
     21 H           1.9354    4.9306    0.1033 H.spc      1 <1>        0.000
     22 H           3.2075    2.8536    1.9388 H.spc      1 <1>        0.000
     23 H           4.6858    3.3166   -0.4228 H.spc      1 <1>        0.000
     24 H           4.9147    5.5588    1.6347 H.spc      1 <1>        0.000
     25 H           5.8983    4.3338   -1.4410 H.spc      1 <1>        0.000
@<TRIPOS>BOND
     1    6    8 1  
     2   12   13 2  
     3    1    7 1  
     4    2    3 1  
     5    8    9 2  
     6    1    2 2  
     7   10   11 2  
     8    4    5 1  
     9    9   10 1  
    10    3    4 2  
    11   11   12 1  
    12   12   14 1  
    13    5    6 2  
    14    1   15 1  
    15    2   16 1  
    16    3   17 1  
    17    4   18 1  
    18    5   19 1  
    19    6   20 1  
    20    8   21 1  
    21    9   22 1  
    22   10   23 1  
    23   11   24 1  
    24   14   25 1  
# Name:          frag3-254-3/31924
# Creation time: Sat Jun  5 12:52:40 2010


@<TRIPOS>MOLECULE
frag3-254-3/31924
   25    24     1     1     1
SMALL
USER_CHARGES


@<TRIPOS>ATOM
      1 C9         -4.1966    4.3285    3.6310 C.2        1 <1>        0.000
      2 C10        -3.9956    4.4030    2.3087 C.2        1 <1>        0.000
      3 C11        -2.6778    4.4403    1.6780 C.2        1 <1>        0.000
      4 C12        -1.6368    5.1270    2.1752 C.2        1 <1>        0.000
      5 C13        -0.3086    5.1629    1.5579 C.2        1 <1>        0.000
      6 C14         0.7738    5.7058    2.1352 C.2        1 <1>        0.000
      7 Cl2        -5.7947    4.2934    4.3142 Cl         1 <1>        0.000
      8 C16         2.1020    5.7251    1.5147 C.2        1 <1>        0.000
      9 C17         2.6123    4.6985    0.8144 C.2        1 <1>        0.000
     10 C18         3.9364    4.7182    0.1806 C.2        1 <1>        0.000
     11 C19         5.0673    4.3942    0.8283 C.2        1 <1>        0.000
     12 C20         6.4069    4.4028    0.2169 C.2        1 <1>        0.000
     13 O5          7.3711    4.0190    0.8657 O.2        1 <1>        0.000
     14 O6          6.5494    4.8313   -1.0399 O.3        1 <1>        0.000
     15 H          -3.3345    4.2888    4.2968 H.spc      1 <1>        0.000
     16 H          -4.8717    4.4381    1.6612 H.spc      1 <1>        0.000
     17 H          -2.5323    3.8804    0.7542 H.spc      1 <1>        0.000
     18 H          -1.7891    5.6925    3.0945 H.spc      1 <1>        0.000
     19 H          -0.1927    4.7211    0.5682 H.spc      1 <1>        0.000
     20 H           0.6594    6.1577    3.1205 H.spc      1 <1>        0.000
     21 H           2.7096    6.6229    1.6280 H.spc      1 <1>        0.000
     22 H           2.0075    3.7976    0.7106 H.spc      1 <1>        0.000
     23 H           4.0049    5.0102   -0.8673 H.spc      1 <1>        0.000
     24 H           4.9884    4.1056    1.8764 H.spc      1 <1>        0.000
     25 H           5.6928    5.0902   -1.3876 H.spc      1 <1>        0.000
@<TRIPOS>BOND
     1    6    8 1  
     2   12   13 2  
     3    1    7 1  
     4    2    3 1  
     5    8    9 2  
     6    1    2 2  
     7   10   11 2  
     8    4    5 1  
     9    9   10 1  
    10    3    4 2  
    11   11   12 1  
    12   12   14 1  
    13    5    6 2  
    14    1   15 1  
    15    2   16 1  
    16    3   17 1  
    17    4   18 1  
    18    5   19 1  
    19    6   20 1  
    20    8   21 1  
    21    9   22 1  
    22   10   23 1  
    23   11   24 1  
    24   14   25 1  
# Name:          frag3-254-3/31924
# Creation time: Sat Jun  5 12:52:40 2010


@<TRIPOS>MOLECULE
frag3-254-3/31924
   25    24     1     1     1
SMALL
USER_CHARGES


@<TRIPOS>ATOM
      1 C9         -4.4448    5.4184    3.5315 C.2        1 <1>        0.000
      2 C10        -3.8077    4.6268    2.6608 C.2        1 <1>        0.000
      3 C11        -2.4529    4.8590    2.1676 C.2        1 <1>        0.000
      4 C12        -1.7152    3.9371    1.5318 C.2        1 <1>        0.000
      5 C13        -0.3562    4.1761    1.0383 C.2        1 <1>        0.000
      6 C14         0.6904    4.4453    1.8341 C.2        1 <1>        0.000
      7 Cl2        -6.0612    5.0763    4.0715 Cl         1 <1>        0.000
      8 C16         2.0507    4.6780    1.3439 C.2        1 <1>        0.000
      9 C17         3.1428    4.6757    2.1235 C.2        1 <1>        0.000
     10 C18         4.5057    4.8958    1.6242 C.2        1 <1>        0.000
     11 C19         4.8685    4.6537    0.3506 C.2        1 <1>        0.000
     12 C20         6.2234    4.8736   -0.1803 C.2        1 <1>        0.000
     13 O5          7.1724    4.9527    0.5855 O.2        1 <1>        0.000
     14 O6          6.3932    4.9815   -1.5021 O.3        1 <1>        0.000
     15 H          -3.9354    6.3033    3.9131 H.spc      1 <1>        0.000
     16 H          -4.3369    3.7473    2.2941 H.spc      1 <1>        0.000
     17 H          -2.0136    5.8438    2.3263 H.spc      1 <1>        0.000
     18 H          -2.1524    2.9514    1.3726 H.spc      1 <1>        0.000
     19 H          -0.1855    4.1327   -0.0374 H.spc      1 <1>        0.000
     20 H           0.5177    4.4936    2.9093 H.spc      1 <1>        0.000
     21 H           2.1844    4.8649    0.2784 H.spc      1 <1>        0.000
     22 H           3.0101    4.5000    3.1910 H.spc      1 <1>        0.000
     23 H           5.2585    5.2726    2.3166 H.spc      1 <1>        0.000
     24 H           4.1098    4.2700   -0.3315 H.spc      1 <1>        0.000
     25 H           5.5437    4.8948   -1.9408 H.spc      1 <1>        0.000
@<TRIPOS>BOND
     1    6    8 1  
     2   12   13 2  
     3    1    7 1  
     4    2    3 1  
     5    8    9 2  
     6    1    2 2  
     7   10   11 2  
     8    4    5 1  
     9    9   10 1  
    10    3    4 2  
    11   11   12 1  
    12   12   14 1  
    13    5    6 2  
    14    1   15 1  
    15    2   16 1  
    16    3   17 1  
    17    4   18 1  
    18    5   19 1  
    19    6   20 1  
    20    8   21 1  
    21    9   22 1  
    22   10   23 1  
    23   11   24 1  
    24   14   25 1  
# Name:          frag3-254-3/31924
# Creation time: Sat Jun  5 12:52:40 2010


@<TRIPOS>MOLECULE
frag3-254-3/31924
   25    24     1     1     1
SMALL
USER_CHARGES


@<TRIPOS>ATOM
      1 C9         -4.6424    5.3847    2.5938 C.2        1 <1>        0.000
      2 C10        -3.6228    4.7379    3.1704 C.2        1 <1>        0.000
      3 C11        -2.2994    4.5800    2.5706 C.2        1 <1>        0.000
      4 C12        -1.4031    3.6613    2.9604 C.2        1 <1>        0.000
      5 C13        -0.0790    3.5034    2.3497 C.2        1 <1>        0.000
      6 C14         0.6282    4.5213    1.8337 C.2        1 <1>        0.000
      7 Cl2        -6.1928    5.5268    3.3695 Cl         1 <1>        0.000
      8 C16         1.9553    4.3692    1.2296 C.2        1 <1>        0.000
      9 C17         2.5957    5.3447    0.5689 C.2        1 <1>        0.000
     10 C18         3.9311    5.1917   -0.0238 C.2        1 <1>        0.000
     11 C19         5.0434    5.0141    0.7082 C.2        1 <1>        0.000
     12 C20         6.3930    4.8469    0.1422 C.2        1 <1>        0.000
     13 O5          7.3300    4.5765    0.8811 O.2        1 <1>        0.000
     14 O6          6.5720    4.9916   -1.1734 O.3        1 <1>        0.000
     15 H          -4.4975    5.8346    1.6116 H.spc      1 <1>        0.000
     16 H          -3.7905    4.2991    4.1540 H.spc      1 <1>        0.000
     17 H          -2.0237    5.2501    1.7563 H.spc      1 <1>        0.000
     18 H          -1.6745    2.9936    3.7781 H.spc      1 <1>        0.000
     19 H           0.3550    2.5042    2.3127 H.spc      1 <1>        0.000
     20 H           0.1901    5.5189    1.8658 H.spc      1 <1>        0.000
     21 H           2.4521    3.4036    1.3233 H.spc      1 <1>        0.000
     22 H           2.0960    6.3079    0.4656 H.spc      1 <1>        0.000
     23 H           4.0239    5.2238   -1.1094 H.spc      1 <1>        0.000
     24 H           4.9404    4.9923    1.7931 H.spc      1 <1>        0.000
     25 H           5.7320    5.2007   -1.5884 H.spc      1 <1>        0.000
@<TRIPOS>BOND
     1    6    8 1  
     2   12   13 2  
     3    1    7 1  
     4    2    3 1  
     5    8    9 2  
     6    1    2 2  
     7   10   11 2  
     8    4    5 1  
     9    9   10 1  
    10    3    4 2  
    11   11   12 1  
    12   12   14 1  
    13    5    6 2  
    14    1   15 1  
    15    2   16 1  
    16    3   17 1  
    17    4   18 1  
    18    5   19 1  
    19    6   20 1  
    20    8   21 1  
    21    9   22 1  
    22   10   23 1  
    23   11   24 1  
    24   14   25 1  
# Name:          frag3-254-3/31924
# Creation time: Sat Jun  5 12:52:40 2010


@<TRIPOS>MOLECULE
frag3-254-3/31924
   25    24     1     1     1
SMALL
USER_CHARGES


@<TRIPOS>ATOM
      1 C9         -4.8672    5.3969    3.4040 C.2        1 <1>        0.000
      2 C10        -3.9305    4.6278    2.8371 C.2        1 <1>        0.000
      3 C11        -2.5954    5.0912    2.4628 C.2        1 <1>        0.000
      4 C12        -1.5519    4.2787    2.2469 C.2        1 <1>        0.000
      5 C13        -0.2143    4.7442    1.8670 C.2        1 <1>        0.000
      6 C14         0.6910    3.9863    1.2315 C.2        1 <1>        0.000
      7 Cl2        -6.4364    4.7728    3.8203 Cl         1 <1>        0.000
      8 C16         2.0234    4.4612    0.8457 C.2        1 <1>        0.000
      9 C17         3.0708    4.5097    1.6843 C.2        1 <1>        0.000
     10 C18         4.4080    4.9773    1.2961 C.2        1 <1>        0.000
     11 C19         5.1190    4.4220    0.2984 C.2        1 <1>        0.000
     12 C20         6.4556    4.8772   -0.1188 C.2        1 <1>        0.000
     13 O5          7.1830    5.4460    0.6821 O.2        1 <1>        0.000
     14 O6          6.8540    4.6586   -1.3765 O.3        1 <1>        0.000
     15 H          -4.6407    6.4429    3.6105 H.spc      1 <1>        0.000
     16 H          -4.1798    3.5850    2.6410 H.spc      1 <1>        0.000
     17 H          -2.4391    6.1643    2.3525 H.spc      1 <1>        0.000
     18 H          -1.7069    3.2058    2.3607 H.spc      1 <1>        0.000
     19 H           0.0609    5.7690    2.1165 H.spc      1 <1>        0.000
     20 H           0.4211    2.9587    0.9879 H.spc      1 <1>        0.000
     21 H           2.1723    4.7942   -0.1815 H.spc      1 <1>        0.000
     22 H           2.9200    4.1830    2.7132 H.spc      1 <1>        0.000
     23 H           4.8447    5.8135    1.8421 H.spc      1 <1>        0.000
     24 H           4.6772    3.5808   -0.2357 H.spc      1 <1>        0.000
     25 H           6.1583    4.2038   -1.8569 H.spc      1 <1>        0.000
@<TRIPOS>BOND
     1    6    8 1  
     2   12   13 2  
     3    1    7 1  
     4    2    3 1  
     5    8    9 2  
     6    1    2 2  
     7   10   11 2  
     8    4    5 1  
     9    9   10 1  
    10    3    4 2  
    11   11   12 1  
    12   12   14 1  
    13    5    6 2  
    14    1   15 1  
    15    2   16 1  
    16    3   17 1  
    17    4   18 1  
    18    5   19 1  
    19    6   20 1  
    20    8   21 1  
    21    9   22 1  
    22   10   23 1  
    23   11   24 1  
    24   14   25 1  
# Name:          frag3-254-3/31924
# Creation time: Sat Jun  5 12:52:40 2010


@<TRIPOS>MOLECULE
frag3-254-3/31924
   25    24     1     1     1
SMALL
USER_CHARGES


@<TRIPOS>ATOM
      1 C9         -4.8731    4.6513    2.0073 C.2        1 <1>        0.000
      2 C10        -3.7717    4.8386    2.7435 C.2        1 <1>        0.000
      3 C11        -2.4079    4.6266    2.2564 C.2        1 <1>        0.000
      4 C12        -1.3129    4.7505    3.0183 C.2        1 <1>        0.000
      5 C13         0.0536    4.5316    2.5307 C.2        1 <1>        0.000
      6 C14         1.1533    4.7179    3.2756 C.2        1 <1>        0.000
      7 Cl2        -6.4643    4.9213    2.6593 Cl         1 <1>        0.000
      8 C16         2.5163    4.4884    2.7819 C.2        1 <1>        0.000
      9 C17         2.9433    4.8759    1.5698 C.2        1 <1>        0.000
     10 C18         4.3092    4.6567    1.0742 C.2        1 <1>        0.000
     11 C19         4.7081    4.9907   -0.1632 C.2        1 <1>        0.000
     12 C20         6.0754    4.7874   -0.6774 C.2        1 <1>        0.000
     13 O5          6.9967    4.6062    0.1027 O.2        1 <1>        0.000
     14 O6          6.2832    4.8070   -1.9982 O.3        1 <1>        0.000
     15 H          -4.7714    4.3214    0.9734 H.spc      1 <1>        0.000
     16 H          -3.8984    5.1709    3.7738 H.spc      1 <1>        0.000
     17 H          -2.2750    4.3512    1.2102 H.spc      1 <1>        0.000
     18 H          -1.4451    5.0308    4.0633 H.spc      1 <1>        0.000
     19 H           0.1828    4.1975    1.5012 H.spc      1 <1>        0.000
     20 H           1.0280    5.0582    4.3035 H.spc      1 <1>        0.000
     21 H           3.2210    3.9747    3.4359 H.spc      1 <1>        0.000
     22 H           2.2351    5.3831    0.9145 H.spc      1 <1>        0.000
     23 H           5.0357    4.1994    1.7459 H.spc      1 <1>        0.000
     24 H           3.9740    5.4413   -0.8312 H.spc      1 <1>        0.000
     25 H           5.4501    4.9606   -2.4498 H.spc      1 <1>        0.000
@<TRIPOS>BOND
     1    6    8 1  
     2   12   13 2  
     3    1    7 1  
     4    2    3 1  
     5    8    9 2  
     6    1    2 2  
     7   10   11 2  
     8    4    5 1  
     9    9   10 1  
    10    3    4 2  
    11   11   12 1  
    12   12   14 1  
    13    5    6 2  
    14    1   15 1  
    15    2   16 1  
    16    3   17 1  
    17    4   18 1  
    18    5   19 1  
    19    6   20 1  
    20    8   21 1  
    21    9   22 1  
    22   10   23 1  
    23   11   24 1  
    24   14   25 1  
# Name:          frag3-254-3/31924
# Creation time: Sat Jun  5 12:52:40 2010


@<TRIPOS>MOLECULE
frag3-254-3/31924
   25    24     1     1     1
SMALL
USER_CHARGES


@<TRIPOS>ATOM
      1 C9         -4.9431    4.6799    2.7067 C.2        1 <1>        0.000
      2 C10        -3.7612    4.9652    3.2654 C.2        1 <1>        0.000
      3 C11        -2.5255    5.1850    2.5118 C.2        1 <1>        0.000
      4 C12        -1.3007    4.9290    2.9932 C.2        1 <1>        0.000
      5 C13        -0.0637    5.1390    2.2311 C.2        1 <1>        0.000
      6 C14         0.4218    4.2587    1.3422 C.2        1 <1>        0.000
      7 Cl2        -6.3704    4.4259    3.6706 Cl         1 <1>        0.000
      8 C16         1.6529    4.4768    0.5728 C.2        1 <1>        0.000
      9 C17         2.8852    4.3160    1.0775 C.2        1 <1>        0.000
     10 C18         4.1194    4.5266    0.3069 C.2        1 <1>        0.000
     11 C19         5.3306    4.6433    0.8711 C.2        1 <1>        0.000
     12 C20         6.5812    4.8489    0.1201 C.2        1 <1>        0.000
     13 O5          7.6130    5.1136    0.7227 O.2        1 <1>        0.000
     14 O6          6.5698    4.7422   -1.2114 O.3        1 <1>        0.000
     15 H          -5.0140    4.6047    1.6216 H.spc      1 <1>        0.000
     16 H          -3.7155    5.0387    4.3520 H.spc      1 <1>        0.000
     17 H          -2.6060    5.5803    1.4992 H.spc      1 <1>        0.000
     18 H          -1.2186    4.5426    4.0091 H.spc      1 <1>        0.000
     19 H           0.4918    6.0621    2.3966 H.spc      1 <1>        0.000
     20 H          -0.1279    3.3311    1.1827 H.spc      1 <1>        0.000
     21 H           1.5603    4.7871   -0.4680 H.spc      1 <1>        0.000
     22 H           2.9769    4.0113    2.1200 H.spc      1 <1>        0.000
     23 H           4.0464    4.5912   -0.7787 H.spc      1 <1>        0.000
     24 H           5.3938    4.5819    1.9575 H.spc      1 <1>        0.000
     25 H           5.6810    4.5317   -1.5068 H.spc      1 <1>        0.000
@<TRIPOS>BOND
     1    6    8 1  
     2   12   13 2  
     3    1    7 1  
     4    2    3 1  
     5    8    9 2  
     6    1    2 2  
     7   10   11 2  
     8    4    5 1  
     9    9   10 1  
    10    3    4 2  
    11   11   12 1  
    12   12   14 1  
    13    5    6 2  
    14    1   15 1  
    15    2   16 1  
    16    3   17 1  
    17    4   18 1  
    18    5   19 1  
    19    6   20 1  
    20    8   21 1  
    21    9   22 1  
    22   10   23 1  
    23   11   24 1  
    24   14   25 1  
# Name:          frag3-254-3/31924
# Creation time: Sat Jun  5 12:52:40 2010


@<TRIPOS>MOLECULE
frag3-254-3/31924
   25    24     1     1     1
SMALL
USER_CHARGES


@<TRIPOS>ATOM
      1 C9         -4.3744    4.4228    3.5287 C.2        1 <1>        0.000
      2 C10        -3.9381    4.4753    2.2635 C.2        1 <1>        0.000
      3 C11        -2.5544    4.2564    1.8568 C.2        1 <1>        0.000
      4 C12        -1.5447    5.0823    2.1727 C.2        1 <1>        0.000
      5 C13        -0.1519    4.8648    1.7809 C.2        1 <1>        0.000
      6 C14         0.8369    5.7483    1.9868 C.2        1 <1>        0.000
      7 Cl2        -6.0380    4.7018    3.9415 Cl         1 <1>        0.000
      8 C16         2.2290    5.5153    1.6009 C.2        1 <1>        0.000
      9 C17         2.7779    4.2926    1.4844 C.2        1 <1>        0.000
     10 C18         4.1680    4.0544    1.0840 C.2        1 <1>        0.000
     11 C19         4.8568    4.8939    0.2874 C.2        1 <1>        0.000
     12 C20         6.2547    4.6871   -0.1219 C.2        1 <1>        0.000
     13 O5          7.0182    4.0702    0.6064 O.2        1 <1>        0.000
     14 O6          6.6691    5.1847   -1.2913 O.3        1 <1>        0.000
     15 H          -3.6634    4.1980    4.3237 H.spc      1 <1>        0.000
     16 H          -4.6671    4.6968    1.4841 H.spc      1 <1>        0.000
     17 H          -2.3275    3.3714    1.2623 H.spc      1 <1>        0.000
     18 H          -1.7771    5.9717    2.7584 H.spc      1 <1>        0.000
     19 H           0.0987    3.9244    1.2901 H.spc      1 <1>        0.000
     20 H           0.5889    6.6938    2.4692 H.spc      1 <1>        0.000
     21 H           2.8573    6.3821    1.3961 H.spc      1 <1>        0.000
     22 H           2.1516    3.4271    1.7007 H.spc      1 <1>        0.000
     23 H           4.6671    3.1563    1.4479 H.spc      1 <1>        0.000
     24 H           4.3453    5.7845   -0.0778 H.spc      1 <1>        0.000
     25 H           5.9390    5.6340   -1.7234 H.spc      1 <1>        0.000
@<TRIPOS>BOND
     1    6    8 1  
     2   12   13 2  
     3    1    7 1  
     4    2    3 1  
     5    8    9 2  
     6    1    2 2  
     7   10   11 2  
     8    4    5 1  
     9    9   10 1  
    10    3    4 2  
    11   11   12 1  
    12   12   14 1  
    13    5    6 2  
    14    1   15 1  
    15    2   16 1  
    16    3   17 1  
    17    4   18 1  
    18    5   19 1  
    19    6   20 1  
    20    8   21 1  
    21    9   22 1  
    22   10   23 1  
    23   11   24 1  
    24   14   25 1  
# Name:          frag3-254-3/31924
# Creation time: Sat Jun  5 12:52:40 2010


@<TRIPOS>MOLECULE
frag3-254-3/31924
   25    24     1     1     1
SMALL
USER_CHARGES


@<TRIPOS>ATOM
      1 C9         -4.4902    4.5896    3.4582 C.2        1 <1>        0.000
      2 C10        -3.8118    5.4915    2.7372 C.2        1 <1>        0.000
      3 C11        -2.3567    5.5486    2.6433 C.2        1 <1>        0.000
      4 C12        -1.6104    4.6039    2.0502 C.2        1 <1>        0.000
      5 C13        -0.1509    4.6509    1.9533 C.2        1 <1>        0.000
      6 C14         0.6073    3.6431    1.4949 C.2        1 <1>        0.000
      7 Cl2        -6.2261    4.5807    3.5230 Cl         1 <1>        0.000
      8 C16         2.0669    3.7049    1.3922 C.2        1 <1>        0.000
      9 C17         2.7585    4.8507    1.2680 C.2        1 <1>        0.000
     10 C18         4.2202    4.9201    1.1763 C.2        1 <1>        0.000
     11 C19         4.8900    4.8501    0.0120 C.2        1 <1>        0.000
     12 C20         6.3558    4.9193   -0.1059 C.2        1 <1>        0.000
     13 O5          7.0470    4.9689    0.9009 O.2        1 <1>        0.000
     14 O6          6.9095    4.9277   -1.3228 O.3        1 <1>        0.000
     15 H          -3.9364    3.8384    4.0214 H.spc      1 <1>        0.000
     16 H          -4.3859    6.2337    2.1825 H.spc      1 <1>        0.000
     17 H          -1.8468    6.4075    3.0797 H.spc      1 <1>        0.000
     18 H          -2.1238    3.7475    1.6130 H.spc      1 <1>        0.000
     19 H           0.3525    5.5629    2.2740 H.spc      1 <1>        0.000
     20 H           0.1084    2.7262    1.1811 H.spc      1 <1>        0.000
     21 H           2.6241    2.7684    1.4179 H.spc      1 <1>        0.000
     22 H           2.1986    5.7853    1.2333 H.spc      1 <1>        0.000
     23 H           4.7923    5.0340    2.0971 H.spc      1 <1>        0.000
     24 H           4.3099    4.7347   -0.9036 H.spc      1 <1>        0.000
     25 H           6.2186    4.8834   -1.9878 H.spc      1 <1>        0.000
@<TRIPOS>BOND
     1    6    8 1  
     2   12   13 2  
     3    1    7 1  
     4    2    3 1  
     5    8    9 2  
     6    1    2 2  
     7   10   11 2  
     8    4    5 1  
     9    9   10 1  
    10    3    4 2  
    11   11   12 1  
    12   12   14 1  
    13    5    6 2  
    14    1   15 1  
    15    2   16 1  
    16    3   17 1  
    17    4   18 1  
    18    5   19 1  
    19    6   20 1  
    20    8   21 1  
    21    9   22 1  
    22   10   23 1  
    23   11   24 1  
    24   14   25 1  
# Name:          frag3-254-3/31924
# Creation time: Sat Jun  5 12:52:40 2010


@<TRIPOS>MOLECULE
frag3-254-3/31924
   25    24     1     1     1
SMALL
USER_CHARGES


@<TRIPOS>ATOM
      1 C9         -4.6265    4.4298    2.9447 C.2        1 <1>        0.000
      2 C10        -3.6359    5.3231    3.0680 C.2        1 <1>        0.000
      3 C11        -2.3359    5.2061    2.4128 C.2        1 <1>        0.000
      4 C12        -1.6337    4.0618    2.3552 C.2        1 <1>        0.000
      5 C13        -0.3331    3.9355    1.6924 C.2        1 <1>        0.000
      6 C14         0.7082    4.7479    1.9333 C.2        1 <1>        0.000
      7 Cl2        -6.1488    4.6296    3.7591 Cl         1 <1>        0.000
      8 C16         2.0112    4.6216    1.2755 C.2        1 <1>        0.000
      9 C17         2.8043    5.6604    0.9727 C.2        1 <1>        0.000
     10 C18         4.1139    5.5282    0.3222 C.2        1 <1>        0.000
     11 C19         5.0606    4.6730    0.7459 C.2        1 <1>        0.000
     12 C20         6.3781    4.5099    0.1092 C.2        1 <1>        0.000
     13 O5          7.3030    4.0250    0.7472 O.2        1 <1>        0.000
     14 O6          6.5438    4.8982   -1.1576 O.3        1 <1>        0.000
     15 H          -4.4735    3.5528    2.3158 H.spc      1 <1>        0.000
     16 H          -3.8116    6.1945    3.6988 H.spc      1 <1>        0.000
     17 H          -1.9124    6.0950    1.9453 H.spc      1 <1>        0.000
     18 H          -2.0563    3.1759    2.8292 H.spc      1 <1>        0.000
     19 H          -0.2036    3.1366    0.9623 H.spc      1 <1>        0.000
     20 H           0.5765    5.5486    2.6611 H.spc      1 <1>        0.000
     21 H           2.3578    3.6213    1.0160 H.spc      1 <1>        0.000
     22 H           2.4558    6.6620    1.2246 H.spc      1 <1>        0.000
     23 H           4.3286    6.1528   -0.5449 H.spc      1 <1>        0.000
     24 H           4.8380    4.0595    1.6189 H.spc      1 <1>        0.000
     25 H           5.7167    5.2512   -1.4937 H.spc      1 <1>        0.000
@<TRIPOS>BOND
     1    6    8 1  
     2   12   13 2  
     3    1    7 1  
     4    2    3 1  
     5    8    9 2  
     6    1    2 2  
     7   10   11 2  
     8    4    5 1  
     9    9   10 1  
    10    3    4 2  
    11   11   12 1  
    12   12   14 1  
    13    5    6 2  
    14    1   15 1  
    15    2   16 1  
    16    3   17 1  
    17    4   18 1  
    18    5   19 1  
    19    6   20 1  
    20    8   21 1  
    21    9   22 1  
    22   10   23 1  
    23   11   24 1  
    24   14   25 1  
# Name:          frag3-254-3/31924
# Creation time: Sat Jun  5 12:52:40 2010


@<TRIPOS>MOLECULE
frag3-254-3/31924
   25    24     1     1     1
SMALL
USER_CHARGES


@<TRIPOS>ATOM
      1 C9         -4.3301    4.8882    3.4430 C.2        1 <1>        0.000
      2 C10        -3.5263    3.8705    3.1055 C.2        1 <1>        0.000
      3 C11        -2.1461    4.0242    2.6563 C.2        1 <1>        0.000
      4 C12        -1.5849    5.2131    2.3768 C.2        1 <1>        0.000
      5 C13        -0.2016    5.3791    1.9292 C.2        1 <1>        0.000
      6 C14         0.1923    5.2529    0.6515 C.2        1 <1>        0.000
      7 Cl2        -5.9660    4.6339    3.9662 Cl         1 <1>        0.000
      8 C16         1.5777    5.4217    0.2073 C.2        1 <1>        0.000
      9 C17         2.6179    4.7576    0.7360 C.2        1 <1>        0.000
     10 C18         4.0067    4.9167    0.2904 C.2        1 <1>        0.000
     11 C19         5.0511    4.3314    0.8961 C.2        1 <1>        0.000
     12 C20         6.4508    4.4728    0.4623 C.2        1 <1>        0.000
     13 O5          7.3557    4.2767    1.2628 O.2        1 <1>        0.000
     14 O6          6.7119    4.8113   -0.8025 O.3        1 <1>        0.000
     15 H          -3.9453    5.9065    3.3874 H.spc      1 <1>        0.000
     16 H          -3.9303    2.8602    3.1708 H.spc      1 <1>        0.000
     17 H          -1.5380    3.1269    2.5414 H.spc      1 <1>        0.000
     18 H          -2.1972    6.1077    2.4904 H.spc      1 <1>        0.000
     19 H           0.5539    5.6194    2.6772 H.spc      1 <1>        0.000
     20 H          -0.5618    5.0111   -0.0974 H.spc      1 <1>        0.000
     21 H           1.7757    6.1275   -0.5994 H.spc      1 <1>        0.000
     22 H           2.4182    4.0567    1.5466 H.spc      1 <1>        0.000
     23 H           4.2004    5.5442   -0.5796 H.spc      1 <1>        0.000
     24 H           4.8496    3.7093    1.7681 H.spc      1 <1>        0.000
     25 H           5.8864    4.9233   -1.2795 H.spc      1 <1>        0.000
@<TRIPOS>BOND
     1    6    8 1  
     2   12   13 2  
     3    1    7 1  
     4    2    3 1  
     5    8    9 2  
     6    1    2 2  
     7   10   11 2  
     8    4    5 1  
     9    9   10 1  
    10    3    4 2  
    11   11   12 1  
    12   12   14 1  
    13    5    6 2  
    14    1   15 1  
    15    2   16 1  
    16    3   17 1  
    17    4   18 1  
    18    5   19 1  
    19    6   20 1  
    20    8   21 1  
    21    9   22 1  
    22   10   23 1  
    23   11   24 1  
    24   14   25 1  
# Name:          frag3-254-3/31924
# Creation time: Sat Jun  5 12:52:40 2010


@<TRIPOS>MOLECULE
frag3-254-3/31924
   25    24     1     1     1
SMALL
USER_CHARGES


@<TRIPOS>ATOM
      1 C9         -4.5595    5.2358    3.5446 C.2        1 <1>        0.000
      2 C10        -3.7707    4.4921    2.7604 C.2        1 <1>        0.000
      3 C11        -2.3265    4.6527    2.6417 C.2        1 <1>        0.000
      4 C12        -1.5493    3.9239    1.8266 C.2        1 <1>        0.000
      5 C13        -0.1020    4.0975    1.7069 C.2        1 <1>        0.000
      6 C14         0.4990    5.2918    1.5608 C.2        1 <1>        0.000
      7 Cl2        -6.2758    4.9855    3.6298 Cl         1 <1>        0.000
      8 C16         1.9483    5.4644    1.4551 C.2        1 <1>        0.000
      9 C17         2.8157    4.4439    1.3391 C.2        1 <1>        0.000
     10 C18         4.2668    4.6096    1.2193 C.2        1 <1>        0.000
     11 C19         4.9172    4.5916    0.0421 C.2        1 <1>        0.000
     12 C20         6.3711    4.7692   -0.1039 C.2        1 <1>        0.000
     13 O5          7.0801    4.8388    0.8893 O.2        1 <1>        0.000
     14 O6          6.8947    4.8532   -1.3312 O.3        1 <1>        0.000
     15 H          -4.1105    6.0238    4.1492 H.spc      1 <1>        0.000
     16 H          -4.2423    3.7089    2.1669 H.spc      1 <1>        0.000
     17 H          -1.8468    5.4150    3.2556 H.spc      1 <1>        0.000
     18 H          -2.0251    3.1560    1.2167 H.spc      1 <1>        0.000
     19 H           0.5261    3.2072    1.7379 H.spc      1 <1>        0.000
     20 H          -0.1291    6.1816    1.5187 H.spc      1 <1>        0.000
     21 H           2.3474    6.4786    1.4714 H.spc      1 <1>        0.000
     22 H           2.4148    3.4303    1.3338 H.spc      1 <1>        0.000
     23 H           4.8482    4.7547    2.1298 H.spc      1 <1>        0.000
     24 H           4.3295    4.4354   -0.8625 H.spc      1 <1>        0.000
     25 H           6.1936    4.7789   -1.9828 H.spc      1 <1>        0.000
@<TRIPOS>BOND
     1    6    8 1  
     2   12   13 2  
     3    1    7 1  
     4    2    3 1  
     5    8    9 2  
     6    1    2 2  
     7   10   11 2  
     8    4    5 1  
     9    9   10 1  
    10    3    4 2  
    11   11   12 1  
    12   12   14 1  
    13    5    6 2  
    14    1   15 1  
    15    2   16 1  
    16    3   17 1  
    17    4   18 1  
    18    5   19 1  
    19    6   20 1  
    20    8   21 1  
    21    9   22 1  
    22   10   23 1  
    23   11   24 1  
    24   14   25 1  
# Name:          frag3-254-3/31924
# Creation time: Sat Jun  5 12:52:40 2010


@<TRIPOS>MOLECULE
frag3-254-3/31924
   25    24     1     1     1
SMALL
USER_CHARGES


@<TRIPOS>ATOM
      1 C9         -5.0089    4.0032    2.6693 C.2        1 <1>        0.000
      2 C10        -3.9583    4.7348    3.0580 C.2        1 <1>        0.000
      3 C11        -2.5635    4.3159    2.9181 C.2        1 <1>        0.000
      4 C12        -1.5341    5.1661    2.8025 C.2        1 <1>        0.000
      5 C13        -0.1355    4.7453    2.6629 C.2        1 <1>        0.000
      6 C14         0.7827    5.4205    1.9579 C.2        1 <1>        0.000
      7 Cl2        -6.6420    4.5693    2.8706 Cl         1 <1>        0.000
      8 C16         2.1826    5.0008    1.8270 C.2        1 <1>        0.000
      9 C17         3.0794    5.6156    1.0434 C.2        1 <1>        0.000
     10 C18         4.4836    5.1990    0.9220 C.2        1 <1>        0.000
     11 C19         5.0248    4.7581   -0.2255 C.2        1 <1>        0.000
     12 C20         6.4289    4.3378   -0.3724 C.2        1 <1>        0.000
     13 O5          6.8979    3.5062    0.3911 O.2        1 <1>        0.000
     14 O6          7.1717    4.8775   -1.3443 O.3        1 <1>        0.000
     15 H          -4.8374    3.0274    2.2148 H.spc      1 <1>        0.000
     16 H          -4.1546    5.7076    3.5089 H.spc      1 <1>        0.000
     17 H          -2.3486    3.2474    2.9072 H.spc      1 <1>        0.000
     18 H          -1.7488    6.2347    2.8128 H.spc      1 <1>        0.000
     19 H           0.1756    3.8280    3.1628 H.spc      1 <1>        0.000
     20 H           0.4715    6.3346    1.4523 H.spc      1 <1>        0.000
     21 H           2.5134    4.1361    2.4023 H.spc      1 <1>        0.000
     22 H           2.7477    6.4756    0.4616 H.spc      1 <1>        0.000
     23 H           5.1174    5.2504    1.8073 H.spc      1 <1>        0.000
     24 H           4.3832    4.7081   -1.1053 H.spc      1 <1>        0.000
     25 H           6.6409    5.5052   -1.8401 H.spc      1 <1>        0.000
@<TRIPOS>BOND
     1    6    8 1  
     2   12   13 2  
     3    1    7 1  
     4    2    3 1  
     5    8    9 2  
     6    1    2 2  
     7   10   11 2  
     8    4    5 1  
     9    9   10 1  
    10    3    4 2  
    11   11   12 1  
    12   12   14 1  
    13    5    6 2  
    14    1   15 1  
    15    2   16 1  
    16    3   17 1  
    17    4   18 1  
    18    5   19 1  
    19    6   20 1  
    20    8   21 1  
    21    9   22 1  
    22   10   23 1  
    23   11   24 1  
    24   14   25 1  
# Name:          frag3-254-3/31924
# Creation time: Sat Jun  5 12:52:40 2010


@<TRIPOS>MOLECULE
frag3-254-3/31924
   25    24     1     1     1
SMALL
USER_CHARGES


@<TRIPOS>ATOM
      1 C9         -5.0663    4.9033    2.5578 C.2        1 <1>        0.000
      2 C10        -3.8284    4.9549    3.0629 C.2        1 <1>        0.000
      3 C11        -2.6073    4.8051    2.2693 C.2        1 <1>        0.000
      4 C12        -1.3720    4.8106    2.7885 C.2        1 <1>        0.000
      5 C13        -0.1492    4.6517    1.9924 C.2        1 <1>        0.000
      6 C14         0.8846    3.8788    2.3571 C.2        1 <1>        0.000
      7 Cl2        -6.4723    5.0876    3.5676 Cl         1 <1>        0.000
      8 C16         2.1000    3.7157    1.5499 C.2        1 <1>        0.000
      9 C17         2.8699    4.7396    1.1499 C.2        1 <1>        0.000
     10 C18         4.0930    4.5797    0.3501 C.2        1 <1>        0.000
     11 C19         5.2559    5.1755    0.6554 C.2        1 <1>        0.000
     12 C20         6.4974    5.0217   -0.1227 C.2        1 <1>        0.000
     13 O5          7.5620    4.8636    0.4595 O.2        1 <1>        0.000
     14 O6          6.4418    5.0621   -1.4569 O.3        1 <1>        0.000
     15 H          -5.1976    4.7419    1.4878 H.spc      1 <1>        0.000
     16 H          -3.7221    5.1192    4.1352 H.spc      1 <1>        0.000
     17 H          -2.7091    4.6817    1.1911 H.spc      1 <1>        0.000
     18 H          -1.2692    4.9408    3.8658 H.spc      1 <1>        0.000
     19 H          -0.0770    5.1936    1.0494 H.spc      1 <1>        0.000
     20 H           0.8188    3.3428    3.3039 H.spc      1 <1>        0.000
     21 H           2.3934    2.7069    1.2593 H.spc      1 <1>        0.000
     22 H           2.5710    5.7484    1.4346 H.spc      1 <1>        0.000
     23 H           4.0532    3.9453   -0.5354 H.spc      1 <1>        0.000
     24 H           5.2838    5.8155    1.5373 H.spc      1 <1>        0.000
     25 H           5.5320    5.1918   -1.7344 H.spc      1 <1>        0.000
@<TRIPOS>BOND
     1    6    8 1  
     2   12   13 2  
     3    1    7 1  
     4    2    3 1  
     5    8    9 2  
     6    1    2 2  
     7   10   11 2  
     8    4    5 1  
     9    9   10 1  
    10    3    4 2  
    11   11   12 1  
    12   12   14 1  
    13    5    6 2  
    14    1   15 1  
    15    2   16 1  
    16    3   17 1  
    17    4   18 1  
    18    5   19 1  
    19    6   20 1  
    20    8   21 1  
    21    9   22 1  
    22   10   23 1  
    23   11   24 1  
    24   14   25 1  
# Name:          frag3-254-3/31924
# Creation time: Sat Jun  5 12:52:40 2010


@<TRIPOS>MOLECULE
frag3-254-3/31924
   25    24     1     1     1
SMALL
USER_CHARGES


@<TRIPOS>ATOM
      1 C9         -4.5920    4.7260    3.2491 C.2        1 <1>        0.000
      2 C10        -3.8928    4.6679    2.1073 C.2        1 <1>        0.000
      3 C11        -2.4518    4.4627    2.0308 C.2        1 <1>        0.000
      4 C12        -1.6128    4.6909    3.0570 C.2        1 <1>        0.000
      5 C13        -0.1667    4.4829    2.9919 C.2        1 <1>        0.000
      6 C14         0.6283    5.0424    2.0654 C.2        1 <1>        0.000
      7 Cl2        -6.3086    4.9778    3.2683 Cl         1 <1>        0.000
      8 C16         2.0755    4.8386    1.9984 C.2        1 <1>        0.000
      9 C17         2.7637    4.6843    0.8584 C.2        1 <1>        0.000
     10 C18         4.2155    4.4896    0.7924 C.2        1 <1>        0.000
     11 C19         4.9816    4.9572   -0.2079 C.2        1 <1>        0.000
     12 C20         6.4411    4.7824   -0.2859 C.2        1 <1>        0.000
     13 O5          7.0704    4.4550    0.7092 O.2        1 <1>        0.000
     14 O6          7.0578    4.9924   -1.4534 O.3        1 <1>        0.000
     15 H          -4.0652    4.6114    4.1964 H.spc      1 <1>        0.000
     16 H          -4.4395    4.7820    1.1712 H.spc      1 <1>        0.000
     17 H          -2.0313    4.1049    1.0910 H.spc      1 <1>        0.000
     18 H          -2.0364    5.0528    3.9939 H.spc      1 <1>        0.000
     19 H           0.2928    3.8359    3.7391 H.spc      1 <1>        0.000
     20 H           0.1672    5.6877    1.3177 H.spc      1 <1>        0.000
     21 H           2.6301    4.8104    2.9363 H.spc      1 <1>        0.000
     22 H           2.2086    4.7049   -0.0794 H.spc      1 <1>        0.000
     23 H           4.6991    3.9362    1.5974 H.spc      1 <1>        0.000
     24 H           4.4900    5.5015   -1.0142 H.spc      1 <1>        0.000
     25 H           6.4093    5.2400   -2.1166 H.spc      1 <1>        0.000
@<TRIPOS>BOND
     1    6    8 1  
     2   12   13 2  
     3    1    7 1  
     4    2    3 1  
     5    8    9 2  
     6    1    2 2  
     7   10   11 2  
     8    4    5 1  
     9    9   10 1  
    10    3    4 2  
    11   11   12 1  
    12   12   14 1  
    13    5    6 2  
    14    1   15 1  
    15    2   16 1  
    16    3   17 1  
    17    4   18 1  
    18    5   19 1  
    19    6   20 1  
    20    8   21 1  
    21    9   22 1  
    22   10   23 1  
    23   11   24 1  
    24   14   25 1  
# Name:          frag3-254-3/31924
# Creation time: Sat Jun  5 12:52:40 2010


@<TRIPOS>MOLECULE
frag3-254-3/31924
   25    24     1     1     1
SMALL
USER_CHARGES


@<TRIPOS>ATOM
      1 C9         -4.3907    3.6112    3.6009 C.2        1 <1>        0.000
      2 C10        -3.7118    4.5560    2.9401 C.2        1 <1>        0.000
      3 C11        -2.2611    4.5394    2.7395 C.2        1 <1>        0.000
      4 C12        -1.6045    5.4077    1.9584 C.2        1 <1>        0.000
      5 C13        -0.1498    5.3941    1.7622 C.2        1 <1>        0.000
      6 C14         0.5213    6.3327    1.0786 C.2        1 <1>        0.000
      7 Cl2        -6.1182    3.7016    3.8009 Cl         1 <1>        0.000
      8 C16         1.9784    6.3163    0.8958 C.2        1 <1>        0.000
      9 C17         2.7046    5.1900    0.8197 C.2        1 <1>        0.000
     10 C18         4.1619    5.1678    0.6263 C.2        1 <1>        0.000
     11 C19         4.8657    4.0389    0.4555 C.2        1 <1>        0.000
     12 C20         6.3260    3.9916    0.2531 C.2        1 <1>        0.000
     13 O5          7.0227    3.3497    1.0248 O.2        1 <1>        0.000
     14 O6          6.8647    4.6531   -0.7751 O.3        1 <1>        0.000
     15 H          -3.8496    2.7649    4.0241 H.spc      1 <1>        0.000
     16 H          -4.2746    5.3918    2.5243 H.spc      1 <1>        0.000
     17 H          -1.6810    3.7750    3.2565 H.spc      1 <1>        0.000
     18 H          -2.1849    6.1694    1.4378 H.spc      1 <1>        0.000
     19 H           0.4186    4.5725    2.1979 H.spc      1 <1>        0.000
     20 H          -0.0450    7.1515    0.6349 H.spc      1 <1>        0.000
     21 H           2.4986    7.2710    0.8176 H.spc      1 <1>        0.000
     22 H           2.1837    4.2365    0.9063 H.spc      1 <1>        0.000
     23 H           4.6976    6.1171    0.6215 H.spc      1 <1>        0.000
     24 H           4.3226    3.0939    0.4670 H.spc      1 <1>        0.000
     25 H           6.1703    5.0962   -1.2682 H.spc      1 <1>        0.000
@<TRIPOS>BOND
     1    6    8 1  
     2   12   13 2  
     3    1    7 1  
     4    2    3 1  
     5    8    9 2  
     6    1    2 2  
     7   10   11 2  
     8    4    5 1  
     9    9   10 1  
    10    3    4 2  
    11   11   12 1  
    12   12   14 1  
    13    5    6 2  
    14    1   15 1  
    15    2   16 1  
    16    3   17 1  
    17    4   18 1  
    18    5   19 1  
    19    6   20 1  
    20    8   21 1  
    21    9   22 1  
    22   10   23 1  
    23   11   24 1  
    24   14   25 1  
# Name:          frag3-254-3/31924
# Creation time: Sat Jun  5 12:52:40 2010


@<TRIPOS>MOLECULE
frag3-254-3/31924
   25    24     1     1     1
SMALL
USER_CHARGES


@<TRIPOS>ATOM
      1 C9         -4.6889    5.2189    3.1798 C.2        1 <1>        0.000
      2 C10        -3.7012    4.3167    3.1232 C.2        1 <1>        0.000
      3 C11        -2.2949    4.6463    2.9057 C.2        1 <1>        0.000
      4 C12        -1.7709    4.9189    1.6998 C.2        1 <1>        0.000
      5 C13        -0.3625    5.2608    1.4811 C.2        1 <1>        0.000
      6 C14         0.6620    4.4834    1.8661 C.2        1 <1>        0.000
      7 Cl2        -6.3441    4.7520    3.4349 Cl         1 <1>        0.000
      8 C16         2.0707    4.8190    1.6410 C.2        1 <1>        0.000
      9 C17         3.0472    3.9099    1.5055 C.2        1 <1>        0.000
     10 C18         4.4551    4.2495    1.2636 C.2        1 <1>        0.000
     11 C19         4.9340    4.5834    0.0522 C.2        1 <1>        0.000
     12 C20         6.3375    4.9406   -0.2142 C.2        1 <1>        0.000
     13 O5          7.0066    5.4734    0.6591 O.2        1 <1>        0.000
     14 O6          6.8584    4.6770   -1.4169 O.3        1 <1>        0.000
     15 H          -4.4486    6.2756    3.0627 H.spc      1 <1>        0.000
     16 H          -3.9641    3.2662    3.2477 H.spc      1 <1>        0.000
     17 H          -1.6332    4.6725    3.7715 H.spc      1 <1>        0.000
     18 H          -2.4312    4.8839    0.8333 H.spc      1 <1>        0.000
     19 H          -0.1339    6.1999    0.9771 H.spc      1 <1>        0.000
     20 H           0.4327    3.5477    2.3760 H.spc      1 <1>        0.000
     21 H           2.3416    5.8730    1.5799 H.spc      1 <1>        0.000
     22 H           2.7798    2.8558    1.5794 H.spc      1 <1>        0.000
     23 H           5.1455    4.2300    2.1068 H.spc      1 <1>        0.000
     24 H           4.2382    4.5901   -0.7868 H.spc      1 <1>        0.000
     25 H           6.1921    4.2609   -1.9688 H.spc      1 <1>        0.000
@<TRIPOS>BOND
     1    6    8 1  
     2   12   13 2  
     3    1    7 1  
     4    2    3 1  
     5    8    9 2  
     6    1    2 2  
     7   10   11 2  
     8    4    5 1  
     9    9   10 1  
    10    3    4 2  
    11   11   12 1  
    12   12   14 1  
    13    5    6 2  
    14    1   15 1  
    15    2   16 1  
    16    3   17 1  
    17    4   18 1  
    18    5   19 1  
    19    6   20 1  
    20    8   21 1  
    21    9   22 1  
    22   10   23 1  
    23   11   24 1  
    24   14   25 1  
# Name:          frag3-254-3/31924
# Creation time: Sat Jun  5 12:52:40 2010


@<TRIPOS>MOLECULE
frag3-254-3/31924
   25    24     1     1     1
SMALL
USER_CHARGES


@<TRIPOS>ATOM
      1 C9         -4.4491    4.4288    3.2154 C.2        1 <1>        0.000
      2 C10        -3.5877    5.4405    3.0434 C.2        1 <1>        0.000
      3 C11        -2.2616    5.3028    2.4523 C.2        1 <1>        0.000
      4 C12        -1.4380    4.2703    2.7050 C.2        1 <1>        0.000
      5 C13        -0.1114    4.1201    2.1053 C.2        1 <1>        0.000
      6 C14         0.2141    4.5866    0.8871 C.2        1 <1>        0.000
      7 Cl2        -6.0129    4.6635    3.9331 Cl         1 <1>        0.000
      8 C16         1.5450    4.4514    0.2931 C.2        1 <1>        0.000
      9 C17         2.6520    5.0151    0.8018 C.2        1 <1>        0.000
     10 C18         3.9910    4.8676    0.2205 C.2        1 <1>        0.000
     11 C19         5.1213    4.9169    0.9425 C.2        1 <1>        0.000
     12 C20         6.4741    4.7603    0.3825 C.2        1 <1>        0.000
     13 O5          7.3656    4.2884    1.0755 O.2        1 <1>        0.000
     14 O6          6.7067    5.1378   -0.8767 O.3        1 <1>        0.000
     15 H          -4.1595    3.4280    2.8951 H.spc      1 <1>        0.000
     16 H          -3.8991    6.4336    3.3672 H.spc      1 <1>        0.000
     17 H          -1.9193    6.0793    1.7682 H.spc      1 <1>        0.000
     18 H          -1.7784    3.5000    3.3971 H.spc      1 <1>        0.000
     19 H           0.6562    3.6006    2.6788 H.spc      1 <1>        0.000
     20 H          -0.5574    5.0947    0.3086 H.spc      1 <1>        0.000
     21 H           1.6430    3.8580   -0.6159 H.spc      1 <1>        0.000
     22 H           2.5497    5.6200    1.7028 H.spc      1 <1>        0.000
     23 H           4.0721    4.7096   -0.8549 H.spc      1 <1>        0.000
     24 H           5.0318    5.0842    2.0159 H.spc      1 <1>        0.000
     25 H           5.8970    5.4813   -1.2614 H.spc      1 <1>        0.000
@<TRIPOS>BOND
     1    6    8 1  
     2   12   13 2  
     3    1    7 1  
     4    2    3 1  
     5    8    9 2  
     6    1    2 2  
     7   10   11 2  
     8    4    5 1  
     9    9   10 1  
    10    3    4 2  
    11   11   12 1  
    12   12   14 1  
    13    5    6 2  
    14    1   15 1  
    15    2   16 1  
    16    3   17 1  
    17    4   18 1  
    18    5   19 1  
    19    6   20 1  
    20    8   21 1  
    21    9   22 1  
    22   10   23 1  
    23   11   24 1  
    24   14   25 1  
# Name:          frag3-254-3/31924 -- energy: -0.914509
# Creation time: Sat Jun  5 12:52:40 2010


@<TRIPOS>MOLECULE
frag3-254-3/31924 -- energy: -0.914509
   25    24     1     1     1
SMALL
USER_CHARGES


@<TRIPOS>ATOM
      1 C9         -5.2917    4.6459    2.8068 C.2        1 <1>        0.000
      2 C10        -4.0114    4.7763    3.1728 C.2        1 <1>        0.000
      3 C11        -2.8889    4.8299    2.2321 C.2        1 <1>        0.000
      4 C12        -1.6022    4.7752    2.6017 C.2        1 <1>        0.000
      5 C13        -0.4774    4.8222    1.6577 C.2        1 <1>        0.000
      6 C14         0.8096    4.8298    2.0305 C.2        1 <1>        0.000
      7 Cl2        -6.5731    4.5857    3.9855 Cl         1 <1>        0.000
      8 C16         1.9318    4.8657    1.0827 C.2        1 <1>        0.000
      9 C17         3.2056    4.6288    1.4244 C.2        1 <1>        0.000
     10 C18         4.3264    4.6529    0.4717 C.2        1 <1>        0.000
     11 C19         5.6130    4.6877    0.8484 C.2        1 <1>        0.000
     12 C20         6.7521    4.7055   -0.0858 C.2        1 <1>        0.000
     13 O5          7.8893    4.5620    0.3430 O.2        1 <1>        0.000
     14 O6          6.5260    4.8825   -1.3907 O.3        1 <1>        0.000
     15 H          -5.5385    4.5758    1.7474 H.spc      1 <1>        0.000
     16 H          -3.7893    4.8471    4.2376 H.spc      1 <1>        0.000
     17 H          -3.1140    4.9195    1.1694 H.spc      1 <1>        0.000
     18 H          -1.3768    4.6909    3.6648 H.spc      1 <1>        0.000
     19 H          -0.7030    4.8527    0.5917 H.spc      1 <1>        0.000
     20 H           1.0367    4.8081    3.0964 H.spc      1 <1>        0.000
     21 H           1.7153    5.0988    0.0402 H.spc      1 <1>        0.000
     22 H           3.4240    4.4053    2.4686 H.spc      1 <1>        0.000
     23 H           4.0996    4.6419   -0.5944 H.spc      1 <1>        0.000
     24 H           5.8304    4.7039    1.9164 H.spc      1 <1>        0.000
     25 H           5.5825    4.9765   -1.5410 H.spc      1 <1>        0.000
@<TRIPOS>BOND
     1    6    8 1  
     2   12   13 2  
     3    1    7 1  
     4    2    3 1  
     5    8    9 2  
     6    1    2 2  
     7   10   11 2  
     8    4    5 1  
     9    9   10 1  
    10    3    4 2  
    11   11   12 1  
    12   12   14 1  
    13    5    6 2  
    14    1   15 1  
    15    2   16 1  
    16    3   17 1  
    17    4   18 1  
    18    5   19 1  
    19    6   20 1  
    20    8   21 1  
    21    9   22 1  
    22   10   23 1  
    23   11   24 1  
    24   14   25 1  
# Name:          frag3-254-3/31924 -- energy: -2.061575
# Creation time: Sat Jun  5 12:52:40 2010


@<TRIPOS>MOLECULE
frag3-254-3/31924 -- energy: -2.061575
   25    24     1     1     1
SMALL
USER_CHARGES


@<TRIPOS>ATOM
      1 C9         -5.0239    4.5083    3.7754 C.2        1 <1>        0.000
      2 C10        -4.1105    4.7976    2.8415 C.2        1 <1>        0.000
      3 C11        -2.7013    4.4127    2.9172 C.2        1 <1>        0.000
      4 C12        -1.7563    4.8578    2.0781 C.2        1 <1>        0.000
      5 C13        -0.3419    4.4766    2.1591 C.2        1 <1>        0.000
      6 C14         0.5920    4.8723    1.2835 C.2        1 <1>        0.000
      7 Cl2        -6.6838    5.0049    3.6162 Cl         1 <1>        0.000
      8 C16         2.0076    4.4977    1.3746 C.2        1 <1>        0.000
      9 C17         2.9835    5.0751    0.6604 C.2        1 <1>        0.000
     10 C18         4.4024    4.7072    0.7622 C.2        1 <1>        0.000
     11 C19         5.3294    5.0841   -0.1331 C.2        1 <1>        0.000
     12 C20         6.7567    4.7315   -0.0470 C.2        1 <1>        0.000
     13 O5          7.1519    4.0055    0.8534 O.2        1 <1>        0.000
     14 O6          7.6034    5.2187   -0.9606 O.3        1 <1>        0.000
     15 H          -4.7202    3.9469    4.6590 H.spc      1 <1>        0.000
     16 H          -4.4384    5.3575    1.9657 H.spc      1 <1>        0.000
     17 H          -2.4016    3.7212    3.7047 H.spc      1 <1>        0.000
     18 H          -2.0567    5.5450    1.2871 H.spc      1 <1>        0.000
     19 H          -0.0319    3.8322    2.9817 H.spc      1 <1>        0.000
     20 H           0.2820    5.5096    0.4553 H.spc      1 <1>        0.000
     21 H           2.2824    3.7008    2.0656 H.spc      1 <1>        0.000
     22 H           2.7081    5.8653   -0.0381 H.spc      1 <1>        0.000
     23 H           4.7188    4.0969    1.6081 H.spc      1 <1>        0.000
     24 H           5.0044    5.6904   -0.9786 H.spc      1 <1>        0.000
     25 H           7.1195    5.7641   -1.5850 H.spc      1 <1>        0.000
@<TRIPOS>BOND
     1    6    8 1  
     2   12   13 2  
     3    1    7 1  
     4    2    3 1  
     5    8    9 2  
     6    1    2 2  
     7   10   11 2  
     8    4    5 1  
     9    9   10 1  
    10    3    4 2  
    11   11   12 1  
    12   12   14 1  
    13    5    6 2  
    14    1   15 1  
    15    2   16 1  
    16    3   17 1  
    17    4   18 1  
    18    5   19 1  
    19    6   20 1  
    20    8   21 1  
    21    9   22 1  
    22   10   23 1  
    23   11   24 1  
    24   14   25 1  
# Name:          frag3-254-3/31924 -- energy: -0.861141
# Creation time: Sat Jun  5 12:52:40 2010


@<TRIPOS>MOLECULE
frag3-254-3/31924 -- energy: -0.861141
   25    24     1     1     1
SMALL
USER_CHARGES


@<TRIPOS>ATOM
      1 C9         -4.0028    3.9607    3.9907 C.2        1 <1>        0.000
      2 C10        -3.7655    4.5473    2.8117 C.2        1 <1>        0.000
      3 C11        -2.4474    4.6189    2.1784 C.2        1 <1>        0.000
      4 C12        -2.0831    5.5803    1.3172 C.2        1 <1>        0.000
      5 C13        -0.7562    5.6544    0.6927 C.2        1 <1>        0.000
      6 C14         0.3914    5.4676    1.3631 C.2        1 <1>        0.000
      7 Cl2        -5.5998    3.9198    4.6835 Cl         1 <1>        0.000
      8 C16         1.7182    5.5267    0.7376 C.2        1 <1>        0.000
      9 C17         2.7945    4.8792    1.2048 C.2        1 <1>        0.000
     10 C18         4.1196    4.9280    0.5692 C.2        1 <1>        0.000
     11 C19         5.1830    4.2513    1.0276 C.2        1 <1>        0.000
     12 C20         6.5176    4.2786    0.4042 C.2        1 <1>        0.000
     13 O5          7.4529    3.7095    0.9509 O.2        1 <1>        0.000
     14 O6          6.6870    4.9277   -0.7510 O.3        1 <1>        0.000
     15 H          -3.1768    3.4974    4.5303 H.spc      1 <1>        0.000
     16 H          -4.6076    5.0010    2.2892 H.spc      1 <1>        0.000
     17 H          -1.7191    3.8451    2.4212 H.spc      1 <1>        0.000
     18 H          -2.8131    6.3500    1.0667 H.spc      1 <1>        0.000
     19 H          -0.7002    5.8731   -0.3737 H.spc      1 <1>        0.000
     20 H           0.3351    5.2604    2.4317 H.spc      1 <1>        0.000
     21 H           1.8349    6.1334   -0.1604 H.spc      1 <1>        0.000
     22 H           2.6810    4.2813    2.1091 H.spc      1 <1>        0.000
     23 H           4.2440    5.5458   -0.3201 H.spc      1 <1>        0.000
     24 H           5.0510    3.6406    1.9207 H.spc      1 <1>        0.000
     25 H           5.8508    5.3094   -1.0279 H.spc      1 <1>        0.000
@<TRIPOS>BOND
     1    6    8 1  
     2   12   13 2  
     3    1    7 1  
     4    2    3 1  
     5    8    9 2  
     6    1    2 2  
     7   10   11 2  
     8    4    5 1  
     9    9   10 1  
    10    3    4 2  
    11   11   12 1  
    12   12   14 1  
    13    5    6 2  
    14    1   15 1  
    15    2   16 1  
    16    3   17 1  
    17    4   18 1  
    18    5   19 1  
    19    6   20 1  
    20    8   21 1  
    21    9   22 1  
    22   10   23 1  
    23   11   24 1  
    24   14   25 1  
# Name:          frag3-254-3/31924 -- energy: -1.869421
# Creation time: Sat Jun  5 12:52:40 2010


@<TRIPOS>MOLECULE
frag3-254-3/31924 -- energy: -1.869421
   25    24     1     1     1
SMALL
USER_CHARGES


@<TRIPOS>ATOM
      1 C9         -4.9746    5.4697    3.3497 C.2        1 <1>        0.000
      2 C10        -3.9647    4.6260    3.1086 C.2        1 <1>        0.000
      3 C11        -2.7820    4.9644    2.3127 C.2        1 <1>        0.000
      4 C12        -1.7782    4.1115    2.0668 C.2        1 <1>        0.000
      5 C13        -0.5950    4.4508    1.2654 C.2        1 <1>        0.000
      6 C14         0.6636    4.1950    1.6487 C.2        1 <1>        0.000
      7 Cl2        -6.3515    4.9927    4.3039 Cl         1 <1>        0.000
      8 C16         1.8447    4.5294    0.8419 C.2        1 <1>        0.000
      9 C17         3.1053    4.4280    1.2848 C.2        1 <1>        0.000
     10 C18         4.2873    4.7521    0.4715 C.2        1 <1>        0.000
     11 C19         5.5456    4.6378    0.9215 C.2        1 <1>        0.000
     12 C20         6.7446    4.9495    0.1241 C.2        1 <1>        0.000
     13 O5          7.7743    5.2949    0.6881 O.2        1 <1>        0.000
     14 O6          6.6897    4.8484   -1.2070 O.3        1 <1>        0.000
     15 H          -4.9348    6.4788    2.9396 H.spc      1 <1>        0.000
     16 H          -4.0256    3.6231    3.5311 H.spc      1 <1>        0.000
     17 H          -2.7147    5.9694    1.8960 H.spc      1 <1>        0.000
     18 H          -1.8435    3.1074    2.4859 H.spc      1 <1>        0.000
     19 H          -0.7494    4.9389    0.3031 H.spc      1 <1>        0.000
     20 H           0.8195    3.7117    2.6132 H.spc      1 <1>        0.000
     21 H           1.6863    4.8809   -0.1776 H.spc      1 <1>        0.000
     22 H           3.2641    4.0854    2.3073 H.spc      1 <1>        0.000
     23 H           4.1327    5.1030   -0.5488 H.spc      1 <1>        0.000
     24 H           5.6907    4.2914    1.9448 H.spc      1 <1>        0.000
     25 H           5.8101    4.5673   -1.4694 H.spc      1 <1>        0.000
@<TRIPOS>BOND
     1    6    8 1  
     2   12   13 2  
     3    1    7 1  
     4    2    3 1  
     5    8    9 2  
     6    1    2 2  
     7   10   11 2  
     8    4    5 1  
     9    9   10 1  
    10    3    4 2  
    11   11   12 1  
    12   12   14 1  
    13    5    6 2  
    14    1   15 1  
    15    2   16 1  
    16    3   17 1  
    17    4   18 1  
    18    5   19 1  
    19    6   20 1  
    20    8   21 1  
    21    9   22 1  
    22   10   23 1  
    23   11   24 1  
    24   14   25 1  
# Name:          frag3-254-3/31924 -- energy: -0.962741
# Creation time: Sat Jun  5 12:52:40 2010


@<TRIPOS>MOLECULE
frag3-254-3/31924 -- energy: -0.962741
   25    24     1     1     1
SMALL
USER_CHARGES


@<TRIPOS>ATOM
      1 C9         -4.4279    5.5311    3.3502 C.2        1 <1>        0.000
      2 C10        -3.5300    4.5405    3.2956 C.2        1 <1>        0.000
      3 C11        -2.1940    4.6692    2.7145 C.2        1 <1>        0.000
      4 C12        -1.5002    3.6446    2.1969 C.2        1 <1>        0.000
      5 C13        -0.1649    3.7810    1.6050 C.2        1 <1>        0.000
      6 C14         0.1770    4.7682    0.7601 C.2        1 <1>        0.000
      7 Cl2        -6.0025    5.2997    4.0542 Cl         1 <1>        0.000
      8 C16         1.5173    4.9116    0.1813 C.2        1 <1>        0.000
      9 C17         2.6510    4.7780    0.8875 C.2        1 <1>        0.000
     10 C18         3.9958    4.9058    0.3098 C.2        1 <1>        0.000
     11 C19         5.1229    4.7405    1.0181 C.2        1 <1>        0.000
     12 C20         6.4808    4.8561    0.4592 C.2        1 <1>        0.000
     13 O5          7.4497    4.7886    1.2038 O.2        1 <1>        0.000
     14 O6          6.6341    5.0352   -0.8554 O.3        1 <1>        0.000
     15 H          -4.1664    6.5079    2.9433 H.spc      1 <1>        0.000
     16 H          -3.8130    3.5736    3.7117 H.spc      1 <1>        0.000
     17 H          -1.7344    5.6575    2.7013 H.spc      1 <1>        0.000
     18 H          -1.9545    2.6540    2.2172 H.spc      1 <1>        0.000
     19 H           0.5917    3.0406    1.8650 H.spc      1 <1>        0.000
     20 H          -0.5824    5.5020    0.4902 H.spc      1 <1>        0.000
     21 H           1.5971    5.1394   -0.8816 H.spc      1 <1>        0.000
     22 H           2.5690    4.5619    1.9527 H.spc      1 <1>        0.000
     23 H           4.0821    5.1475   -0.7495 H.spc      1 <1>        0.000
     24 H           5.0275    4.5049    2.0781 H.spc      1 <1>        0.000
     25 H           5.7717    5.0632   -1.2761 H.spc      1 <1>        0.000
@<TRIPOS>BOND
     1    6    8 1  
     2   12   13 2  
     3    1    7 1  
     4    2    3 1  
     5    8    9 2  
     6    1    2 2  
     7   10   11 2  
     8    4    5 1  
     9    9   10 1  
    10    3    4 2  
    11   11   12 1  
    12   12   14 1  
    13    5    6 2  
    14    1   15 1  
    15    2   16 1  
    16    3   17 1  
    17    4   18 1  
    18    5   19 1  
    19    6   20 1  
    20    8   21 1  
    21    9   22 1  
    22   10   23 1  
    23   11   24 1  
    24   14   25 1  
# Name:          frag3-254-3/31924 -- energy: -2.068640
# Creation time: Sat Jun  5 12:52:40 2010


@<TRIPOS>MOLECULE
frag3-254-3/31924 -- energy: -2.068640
   25    24     1     1     1
SMALL
USER_CHARGES


@<TRIPOS>ATOM
      1 C9         -4.6029    3.8415    2.5214 C.2        1 <1>        0.000
      2 C10        -3.7892    4.8774    2.7562 C.2        1 <1>        0.000
      3 C11        -2.3325    4.8213    2.6766 C.2        1 <1>        0.000
      4 C12        -1.5149    5.7724    3.1527 C.2        1 <1>        0.000
      5 C13        -0.0530    5.7053    3.0756 C.2        1 <1>        0.000
      6 C14         0.6120    4.9592    2.1780 C.2        1 <1>        0.000
      7 Cl2        -6.3311    3.9855    2.6411 Cl         1 <1>        0.000
      8 C16         2.0727    4.8979    2.0897 C.2        1 <1>        0.000
      9 C17         2.7520    4.7876    0.9396 C.2        1 <1>        0.000
     10 C18         4.2167    4.7414    0.8511 C.2        1 <1>        0.000
     11 C19         4.8823    4.5051   -0.2914 C.2        1 <1>        0.000
     12 C20         6.3500    4.4606   -0.4022 C.2        1 <1>        0.000
     13 O5          7.0342    4.3553    0.6050 O.2        1 <1>        0.000
     14 O6          6.9127    4.5395   -1.6125 O.3        1 <1>        0.000
     15 H          -4.1696    2.8796    2.2472 H.spc      1 <1>        0.000
     16 H          -4.2458    5.8297    3.0257 H.spc      1 <1>        0.000
     17 H          -1.8805    3.9514    2.2001 H.spc      1 <1>        0.000
     18 H          -1.9643    6.6462    3.6245 H.spc      1 <1>        0.000
     19 H           0.5272    6.2937    3.7864 H.spc      1 <1>        0.000
     20 H           0.0302    4.3644    1.4739 H.spc      1 <1>        0.000
     21 H           2.6430    4.9449    3.0174 H.spc      1 <1>        0.000
     22 H           2.1817    4.7285    0.0126 H.spc      1 <1>        0.000
     23 H           4.7944    4.9076    1.7603 H.spc      1 <1>        0.000
     24 H           4.2978    4.3352   -1.1956 H.spc      1 <1>        0.000
     25 H           6.2261    4.6172   -2.2789 H.spc      1 <1>        0.000
@<TRIPOS>BOND
     1    6    8 1  
     2   12   13 2  
     3    1    7 1  
     4    2    3 1  
     5    8    9 2  
     6    1    2 2  
     7   10   11 2  
     8    4    5 1  
     9    9   10 1  
    10    3    4 2  
    11   11   12 1  
    12   12   14 1  
    13    5    6 2  
    14    1   15 1  
    15    2   16 1  
    16    3   17 1  
    17    4   18 1  
    18    5   19 1  
    19    6   20 1  
    20    8   21 1  
    21    9   22 1  
    22   10   23 1  
    23   11   24 1  
    24   14   25 1  
# Name:          frag3-254-3/31924 -- energy: -1.482914
# Creation time: Sat Jun  5 12:52:40 2010


@<TRIPOS>MOLECULE
frag3-254-3/31924 -- energy: -1.482914
   25    24     1     1     1
SMALL
USER_CHARGES


@<TRIPOS>ATOM
      1 C9         -4.7287    4.3259    2.5752 C.2        1 <1>        0.000
      2 C10        -3.5773    4.5162    3.2298 C.2        1 <1>        0.000
      3 C11        -2.2654    4.5914    2.5894 C.2        1 <1>        0.000
      4 C12        -1.1647    5.0710    3.1872 C.2        1 <1>        0.000
      5 C13         0.1491    5.1422    2.5402 C.2        1 <1>        0.000
      6 C14         0.3321    5.5322    1.2672 C.2        1 <1>        0.000
      7 Cl2        -6.2534    4.2454    3.4089 Cl         1 <1>        0.000
      8 C16         1.6474    5.6081    0.6235 C.2        1 <1>        0.000
      9 C17         2.6502    4.7516    0.8759 C.2        1 <1>        0.000
     10 C18         3.9667    4.8175    0.2283 C.2        1 <1>        0.000
     11 C19         5.0927    4.3583    0.7950 C.2        1 <1>        0.000
     12 C20         6.4222    4.4091    0.1632 C.2        1 <1>        0.000
     13 O5          7.4237    4.2349    0.8448 O.2        1 <1>        0.000
     14 O6          6.5145    4.6461   -1.1479 O.3        1 <1>        0.000
     15 H          -4.7108    4.2185    1.4907 H.spc      1 <1>        0.000
     16 H          -3.6205    4.6223    4.3138 H.spc      1 <1>        0.000
     17 H          -2.1762    4.2358    1.5629 H.spc      1 <1>        0.000
     18 H          -1.2519    5.4285    4.2132 H.spc      1 <1>        0.000
     19 H           1.0262    4.8633    3.1242 H.spc      1 <1>        0.000
     20 H          -0.5450    5.8071    0.6813 H.spc      1 <1>        0.000
     21 H           1.8208    6.4044   -0.1004 H.spc      1 <1>        0.000
     22 H           2.4768    3.9601    1.6050 H.spc      1 <1>        0.000
     23 H           4.0324    5.2627   -0.7645 H.spc      1 <1>        0.000
     24 H           5.0187    3.9182    1.7895 H.spc      1 <1>        0.000
     25 H           5.6342    4.7564   -1.5147 H.spc      1 <1>        0.000
@<TRIPOS>BOND
     1    6    8 1  
     2   12   13 2  
     3    1    7 1  
     4    2    3 1  
     5    8    9 2  
     6    1    2 2  
     7   10   11 2  
     8    4    5 1  
     9    9   10 1  
    10    3    4 2  
    11   11   12 1  
    12   12   14 1  
    13    5    6 2  
    14    1   15 1  
    15    2   16 1  
    16    3   17 1  
    17    4   18 1  
    18    5   19 1  
    19    6   20 1  
    20    8   21 1  
    21    9   22 1  
    22   10   23 1  
    23   11   24 1  
    24   14   25 1  
# Name:          frag3-254-3/31924 -- energy: -2.239337
# Creation time: Sat Jun  5 12:52:40 2010


@<TRIPOS>MOLECULE
frag3-254-3/31924 -- energy: -2.239337
   25    24     1     1     1
SMALL
USER_CHARGES


@<TRIPOS>ATOM
      1 C9         -4.5567    4.4569    2.3330 C.2        1 <1>        0.000
      2 C10        -3.7598    5.4861    2.6485 C.2        1 <1>        0.000
      3 C11        -2.3426    5.5666    2.3081 C.2        1 <1>        0.000
      4 C12        -1.4139    4.7213    2.7816 C.2        1 <1>        0.000
      5 C13         0.0073    4.7860    2.4367 C.2        1 <1>        0.000
      6 C14         0.9556    4.0237    3.0025 C.2        1 <1>        0.000
      7 Cl2        -6.2360    4.4249    2.7772 Cl         1 <1>        0.000
      8 C16         2.3737    4.0891    2.6417 C.2        1 <1>        0.000
      9 C17         2.8201    4.4898    1.4398 C.2        1 <1>        0.000
     10 C18         4.2386    4.5709    1.0755 C.2        1 <1>        0.000
     11 C19         4.6702    4.8269   -0.1705 C.2        1 <1>        0.000
     12 C20         6.0885    4.9194   -0.5544 C.2        1 <1>        0.000
     13 O5          6.9192    5.2824    0.2653 O.2        1 <1>        0.000
     14 O6          6.4448    4.6059   -1.8042 O.3        1 <1>        0.000
     15 H          -4.1394    3.6146    1.7813 H.spc      1 <1>        0.000
     16 H          -4.1991    6.3197    3.1964 H.spc      1 <1>        0.000
     17 H          -2.0204    6.3579    1.6312 H.spc      1 <1>        0.000
     18 H          -1.7382    3.9374    3.4660 H.spc      1 <1>        0.000
     19 H           0.3148    5.4988    1.6715 H.spc      1 <1>        0.000
     20 H           0.6535    3.3157    3.7743 H.spc      1 <1>        0.000
     21 H           3.1087    3.7959    3.3913 H.spc      1 <1>        0.000
     22 H           2.0825    4.7722    0.6886 H.spc      1 <1>        0.000
     23 H           4.9819    4.4152    1.8574 H.spc      1 <1>        0.000
     24 H           3.9213    4.9759   -0.9483 H.spc      1 <1>        0.000
     25 H           5.6664    4.3450   -2.3018 H.spc      1 <1>        0.000
@<TRIPOS>BOND
     1    6    8 1  
     2   12   13 2  
     3    1    7 1  
     4    2    3 1  
     5    8    9 2  
     6    1    2 2  
     7   10   11 2  
     8    4    5 1  
     9    9   10 1  
    10    3    4 2  
    11   11   12 1  
    12   12   14 1  
    13    5    6 2  
    14    1   15 1  
    15    2   16 1  
    16    3   17 1  
    17    4   18 1  
    18    5   19 1  
    19    6   20 1  
    20    8   21 1  
    21    9   22 1  
    22   10   23 1  
    23   11   24 1  
    24   14   25 1  
# Name:          frag3-254-3/31924 -- energy: -2.133820
# Creation time: Sat Jun  5 12:52:40 2010


@<TRIPOS>MOLECULE
frag3-254-3/31924 -- energy: -2.133820
   25    24     1     1     1
SMALL
USER_CHARGES


@<TRIPOS>ATOM
      1 C9         -5.0961    4.5568    2.3821 C.2        1 <1>        0.000
      2 C10        -3.8839    4.8171    2.8854 C.2        1 <1>        0.000
      3 C11        -2.6287    4.6284    2.1621 C.2        1 <1>        0.000
      4 C12        -1.4154    4.7361    2.7204 C.2        1 <1>        0.000
      5 C13        -0.1570    4.5407    1.9950 C.2        1 <1>        0.000
      6 C14         1.0420    4.9250    2.4536 C.2        1 <1>        0.000
      7 Cl2        -6.5468    4.8033    3.3080 Cl         1 <1>        0.000
      8 C16         2.2990    4.7192    1.7296 C.2        1 <1>        0.000
      9 C17         3.5137    4.9532    2.2489 C.2        1 <1>        0.000
     10 C18         4.7706    4.7334    1.5227 C.2        1 <1>        0.000
     11 C19         4.8879    4.8997    0.1921 C.2        1 <1>        0.000
     12 C20         6.1355    4.6925   -0.5613 C.2        1 <1>        0.000
     13 O5          7.1160    4.2266   -0.0002 O.2        1 <1>        0.000
     14 O6          6.1723    5.0180   -1.8577 O.3        1 <1>        0.000
     15 H          -5.1763    4.1795    1.3626 H.spc      1 <1>        0.000
     16 H          -3.8292    5.1962    3.9059 H.spc      1 <1>        0.000
     17 H          -2.6826    4.3846    1.1011 H.spc      1 <1>        0.000
     18 H          -1.3609    4.9846    3.7803 H.spc      1 <1>        0.000
     19 H          -0.1990    4.0522    1.0215 H.spc      1 <1>        0.000
     20 H           1.0847    5.4205    3.4235 H.spc      1 <1>        0.000
     21 H           2.2438    4.3529    0.7045 H.spc      1 <1>        0.000
     22 H           3.5708    5.3288    3.2706 H.spc      1 <1>        0.000
     23 H           5.6493    4.4211    2.0870 H.spc      1 <1>        0.000
     24 H           4.0020    5.2076   -0.3633 H.spc      1 <1>        0.000
     25 H           5.3179    5.3659   -2.1235 H.spc      1 <1>        0.000
@<TRIPOS>BOND
     1    6    8 1  
     2   12   13 2  
     3    1    7 1  
     4    2    3 1  
     5    8    9 2  
     6    1    2 2  
     7   10   11 2  
     8    4    5 1  
     9    9   10 1  
    10    3    4 2  
    11   11   12 1  
    12   12   14 1  
    13    5    6 2  
    14    1   15 1  
    15    2   16 1  
    16    3   17 1  
    17    4   18 1  
    18    5   19 1  
    19    6   20 1  
    20    8   21 1  
    21    9   22 1  
    22   10   23 1  
    23   11   24 1  
    24   14   25 1  
# Name:          frag3-254-3/31924 -- energy: -1.572305
# Creation time: Sat Jun  5 12:52:40 2010


@<TRIPOS>MOLECULE
frag3-254-3/31924 -- energy: -1.572305
   25    24     1     1     1
SMALL
USER_CHARGES


@<TRIPOS>ATOM
      1 C9         -5.0091    5.4606    2.9719 C.2        1 <1>        0.000
      2 C10        -3.8365    4.8609    3.2079 C.2        1 <1>        0.000
      3 C11        -2.5884    5.1919    2.5175 C.2        1 <1>        0.000
      4 C12        -1.5235    4.3802    2.4680 C.2        1 <1>        0.000
      5 C13        -0.2754    4.7086    1.7679 C.2        1 <1>        0.000
      6 C14         0.7355    3.8456    1.5975 C.2        1 <1>        0.000
      7 Cl2        -6.4540    5.0085    3.8318 Cl         1 <1>        0.000
      8 C16         1.9782    4.1758    0.8885 C.2        1 <1>        0.000
      9 C17         3.1624    3.6040    1.1495 C.2        1 <1>        0.000
     10 C18         4.4039    3.9308    0.4324 C.2        1 <1>        0.000
     11 C19         5.2069    4.9489    0.7799 C.2        1 <1>        0.000
     12 C20         6.4572    5.2963    0.0821 C.2        1 <1>        0.000
     13 O5          7.2956    5.9845    0.6483 O.2        1 <1>        0.000
     14 O6          6.6561    4.8533   -1.1625 O.3        1 <1>        0.000
     15 H          -5.0610    6.2512    2.2233 H.spc      1 <1>        0.000
     16 H          -3.8086    4.0752    3.9629 H.spc      1 <1>        0.000
     17 H          -2.5216    6.1562    2.0137 H.spc      1 <1>        0.000
     18 H          -1.5876    3.4189    2.9778 H.spc      1 <1>        0.000
     19 H          -0.1645    5.7143    1.3626 H.spc      1 <1>        0.000
     20 H           0.6293    2.8417    2.0085 H.spc      1 <1>        0.000
     21 H           1.9354    4.9306    0.1033 H.spc      1 <1>        0.000
     22 H           3.2075    2.8536    1.9388 H.spc      1 <1>        0.000
     23 H           4.6858    3.3166   -0.4228 H.spc      1 <1>        0.000
     24 H           4.9147    5.5588    1.6347 H.spc      1 <1>        0.000
     25 H           5.8983    4.3338   -1.4410 H.spc      1 <1>        0.000
@<TRIPOS>BOND
     1    6    8 1  
     2   12   13 2  
     3    1    7 1  
     4    2    3 1  
     5    8    9 2  
     6    1    2 2  
     7   10   11 2  
     8    4    5 1  
     9    9   10 1  
    10    3    4 2  
    11   11   12 1  
    12   12   14 1  
    13    5    6 2  
    14    1   15 1  
    15    2   16 1  
    16    3   17 1  
    17    4   18 1  
    18    5   19 1  
    19    6   20 1  
    20    8   21 1  
    21    9   22 1  
    22   10   23 1  
    23   11   24 1  
    24   14   25 1  
# Name:          frag3-254-3/31924 -- energy: -0.939408
# Creation time: Sat Jun  5 12:52:40 2010


@<TRIPOS>MOLECULE
frag3-254-3/31924 -- energy: -0.939408
   25    24     1     1     1
SMALL
USER_CHARGES


@<TRIPOS>ATOM
      1 C9         -4.1966    4.3285    3.6310 C.2        1 <1>        0.000
      2 C10        -3.9956    4.4030    2.3087 C.2        1 <1>        0.000
      3 C11        -2.6778    4.4403    1.6780 C.2        1 <1>        0.000
      4 C12        -1.6368    5.1270    2.1752 C.2        1 <1>        0.000
      5 C13        -0.3086    5.1629    1.5579 C.2        1 <1>        0.000
      6 C14         0.7738    5.7058    2.1352 C.2        1 <1>        0.000
      7 Cl2        -5.7947    4.2934    4.3142 Cl         1 <1>        0.000
      8 C16         2.1020    5.7251    1.5147 C.2        1 <1>        0.000
      9 C17         2.6123    4.6985    0.8144 C.2        1 <1>        0.000
     10 C18         3.9364    4.7182    0.1806 C.2        1 <1>        0.000
     11 C19         5.0673    4.3942    0.8283 C.2        1 <1>        0.000
     12 C20         6.4069    4.4028    0.2169 C.2        1 <1>        0.000
     13 O5          7.3711    4.0190    0.8657 O.2        1 <1>        0.000
     14 O6          6.5494    4.8313   -1.0399 O.3        1 <1>        0.000
     15 H          -3.3345    4.2888    4.2968 H.spc      1 <1>        0.000
     16 H          -4.8717    4.4381    1.6612 H.spc      1 <1>        0.000
     17 H          -2.5323    3.8804    0.7542 H.spc      1 <1>        0.000
     18 H          -1.7891    5.6925    3.0945 H.spc      1 <1>        0.000
     19 H          -0.1927    4.7211    0.5682 H.spc      1 <1>        0.000
     20 H           0.6594    6.1577    3.1205 H.spc      1 <1>        0.000
     21 H           2.7096    6.6229    1.6280 H.spc      1 <1>        0.000
     22 H           2.0075    3.7976    0.7106 H.spc      1 <1>        0.000
     23 H           4.0049    5.0102   -0.8673 H.spc      1 <1>        0.000
     24 H           4.9884    4.1056    1.8764 H.spc      1 <1>        0.000
     25 H           5.6928    5.0902   -1.3876 H.spc      1 <1>        0.000
@<TRIPOS>BOND
     1    6    8 1  
     2   12   13 2  
     3    1    7 1  
     4    2    3 1  
     5    8    9 2  
     6    1    2 2  
     7   10   11 2  
     8    4    5 1  
     9    9   10 1  
    10    3    4 2  
    11   11   12 1  
    12   12   14 1  
    13    5    6 2  
    14    1   15 1  
    15    2   16 1  
    16    3   17 1  
    17    4   18 1  
    18    5   19 1  
    19    6   20 1  
    20    8   21 1  
    21    9   22 1  
    22   10   23 1  
    23   11   24 1  
    24   14   25 1  
# Name:          frag3-254-3/31924 -- energy: -2.188130
# Creation time: Sat Jun  5 12:52:40 2010


@<TRIPOS>MOLECULE
frag3-254-3/31924 -- energy: -2.188130
   25    24     1     1     1
SMALL
USER_CHARGES


@<TRIPOS>ATOM
      1 C9         -4.4448    5.4184    3.5315 C.2        1 <1>        0.000
      2 C10        -3.8077    4.6268    2.6608 C.2        1 <1>        0.000
      3 C11        -2.4529    4.8590    2.1676 C.2        1 <1>        0.000
      4 C12        -1.7152    3.9371    1.5318 C.2        1 <1>        0.000
      5 C13        -0.3562    4.1761    1.0383 C.2        1 <1>        0.000
      6 C14         0.6904    4.4453    1.8341 C.2        1 <1>        0.000
      7 Cl2        -6.0612    5.0763    4.0715 Cl         1 <1>        0.000
      8 C16         2.0507    4.6780    1.3439 C.2        1 <1>        0.000
      9 C17         3.1428    4.6757    2.1235 C.2        1 <1>        0.000
     10 C18         4.5057    4.8958    1.6242 C.2        1 <1>        0.000
     11 C19         4.8685    4.6537    0.3506 C.2        1 <1>        0.000
     12 C20         6.2234    4.8736   -0.1803 C.2        1 <1>        0.000
     13 O5          7.1724    4.9527    0.5855 O.2        1 <1>        0.000
     14 O6          6.3932    4.9815   -1.5021 O.3        1 <1>        0.000
     15 H          -3.9354    6.3033    3.9131 H.spc      1 <1>        0.000
     16 H          -4.3369    3.7473    2.2941 H.spc      1 <1>        0.000
     17 H          -2.0136    5.8438    2.3263 H.spc      1 <1>        0.000
     18 H          -2.1524    2.9514    1.3726 H.spc      1 <1>        0.000
     19 H          -0.1855    4.1327   -0.0374 H.spc      1 <1>        0.000
     20 H           0.5177    4.4936    2.9093 H.spc      1 <1>        0.000
     21 H           2.1844    4.8649    0.2784 H.spc      1 <1>        0.000
     22 H           3.0101    4.5000    3.1910 H.spc      1 <1>        0.000
     23 H           5.2585    5.2726    2.3166 H.spc      1 <1>        0.000
     24 H           4.1098    4.2700   -0.3315 H.spc      1 <1>        0.000
     25 H           5.5437    4.8948   -1.9408 H.spc      1 <1>        0.000
@<TRIPOS>BOND
     1    6    8 1  
     2   12   13 2  
     3    1    7 1  
     4    2    3 1  
     5    8    9 2  
     6    1    2 2  
     7   10   11 2  
     8    4    5 1  
     9    9   10 1  
    10    3    4 2  
    11   11   12 1  
    12   12   14 1  
    13    5    6 2  
    14    1   15 1  
    15    2   16 1  
    16    3   17 1  
    17    4   18 1  
    18    5   19 1  
    19    6   20 1  
    20    8   21 1  
    21    9   22 1  
    22   10   23 1  
    23   11   24 1  
    24   14   25 1  
# Name:          frag3-254-3/31924 -- energy: -0.908639
# Creation time: Sat Jun  5 12:52:40 2010


@<TRIPOS>MOLECULE
frag3-254-3/31924 -- energy: -0.908639
   25    24     1     1     1
SMALL
USER_CHARGES


@<TRIPOS>ATOM
      1 C9         -4.6424    5.3847    2.5938 C.2        1 <1>        0.000
      2 C10        -3.6228    4.7379    3.1704 C.2        1 <1>        0.000
      3 C11        -2.2994    4.5800    2.5706 C.2        1 <1>        0.000
      4 C12        -1.4031    3.6613    2.9604 C.2        1 <1>        0.000
      5 C13        -0.0790    3.5034    2.3497 C.2        1 <1>        0.000
      6 C14         0.6282    4.5213    1.8337 C.2        1 <1>        0.000
      7 Cl2        -6.1928    5.5268    3.3695 Cl         1 <1>        0.000
      8 C16         1.9553    4.3692    1.2296 C.2        1 <1>        0.000
      9 C17         2.5957    5.3447    0.5689 C.2        1 <1>        0.000
     10 C18         3.9311    5.1917   -0.0238 C.2        1 <1>        0.000
     11 C19         5.0434    5.0141    0.7082 C.2        1 <1>        0.000
     12 C20         6.3930    4.8469    0.1422 C.2        1 <1>        0.000
     13 O5          7.3300    4.5765    0.8811 O.2        1 <1>        0.000
     14 O6          6.5720    4.9916   -1.1734 O.3        1 <1>        0.000
     15 H          -4.4975    5.8346    1.6116 H.spc      1 <1>        0.000
     16 H          -3.7905    4.2991    4.1540 H.spc      1 <1>        0.000
     17 H          -2.0237    5.2501    1.7563 H.spc      1 <1>        0.000
     18 H          -1.6745    2.9936    3.7781 H.spc      1 <1>        0.000
     19 H           0.3550    2.5042    2.3127 H.spc      1 <1>        0.000
     20 H           0.1901    5.5189    1.8658 H.spc      1 <1>        0.000
     21 H           2.4521    3.4036    1.3233 H.spc      1 <1>        0.000
     22 H           2.0960    6.3079    0.4656 H.spc      1 <1>        0.000
     23 H           4.0239    5.2238   -1.1094 H.spc      1 <1>        0.000
     24 H           4.9404    4.9923    1.7931 H.spc      1 <1>        0.000
     25 H           5.7320    5.2007   -1.5884 H.spc      1 <1>        0.000
@<TRIPOS>BOND
     1    6    8 1  
     2   12   13 2  
     3    1    7 1  
     4    2    3 1  
     5    8    9 2  
     6    1    2 2  
     7   10   11 2  
     8    4    5 1  
     9    9   10 1  
    10    3    4 2  
    11   11   12 1  
    12   12   14 1  
    13    5    6 2  
    14    1   15 1  
    15    2   16 1  
    16    3   17 1  
    17    4   18 1  
    18    5   19 1  
    19    6   20 1  
    20    8   21 1  
    21    9   22 1  
    22   10   23 1  
    23   11   24 1  
    24   14   25 1  
# Name:          frag3-254-3/31924 -- energy: -2.279989
# Creation time: Sat Jun  5 12:52:40 2010


@<TRIPOS>MOLECULE
frag3-254-3/31924 -- energy: -2.279989
   25    24     1     1     1
SMALL
USER_CHARGES


@<TRIPOS>ATOM
      1 C9         -4.8672    5.3969    3.4040 C.2        1 <1>        0.000
      2 C10        -3.9305    4.6278    2.8371 C.2        1 <1>        0.000
      3 C11        -2.5954    5.0912    2.4628 C.2        1 <1>        0.000
      4 C12        -1.5519    4.2787    2.2469 C.2        1 <1>        0.000
      5 C13        -0.2143    4.7442    1.8670 C.2        1 <1>        0.000
      6 C14         0.6910    3.9863    1.2315 C.2        1 <1>        0.000
      7 Cl2        -6.4364    4.7728    3.8203 Cl         1 <1>        0.000
      8 C16         2.0234    4.4612    0.8457 C.2        1 <1>        0.000
      9 C17         3.0708    4.5097    1.6843 C.2        1 <1>        0.000
     10 C18         4.4080    4.9773    1.2961 C.2        1 <1>        0.000
     11 C19         5.1190    4.4220    0.2984 C.2        1 <1>        0.000
     12 C20         6.4556    4.8772   -0.1188 C.2        1 <1>        0.000
     13 O5          7.1830    5.4460    0.6821 O.2        1 <1>        0.000
     14 O6          6.8540    4.6586   -1.3765 O.3        1 <1>        0.000
     15 H          -4.6407    6.4429    3.6105 H.spc      1 <1>        0.000
     16 H          -4.1798    3.5850    2.6410 H.spc      1 <1>        0.000
     17 H          -2.4391    6.1643    2.3525 H.spc      1 <1>        0.000
     18 H          -1.7069    3.2058    2.3607 H.spc      1 <1>        0.000
     19 H           0.0609    5.7690    2.1165 H.spc      1 <1>        0.000
     20 H           0.4211    2.9587    0.9879 H.spc      1 <1>        0.000
     21 H           2.1723    4.7942   -0.1815 H.spc      1 <1>        0.000
     22 H           2.9200    4.1830    2.7132 H.spc      1 <1>        0.000
     23 H           4.8447    5.8135    1.8421 H.spc      1 <1>        0.000
     24 H           4.6772    3.5808   -0.2357 H.spc      1 <1>        0.000
     25 H           6.1583    4.2038   -1.8569 H.spc      1 <1>        0.000
@<TRIPOS>BOND
     1    6    8 1  
     2   12   13 2  
     3    1    7 1  
     4    2    3 1  
     5    8    9 2  
     6    1    2 2  
     7   10   11 2  
     8    4    5 1  
     9    9   10 1  
    10    3    4 2  
    11   11   12 1  
    12   12   14 1  
    13    5    6 2  
    14    1   15 1  
    15    2   16 1  
    16    3   17 1  
    17    4   18 1  
    18    5   19 1  
    19    6   20 1  
    20    8   21 1  
    21    9   22 1  
    22   10   23 1  
    23   11   24 1  
    24   14   25 1  
# Name:          frag3-254-3/31924 -- energy: -2.205298
# Creation time: Sat Jun  5 12:52:40 2010


@<TRIPOS>MOLECULE
frag3-254-3/31924 -- energy: -2.205298
   25    24     1     1     1
SMALL
USER_CHARGES


@<TRIPOS>ATOM
      1 C9         -4.8731    4.6513    2.0073 C.2        1 <1>        0.000
      2 C10        -3.7717    4.8386    2.7435 C.2        1 <1>        0.000
      3 C11        -2.4079    4.6266    2.2564 C.2        1 <1>        0.000
      4 C12        -1.3129    4.7505    3.0183 C.2        1 <1>        0.000
      5 C13         0.0536    4.5316    2.5307 C.2        1 <1>        0.000
      6 C14         1.1533    4.7179    3.2756 C.2        1 <1>        0.000
      7 Cl2        -6.4643    4.9213    2.6593 Cl         1 <1>        0.000
      8 C16         2.5163    4.4884    2.7819 C.2        1 <1>        0.000
      9 C17         2.9433    4.8759    1.5698 C.2        1 <1>        0.000
     10 C18         4.3092    4.6567    1.0742 C.2        1 <1>        0.000
     11 C19         4.7081    4.9907   -0.1632 C.2        1 <1>        0.000
     12 C20         6.0754    4.7874   -0.6774 C.2        1 <1>        0.000
     13 O5          6.9967    4.6062    0.1027 O.2        1 <1>        0.000
     14 O6          6.2832    4.8070   -1.9982 O.3        1 <1>        0.000
     15 H          -4.7714    4.3214    0.9734 H.spc      1 <1>        0.000
     16 H          -3.8984    5.1709    3.7738 H.spc      1 <1>        0.000
     17 H          -2.2750    4.3512    1.2102 H.spc      1 <1>        0.000
     18 H          -1.4451    5.0308    4.0633 H.spc      1 <1>        0.000
     19 H           0.1828    4.1975    1.5012 H.spc      1 <1>        0.000
     20 H           1.0280    5.0582    4.3035 H.spc      1 <1>        0.000
     21 H           3.2210    3.9747    3.4359 H.spc      1 <1>        0.000
     22 H           2.2351    5.3831    0.9145 H.spc      1 <1>        0.000
     23 H           5.0357    4.1994    1.7459 H.spc      1 <1>        0.000
     24 H           3.9740    5.4413   -0.8312 H.spc      1 <1>        0.000
     25 H           5.4501    4.9606   -2.4498 H.spc      1 <1>        0.000
@<TRIPOS>BOND
     1    6    8 1  
     2   12   13 2  
     3    1    7 1  
     4    2    3 1  
     5    8    9 2  
     6    1    2 2  
     7   10   11 2  
     8    4    5 1  
     9    9   10 1  
    10    3    4 2  
    11   11   12 1  
    12   12   14 1  
    13    5    6 2  
    14    1   15 1  
    15    2   16 1  
    16    3   17 1  
    17    4   18 1  
    18    5   19 1  
    19    6   20 1  
    20    8   21 1  
    21    9   22 1  
    22   10   23 1  
    23   11   24 1  
    24   14   25 1  
# Name:          frag3-254-3/31924 -- energy: -1.040408
# Creation time: Sat Jun  5 12:52:40 2010


@<TRIPOS>MOLECULE
frag3-254-3/31924 -- energy: -1.040408
   25    24     1     1     1
SMALL
USER_CHARGES


@<TRIPOS>ATOM
      1 C9         -4.9431    4.6799    2.7067 C.2        1 <1>        0.000
      2 C10        -3.7612    4.9652    3.2654 C.2        1 <1>        0.000
      3 C11        -2.5255    5.1850    2.5118 C.2        1 <1>        0.000
      4 C12        -1.3007    4.9290    2.9932 C.2        1 <1>        0.000
      5 C13        -0.0637    5.1390    2.2311 C.2        1 <1>        0.000
      6 C14         0.4218    4.2587    1.3422 C.2        1 <1>        0.000
      7 Cl2        -6.3704    4.4259    3.6706 Cl         1 <1>        0.000
      8 C16         1.6529    4.4768    0.5728 C.2        1 <1>        0.000
      9 C17         2.8852    4.3160    1.0775 C.2        1 <1>        0.000
     10 C18         4.1194    4.5266    0.3069 C.2        1 <1>        0.000
     11 C19         5.3306    4.6433    0.8711 C.2        1 <1>        0.000
     12 C20         6.5812    4.8489    0.1201 C.2        1 <1>        0.000
     13 O5          7.6130    5.1136    0.7227 O.2        1 <1>        0.000
     14 O6          6.5698    4.7422   -1.2114 O.3        1 <1>        0.000
     15 H          -5.0140    4.6047    1.6216 H.spc      1 <1>        0.000
     16 H          -3.7155    5.0387    4.3520 H.spc      1 <1>        0.000
     17 H          -2.6060    5.5803    1.4992 H.spc      1 <1>        0.000
     18 H          -1.2186    4.5426    4.0091 H.spc      1 <1>        0.000
     19 H           0.4918    6.0621    2.3966 H.spc      1 <1>        0.000
     20 H          -0.1279    3.3311    1.1827 H.spc      1 <1>        0.000
     21 H           1.5603    4.7871   -0.4680 H.spc      1 <1>        0.000
     22 H           2.9769    4.0113    2.1200 H.spc      1 <1>        0.000
     23 H           4.0464    4.5912   -0.7787 H.spc      1 <1>        0.000
     24 H           5.3938    4.5819    1.9575 H.spc      1 <1>        0.000
     25 H           5.6810    4.5317   -1.5068 H.spc      1 <1>        0.000
@<TRIPOS>BOND
     1    6    8 1  
     2   12   13 2  
     3    1    7 1  
     4    2    3 1  
     5    8    9 2  
     6    1    2 2  
     7   10   11 2  
     8    4    5 1  
     9    9   10 1  
    10    3    4 2  
    11   11   12 1  
    12   12   14 1  
    13    5    6 2  
    14    1   15 1  
    15    2   16 1  
    16    3   17 1  
    17    4   18 1  
    18    5   19 1  
    19    6   20 1  
    20    8   21 1  
    21    9   22 1  
    22   10   23 1  
    23   11   24 1  
    24   14   25 1  
# Name:          frag3-254-3/31924 -- energy: -2.262285
# Creation time: Sat Jun  5 12:52:40 2010


@<TRIPOS>MOLECULE
frag3-254-3/31924 -- energy: -2.262285
   25    24     1     1     1
SMALL
USER_CHARGES


@<TRIPOS>ATOM
      1 C9         -4.3744    4.4228    3.5287 C.2        1 <1>        0.000
      2 C10        -3.9381    4.4753    2.2635 C.2        1 <1>        0.000
      3 C11        -2.5544    4.2564    1.8568 C.2        1 <1>        0.000
      4 C12        -1.5447    5.0823    2.1727 C.2        1 <1>        0.000
      5 C13        -0.1519    4.8648    1.7809 C.2        1 <1>        0.000
      6 C14         0.8369    5.7483    1.9868 C.2        1 <1>        0.000
      7 Cl2        -6.0380    4.7018    3.9415 Cl         1 <1>        0.000
      8 C16         2.2290    5.5153    1.6009 C.2        1 <1>        0.000
      9 C17         2.7779    4.2926    1.4844 C.2        1 <1>        0.000
     10 C18         4.1680    4.0544    1.0840 C.2        1 <1>        0.000
     11 C19         4.8568    4.8939    0.2874 C.2        1 <1>        0.000
     12 C20         6.2547    4.6871   -0.1219 C.2        1 <1>        0.000
     13 O5          7.0182    4.0702    0.6064 O.2        1 <1>        0.000
     14 O6          6.6691    5.1847   -1.2913 O.3        1 <1>        0.000
     15 H          -3.6634    4.1980    4.3237 H.spc      1 <1>        0.000
     16 H          -4.6671    4.6968    1.4841 H.spc      1 <1>        0.000
     17 H          -2.3275    3.3714    1.2623 H.spc      1 <1>        0.000
     18 H          -1.7771    5.9717    2.7584 H.spc      1 <1>        0.000
     19 H           0.0987    3.9244    1.2901 H.spc      1 <1>        0.000
     20 H           0.5889    6.6938    2.4692 H.spc      1 <1>        0.000
     21 H           2.8573    6.3821    1.3961 H.spc      1 <1>        0.000
     22 H           2.1516    3.4271    1.7007 H.spc      1 <1>        0.000
     23 H           4.6671    3.1563    1.4479 H.spc      1 <1>        0.000
     24 H           4.3453    5.7845   -0.0778 H.spc      1 <1>        0.000
     25 H           5.9390    5.6340   -1.7234 H.spc      1 <1>        0.000
@<TRIPOS>BOND
     1    6    8 1  
     2   12   13 2  
     3    1    7 1  
     4    2    3 1  
     5    8    9 2  
     6    1    2 2  
     7   10   11 2  
     8    4    5 1  
     9    9   10 1  
    10    3    4 2  
    11   11   12 1  
    12   12   14 1  
    13    5    6 2  
    14    1   15 1  
    15    2   16 1  
    16    3   17 1  
    17    4   18 1  
    18    5   19 1  
    19    6   20 1  
    20    8   21 1  
    21    9   22 1  
    22   10   23 1  
    23   11   24 1  
    24   14   25 1  
# Name:          frag3-254-3/31924 -- energy: -2.201299
# Creation time: Sat Jun  5 12:52:40 2010


@<TRIPOS>MOLECULE
frag3-254-3/31924 -- energy: -2.201299
   25    24     1     1     1
SMALL
USER_CHARGES


@<TRIPOS>ATOM
      1 C9         -4.4902    4.5896    3.4582 C.2        1 <1>        0.000
      2 C10        -3.8118    5.4915    2.7372 C.2        1 <1>        0.000
      3 C11        -2.3567    5.5486    2.6433 C.2        1 <1>        0.000
      4 C12        -1.6104    4.6039    2.0502 C.2        1 <1>        0.000
      5 C13        -0.1509    4.6509    1.9533 C.2        1 <1>        0.000
      6 C14         0.6073    3.6431    1.4949 C.2        1 <1>        0.000
      7 Cl2        -6.2261    4.5807    3.5230 Cl         1 <1>        0.000
      8 C16         2.0669    3.7049    1.3922 C.2        1 <1>        0.000
      9 C17         2.7585    4.8507    1.2680 C.2        1 <1>        0.000
     10 C18         4.2202    4.9201    1.1763 C.2        1 <1>        0.000
     11 C19         4.8900    4.8501    0.0120 C.2        1 <1>        0.000
     12 C20         6.3558    4.9193   -0.1059 C.2        1 <1>        0.000
     13 O5          7.0470    4.9689    0.9009 O.2        1 <1>        0.000
     14 O6          6.9095    4.9277   -1.3228 O.3        1 <1>        0.000
     15 H          -3.9364    3.8384    4.0214 H.spc      1 <1>        0.000
     16 H          -4.3859    6.2337    2.1825 H.spc      1 <1>        0.000
     17 H          -1.8468    6.4075    3.0797 H.spc      1 <1>        0.000
     18 H          -2.1238    3.7475    1.6130 H.spc      1 <1>        0.000
     19 H           0.3525    5.5629    2.2740 H.spc      1 <1>        0.000
     20 H           0.1084    2.7262    1.1811 H.spc      1 <1>        0.000
     21 H           2.6241    2.7684    1.4179 H.spc      1 <1>        0.000
     22 H           2.1986    5.7853    1.2333 H.spc      1 <1>        0.000
     23 H           4.7923    5.0340    2.0971 H.spc      1 <1>        0.000
     24 H           4.3099    4.7347   -0.9036 H.spc      1 <1>        0.000
     25 H           6.2186    4.8834   -1.9878 H.spc      1 <1>        0.000
@<TRIPOS>BOND
     1    6    8 1  
     2   12   13 2  
     3    1    7 1  
     4    2    3 1  
     5    8    9 2  
     6    1    2 2  
     7   10   11 2  
     8    4    5 1  
     9    9   10 1  
    10    3    4 2  
    11   11   12 1  
    12   12   14 1  
    13    5    6 2  
    14    1   15 1  
    15    2   16 1  
    16    3   17 1  
    17    4   18 1  
    18    5   19 1  
    19    6   20 1  
    20    8   21 1  
    21    9   22 1  
    22   10   23 1  
    23   11   24 1  
    24   14   25 1  
# Name:          frag3-254-3/31924 -- energy: -1.932250
# Creation time: Sat Jun  5 12:52:40 2010


@<TRIPOS>MOLECULE
frag3-254-3/31924 -- energy: -1.932250
   25    24     1     1     1
SMALL
USER_CHARGES


@<TRIPOS>ATOM
      1 C9         -4.6265    4.4298    2.9447 C.2        1 <1>        0.000
      2 C10        -3.6359    5.3231    3.0680 C.2        1 <1>        0.000
      3 C11        -2.3359    5.2061    2.4128 C.2        1 <1>        0.000
      4 C12        -1.6337    4.0618    2.3552 C.2        1 <1>        0.000
      5 C13        -0.3331    3.9355    1.6924 C.2        1 <1>        0.000
      6 C14         0.7082    4.7479    1.9333 C.2        1 <1>        0.000
      7 Cl2        -6.1488    4.6296    3.7591 Cl         1 <1>        0.000
      8 C16         2.0112    4.6216    1.2755 C.2        1 <1>        0.000
      9 C17         2.8043    5.6604    0.9727 C.2        1 <1>        0.000
     10 C18         4.1139    5.5282    0.3222 C.2        1 <1>        0.000
     11 C19         5.0606    4.6730    0.7459 C.2        1 <1>        0.000
     12 C20         6.3781    4.5099    0.1092 C.2        1 <1>        0.000
     13 O5          7.3030    4.0250    0.7472 O.2        1 <1>        0.000
     14 O6          6.5438    4.8982   -1.1576 O.3        1 <1>        0.000
     15 H          -4.4735    3.5528    2.3158 H.spc      1 <1>        0.000
     16 H          -3.8116    6.1945    3.6988 H.spc      1 <1>        0.000
     17 H          -1.9124    6.0950    1.9453 H.spc      1 <1>        0.000
     18 H          -2.0563    3.1759    2.8292 H.spc      1 <1>        0.000
     19 H          -0.2036    3.1366    0.9623 H.spc      1 <1>        0.000
     20 H           0.5765    5.5486    2.6611 H.spc      1 <1>        0.000
     21 H           2.3578    3.6213    1.0160 H.spc      1 <1>        0.000
     22 H           2.4558    6.6620    1.2246 H.spc      1 <1>        0.000
     23 H           4.3286    6.1528   -0.5449 H.spc      1 <1>        0.000
     24 H           4.8380    4.0595    1.6189 H.spc      1 <1>        0.000
     25 H           5.7167    5.2512   -1.4937 H.spc      1 <1>        0.000
@<TRIPOS>BOND
     1    6    8 1  
     2   12   13 2  
     3    1    7 1  
     4    2    3 1  
     5    8    9 2  
     6    1    2 2  
     7   10   11 2  
     8    4    5 1  
     9    9   10 1  
    10    3    4 2  
    11   11   12 1  
    12   12   14 1  
    13    5    6 2  
    14    1   15 1  
    15    2   16 1  
    16    3   17 1  
    17    4   18 1  
    18    5   19 1  
    19    6   20 1  
    20    8   21 1  
    21    9   22 1  
    22   10   23 1  
    23   11   24 1  
    24   14   25 1  
# Name:          frag3-254-3/31924 -- energy: -1.651143
# Creation time: Sat Jun  5 12:52:40 2010


@<TRIPOS>MOLECULE
frag3-254-3/31924 -- energy: -1.651143
   25    24     1     1     1
SMALL
USER_CHARGES


@<TRIPOS>ATOM
      1 C9         -4.3301    4.8882    3.4430 C.2        1 <1>        0.000
      2 C10        -3.5263    3.8705    3.1055 C.2        1 <1>        0.000
      3 C11        -2.1461    4.0242    2.6563 C.2        1 <1>        0.000
      4 C12        -1.5849    5.2131    2.3768 C.2        1 <1>        0.000
      5 C13        -0.2016    5.3791    1.9292 C.2        1 <1>        0.000
      6 C14         0.1923    5.2529    0.6515 C.2        1 <1>        0.000
      7 Cl2        -5.9660    4.6339    3.9662 Cl         1 <1>        0.000
      8 C16         1.5777    5.4217    0.2073 C.2        1 <1>        0.000
      9 C17         2.6179    4.7576    0.7360 C.2        1 <1>        0.000
     10 C18         4.0067    4.9167    0.2904 C.2        1 <1>        0.000
     11 C19         5.0511    4.3314    0.8961 C.2        1 <1>        0.000
     12 C20         6.4508    4.4728    0.4623 C.2        1 <1>        0.000
     13 O5          7.3557    4.2767    1.2628 O.2        1 <1>        0.000
     14 O6          6.7119    4.8113   -0.8025 O.3        1 <1>        0.000
     15 H          -3.9453    5.9065    3.3874 H.spc      1 <1>        0.000
     16 H          -3.9303    2.8602    3.1708 H.spc      1 <1>        0.000
     17 H          -1.5380    3.1269    2.5414 H.spc      1 <1>        0.000
     18 H          -2.1972    6.1077    2.4904 H.spc      1 <1>        0.000
     19 H           0.5539    5.6194    2.6772 H.spc      1 <1>        0.000
     20 H          -0.5618    5.0111   -0.0974 H.spc      1 <1>        0.000
     21 H           1.7757    6.1275   -0.5994 H.spc      1 <1>        0.000
     22 H           2.4182    4.0567    1.5466 H.spc      1 <1>        0.000
     23 H           4.2004    5.5442   -0.5796 H.spc      1 <1>        0.000
     24 H           4.8496    3.7093    1.7681 H.spc      1 <1>        0.000
     25 H           5.8864    4.9233   -1.2795 H.spc      1 <1>        0.000
@<TRIPOS>BOND
     1    6    8 1  
     2   12   13 2  
     3    1    7 1  
     4    2    3 1  
     5    8    9 2  
     6    1    2 2  
     7   10   11 2  
     8    4    5 1  
     9    9   10 1  
    10    3    4 2  
    11   11   12 1  
    12   12   14 1  
    13    5    6 2  
    14    1   15 1  
    15    2   16 1  
    16    3   17 1  
    17    4   18 1  
    18    5   19 1  
    19    6   20 1  
    20    8   21 1  
    21    9   22 1  
    22   10   23 1  
    23   11   24 1  
    24   14   25 1  
# Name:          frag3-254-3/31924 -- energy: -1.924195
# Creation time: Sat Jun  5 12:52:40 2010


@<TRIPOS>MOLECULE
frag3-254-3/31924 -- energy: -1.924195
   25    24     1     1     1
SMALL
USER_CHARGES


@<TRIPOS>ATOM
      1 C9         -4.5595    5.2358    3.5446 C.2        1 <1>        0.000
      2 C10        -3.7707    4.4921    2.7604 C.2        1 <1>        0.000
      3 C11        -2.3265    4.6527    2.6417 C.2        1 <1>        0.000
      4 C12        -1.5493    3.9239    1.8266 C.2        1 <1>        0.000
      5 C13        -0.1020    4.0975    1.7069 C.2        1 <1>        0.000
      6 C14         0.4990    5.2918    1.5608 C.2        1 <1>        0.000
      7 Cl2        -6.2758    4.9855    3.6298 Cl         1 <1>        0.000
      8 C16         1.9483    5.4644    1.4551 C.2        1 <1>        0.000
      9 C17         2.8157    4.4439    1.3391 C.2        1 <1>        0.000
     10 C18         4.2668    4.6096    1.2193 C.2        1 <1>        0.000
     11 C19         4.9172    4.5916    0.0421 C.2        1 <1>        0.000
     12 C20         6.3711    4.7692   -0.1039 C.2        1 <1>        0.000
     13 O5          7.0801    4.8388    0.8893 O.2        1 <1>        0.000
     14 O6          6.8947    4.8532   -1.3312 O.3        1 <1>        0.000
     15 H          -4.1105    6.0238    4.1492 H.spc      1 <1>        0.000
     16 H          -4.2423    3.7089    2.1669 H.spc      1 <1>        0.000
     17 H          -1.8468    5.4150    3.2556 H.spc      1 <1>        0.000
     18 H          -2.0251    3.1560    1.2167 H.spc      1 <1>        0.000
     19 H           0.5261    3.2072    1.7379 H.spc      1 <1>        0.000
     20 H          -0.1291    6.1816    1.5187 H.spc      1 <1>        0.000
     21 H           2.3474    6.4786    1.4714 H.spc      1 <1>        0.000
     22 H           2.4148    3.4303    1.3338 H.spc      1 <1>        0.000
     23 H           4.8482    4.7547    2.1298 H.spc      1 <1>        0.000
     24 H           4.3295    4.4354   -0.8625 H.spc      1 <1>        0.000
     25 H           6.1936    4.7789   -1.9828 H.spc      1 <1>        0.000
@<TRIPOS>BOND
     1    6    8 1  
     2   12   13 2  
     3    1    7 1  
     4    2    3 1  
     5    8    9 2  
     6    1    2 2  
     7   10   11 2  
     8    4    5 1  
     9    9   10 1  
    10    3    4 2  
    11   11   12 1  
    12   12   14 1  
    13    5    6 2  
    14    1   15 1  
    15    2   16 1  
    16    3   17 1  
    17    4   18 1  
    18    5   19 1  
    19    6   20 1  
    20    8   21 1  
    21    9   22 1  
    22   10   23 1  
    23   11   24 1  
    24   14   25 1  
# Name:          frag3-254-3/31924 -- energy: -2.202321
# Creation time: Sat Jun  5 12:52:40 2010


@<TRIPOS>MOLECULE
frag3-254-3/31924 -- energy: -2.202321
   25    24     1     1     1
SMALL
USER_CHARGES


@<TRIPOS>ATOM
      1 C9         -5.0089    4.0032    2.6693 C.2        1 <1>        0.000
      2 C10        -3.9583    4.7348    3.0580 C.2        1 <1>        0.000
      3 C11        -2.5635    4.3159    2.9181 C.2        1 <1>        0.000
      4 C12        -1.5341    5.1661    2.8025 C.2        1 <1>        0.000
      5 C13        -0.1355    4.7453    2.6629 C.2        1 <1>        0.000
      6 C14         0.7827    5.4205    1.9579 C.2        1 <1>        0.000
      7 Cl2        -6.6420    4.5693    2.8706 Cl         1 <1>        0.000
      8 C16         2.1826    5.0008    1.8270 C.2        1 <1>        0.000
      9 C17         3.0794    5.6156    1.0434 C.2        1 <1>        0.000
     10 C18         4.4836    5.1990    0.9220 C.2        1 <1>        0.000
     11 C19         5.0248    4.7581   -0.2255 C.2        1 <1>        0.000
     12 C20         6.4289    4.3378   -0.3724 C.2        1 <1>        0.000
     13 O5          6.8979    3.5062    0.3911 O.2        1 <1>        0.000
     14 O6          7.1717    4.8775   -1.3443 O.3        1 <1>        0.000
     15 H          -4.8374    3.0274    2.2148 H.spc      1 <1>        0.000
     16 H          -4.1546    5.7076    3.5089 H.spc      1 <1>        0.000
     17 H          -2.3486    3.2474    2.9072 H.spc      1 <1>        0.000
     18 H          -1.7488    6.2347    2.8128 H.spc      1 <1>        0.000
     19 H           0.1756    3.8280    3.1628 H.spc      1 <1>        0.000
     20 H           0.4715    6.3346    1.4523 H.spc      1 <1>        0.000
     21 H           2.5134    4.1361    2.4023 H.spc      1 <1>        0.000
     22 H           2.7477    6.4756    0.4616 H.spc      1 <1>        0.000
     23 H           5.1174    5.2504    1.8073 H.spc      1 <1>        0.000
     24 H           4.3832    4.7081   -1.1053 H.spc      1 <1>        0.000
     25 H           6.6409    5.5052   -1.8401 H.spc      1 <1>        0.000
@<TRIPOS>BOND
     1    6    8 1  
     2   12   13 2  
     3    1    7 1  
     4    2    3 1  
     5    8    9 2  
     6    1    2 2  
     7   10   11 2  
     8    4    5 1  
     9    9   10 1  
    10    3    4 2  
    11   11   12 1  
    12   12   14 1  
    13    5    6 2  
    14    1   15 1  
    15    2   16 1  
    16    3   17 1  
    17    4   18 1  
    18    5   19 1  
    19    6   20 1  
    20    8   21 1  
    21    9   22 1  
    22   10   23 1  
    23   11   24 1  
    24   14   25 1  
# Name:          frag3-254-3/31924 -- energy: -2.296231
# Creation time: Sat Jun  5 12:52:40 2010


@<TRIPOS>MOLECULE
frag3-254-3/31924 -- energy: -2.296231
   25    24     1     1     1
SMALL
USER_CHARGES


@<TRIPOS>ATOM
      1 C9         -5.0663    4.9033    2.5578 C.2        1 <1>        0.000
      2 C10        -3.8284    4.9549    3.0629 C.2        1 <1>        0.000
      3 C11        -2.6073    4.8051    2.2693 C.2        1 <1>        0.000
      4 C12        -1.3720    4.8106    2.7885 C.2        1 <1>        0.000
      5 C13        -0.1492    4.6517    1.9924 C.2        1 <1>        0.000
      6 C14         0.8846    3.8788    2.3571 C.2        1 <1>        0.000
      7 Cl2        -6.4723    5.0876    3.5676 Cl         1 <1>        0.000
      8 C16         2.1000    3.7157    1.5499 C.2        1 <1>        0.000
      9 C17         2.8699    4.7396    1.1499 C.2        1 <1>        0.000
     10 C18         4.0930    4.5797    0.3501 C.2        1 <1>        0.000
     11 C19         5.2559    5.1755    0.6554 C.2        1 <1>        0.000
     12 C20         6.4974    5.0217   -0.1227 C.2        1 <1>        0.000
     13 O5          7.5620    4.8636    0.4595 O.2        1 <1>        0.000
     14 O6          6.4418    5.0621   -1.4569 O.3        1 <1>        0.000
     15 H          -5.1976    4.7419    1.4878 H.spc      1 <1>        0.000
     16 H          -3.7221    5.1192    4.1352 H.spc      1 <1>        0.000
     17 H          -2.7091    4.6817    1.1911 H.spc      1 <1>        0.000
     18 H          -1.2692    4.9408    3.8658 H.spc      1 <1>        0.000
     19 H          -0.0770    5.1936    1.0494 H.spc      1 <1>        0.000
     20 H           0.8188    3.3428    3.3039 H.spc      1 <1>        0.000
     21 H           2.3934    2.7069    1.2593 H.spc      1 <1>        0.000
     22 H           2.5710    5.7484    1.4346 H.spc      1 <1>        0.000
     23 H           4.0532    3.9453   -0.5354 H.spc      1 <1>        0.000
     24 H           5.2838    5.8155    1.5373 H.spc      1 <1>        0.000
     25 H           5.5320    5.1918   -1.7344 H.spc      1 <1>        0.000
@<TRIPOS>BOND
     1    6    8 1  
     2   12   13 2  
     3    1    7 1  
     4    2    3 1  
     5    8    9 2  
     6    1    2 2  
     7   10   11 2  
     8    4    5 1  
     9    9   10 1  
    10    3    4 2  
    11   11   12 1  
    12   12   14 1  
    13    5    6 2  
    14    1   15 1  
    15    2   16 1  
    16    3   17 1  
    17    4   18 1  
    18    5   19 1  
    19    6   20 1  
    20    8   21 1  
    21    9   22 1  
    22   10   23 1  
    23   11   24 1  
    24   14   25 1  
# Name:          frag3-254-3/31924 -- energy: -2.168253
# Creation time: Sat Jun  5 12:52:40 2010


@<TRIPOS>MOLECULE
frag3-254-3/31924 -- energy: -2.168253
   25    24     1     1     1
SMALL
USER_CHARGES


@<TRIPOS>ATOM
      1 C9         -4.5920    4.7260    3.2491 C.2        1 <1>        0.000
      2 C10        -3.8928    4.6679    2.1073 C.2        1 <1>        0.000
      3 C11        -2.4518    4.4627    2.0308 C.2        1 <1>        0.000
      4 C12        -1.6128    4.6909    3.0570 C.2        1 <1>        0.000
      5 C13        -0.1667    4.4829    2.9919 C.2        1 <1>        0.000
      6 C14         0.6283    5.0424    2.0654 C.2        1 <1>        0.000
      7 Cl2        -6.3086    4.9778    3.2683 Cl         1 <1>        0.000
      8 C16         2.0755    4.8386    1.9984 C.2        1 <1>        0.000
      9 C17         2.7637    4.6843    0.8584 C.2        1 <1>        0.000
     10 C18         4.2155    4.4896    0.7924 C.2        1 <1>        0.000
     11 C19         4.9816    4.9572   -0.2079 C.2        1 <1>        0.000
     12 C20         6.4411    4.7824   -0.2859 C.2        1 <1>        0.000
     13 O5          7.0704    4.4550    0.7092 O.2        1 <1>        0.000
     14 O6          7.0578    4.9924   -1.4534 O.3        1 <1>        0.000
     15 H          -4.0652    4.6114    4.1964 H.spc      1 <1>        0.000
     16 H          -4.4395    4.7820    1.1712 H.spc      1 <1>        0.000
     17 H          -2.0313    4.1049    1.0910 H.spc      1 <1>        0.000
     18 H          -2.0364    5.0528    3.9939 H.spc      1 <1>        0.000
     19 H           0.2928    3.8359    3.7391 H.spc      1 <1>        0.000
     20 H           0.1672    5.6877    1.3177 H.spc      1 <1>        0.000
     21 H           2.6301    4.8104    2.9363 H.spc      1 <1>        0.000
     22 H           2.2086    4.7049   -0.0794 H.spc      1 <1>        0.000
     23 H           4.6991    3.9362    1.5974 H.spc      1 <1>        0.000
     24 H           4.4900    5.5015   -1.0142 H.spc      1 <1>        0.000
     25 H           6.4093    5.2400   -2.1166 H.spc      1 <1>        0.000
@<TRIPOS>BOND
     1    6    8 1  
     2   12   13 2  
     3    1    7 1  
     4    2    3 1  
     5    8    9 2  
     6    1    2 2  
     7   10   11 2  
     8    4    5 1  
     9    9   10 1  
    10    3    4 2  
    11   11   12 1  
    12   12   14 1  
    13    5    6 2  
    14    1   15 1  
    15    2   16 1  
    16    3   17 1  
    17    4   18 1  
    18    5   19 1  
    19    6   20 1  
    20    8   21 1  
    21    9   22 1  
    22   10   23 1  
    23   11   24 1  
    24   14   25 1  
# Name:          frag3-254-3/31924 -- energy: -2.292788
# Creation time: Sat Jun  5 12:52:40 2010


@<TRIPOS>MOLECULE
frag3-254-3/31924 -- energy: -2.292788
   25    24     1     1     1
SMALL
USER_CHARGES


@<TRIPOS>ATOM
      1 C9         -4.3907    3.6112    3.6009 C.2        1 <1>        0.000
      2 C10        -3.7118    4.5560    2.9401 C.2        1 <1>        0.000
      3 C11        -2.2611    4.5394    2.7395 C.2        1 <1>        0.000
      4 C12        -1.6045    5.4077    1.9584 C.2        1 <1>        0.000
      5 C13        -0.1498    5.3941    1.7622 C.2        1 <1>        0.000
      6 C14         0.5213    6.3327    1.0786 C.2        1 <1>        0.000
      7 Cl2        -6.1182    3.7016    3.8009 Cl         1 <1>        0.000
      8 C16         1.9784    6.3163    0.8958 C.2        1 <1>        0.000
      9 C17         2.7046    5.1900    0.8197 C.2        1 <1>        0.000
     10 C18         4.1619    5.1678    0.6263 C.2        1 <1>        0.000
     11 C19         4.8657    4.0389    0.4555 C.2        1 <1>        0.000
     12 C20         6.3260    3.9916    0.2531 C.2        1 <1>        0.000
     13 O5          7.0227    3.3497    1.0248 O.2        1 <1>        0.000
     14 O6          6.8647    4.6531   -0.7751 O.3        1 <1>        0.000
     15 H          -3.8496    2.7649    4.0241 H.spc      1 <1>        0.000
     16 H          -4.2746    5.3918    2.5243 H.spc      1 <1>        0.000
     17 H          -1.6810    3.7750    3.2565 H.spc      1 <1>        0.000
     18 H          -2.1849    6.1694    1.4378 H.spc      1 <1>        0.000
     19 H           0.4186    4.5725    2.1979 H.spc      1 <1>        0.000
     20 H          -0.0450    7.1515    0.6349 H.spc      1 <1>        0.000
     21 H           2.4986    7.2710    0.8176 H.spc      1 <1>        0.000
     22 H           2.1837    4.2365    0.9063 H.spc      1 <1>        0.000
     23 H           4.6976    6.1171    0.6215 H.spc      1 <1>        0.000
     24 H           4.3226    3.0939    0.4670 H.spc      1 <1>        0.000
     25 H           6.1703    5.0962   -1.2682 H.spc      1 <1>        0.000
@<TRIPOS>BOND
     1    6    8 1  
     2   12   13 2  
     3    1    7 1  
     4    2    3 1  
     5    8    9 2  
     6    1    2 2  
     7   10   11 2  
     8    4    5 1  
     9    9   10 1  
    10    3    4 2  
    11   11   12 1  
    12   12   14 1  
    13    5    6 2  
    14    1   15 1  
    15    2   16 1  
    16    3   17 1  
    17    4   18 1  
    18    5   19 1  
    19    6   20 1  
    20    8   21 1  
    21    9   22 1  
    22   10   23 1  
    23   11   24 1  
    24   14   25 1  
# Name:          frag3-254-3/31924 -- energy: -2.358223
# Creation time: Sat Jun  5 12:52:40 2010


@<TRIPOS>MOLECULE
frag3-254-3/31924 -- energy: -2.358223
   25    24     1     1     1
SMALL
USER_CHARGES


@<TRIPOS>ATOM
      1 C9         -4.6889    5.2189    3.1798 C.2        1 <1>        0.000
      2 C10        -3.7012    4.3167    3.1232 C.2        1 <1>        0.000
      3 C11        -2.2949    4.6463    2.9057 C.2        1 <1>        0.000
      4 C12        -1.7709    4.9189    1.6998 C.2        1 <1>        0.000
      5 C13        -0.3625    5.2608    1.4811 C.2        1 <1>        0.000
      6 C14         0.6620    4.4834    1.8661 C.2        1 <1>        0.000
      7 Cl2        -6.3441    4.7520    3.4349 Cl         1 <1>        0.000
      8 C16         2.0707    4.8190    1.6410 C.2        1 <1>        0.000
      9 C17         3.0472    3.9099    1.5055 C.2        1 <1>        0.000
     10 C18         4.4551    4.2495    1.2636 C.2        1 <1>        0.000
     11 C19         4.9340    4.5834    0.0522 C.2        1 <1>        0.000
     12 C20         6.3375    4.9406   -0.2142 C.2        1 <1>        0.000
     13 O5          7.0066    5.4734    0.6591 O.2        1 <1>        0.000
     14 O6          6.8584    4.6770   -1.4169 O.3        1 <1>        0.000
     15 H          -4.4486    6.2756    3.0627 H.spc      1 <1>        0.000
     16 H          -3.9641    3.2662    3.2477 H.spc      1 <1>        0.000
     17 H          -1.6332    4.6725    3.7715 H.spc      1 <1>        0.000
     18 H          -2.4312    4.8839    0.8333 H.spc      1 <1>        0.000
     19 H          -0.1339    6.1999    0.9771 H.spc      1 <1>        0.000
     20 H           0.4327    3.5477    2.3760 H.spc      1 <1>        0.000
     21 H           2.3416    5.8730    1.5799 H.spc      1 <1>        0.000
     22 H           2.7798    2.8558    1.5794 H.spc      1 <1>        0.000
     23 H           5.1455    4.2300    2.1068 H.spc      1 <1>        0.000
     24 H           4.2382    4.5901   -0.7868 H.spc      1 <1>        0.000
     25 H           6.1921    4.2609   -1.9688 H.spc      1 <1>        0.000
@<TRIPOS>BOND
     1    6    8 1  
     2   12   13 2  
     3    1    7 1  
     4    2    3 1  
     5    8    9 2  
     6    1    2 2  
     7   10   11 2  
     8    4    5 1  
     9    9   10 1  
    10    3    4 2  
    11   11   12 1  
    12   12   14 1  
    13    5    6 2  
    14    1   15 1  
    15    2   16 1  
    16    3   17 1  
    17    4   18 1  
    18    5   19 1  
    19    6   20 1  
    20    8   21 1  
    21    9   22 1  
    22   10   23 1  
    23   11   24 1  
    24   14   25 1  
# Name:          frag3-254-3/31924 -- energy: -2.197062
# Creation time: Sat Jun  5 12:52:40 2010


@<TRIPOS>MOLECULE
frag3-254-3/31924 -- energy: -2.197062
   25    24     1     1     1
SMALL
USER_CHARGES


@<TRIPOS>ATOM
      1 C9         -4.4491    4.4288    3.2154 C.2        1 <1>        0.000
      2 C10        -3.5877    5.4405    3.0434 C.2        1 <1>        0.000
      3 C11        -2.2616    5.3028    2.4523 C.2        1 <1>        0.000
      4 C12        -1.4380    4.2703    2.7050 C.2        1 <1>        0.000
      5 C13        -0.1114    4.1201    2.1053 C.2        1 <1>        0.000
      6 C14         0.2141    4.5866    0.8871 C.2        1 <1>        0.000
      7 Cl2        -6.0129    4.6635    3.9331 Cl         1 <1>        0.000
      8 C16         1.5450    4.4514    0.2931 C.2        1 <1>        0.000
      9 C17         2.6520    5.0151    0.8018 C.2        1 <1>        0.000
     10 C18         3.9910    4.8676    0.2205 C.2        1 <1>        0.000
     11 C19         5.1213    4.9169    0.9425 C.2        1 <1>        0.000
     12 C20         6.4741    4.7603    0.3825 C.2        1 <1>        0.000
     13 O5          7.3656    4.2884    1.0755 O.2        1 <1>        0.000
     14 O6          6.7067    5.1378   -0.8767 O.3        1 <1>        0.000
     15 H          -4.1595    3.4280    2.8951 H.spc      1 <1>        0.000
     16 H          -3.8991    6.4336    3.3672 H.spc      1 <1>        0.000
     17 H          -1.9193    6.0793    1.7682 H.spc      1 <1>        0.000
     18 H          -1.7784    3.5000    3.3971 H.spc      1 <1>        0.000
     19 H           0.6562    3.6006    2.6788 H.spc      1 <1>        0.000
     20 H          -0.5574    5.0947    0.3086 H.spc      1 <1>        0.000
     21 H           1.6430    3.8580   -0.6159 H.spc      1 <1>        0.000
     22 H           2.5497    5.6200    1.7028 H.spc      1 <1>        0.000
     23 H           4.0721    4.7096   -0.8549 H.spc      1 <1>        0.000
     24 H           5.0318    5.0842    2.0159 H.spc      1 <1>        0.000
     25 H           5.8970    5.4813   -1.2614 H.spc      1 <1>        0.000
@<TRIPOS>BOND
     1    6    8 1  
     2   12   13 2  
     3    1    7 1  
     4    2    3 1  
     5    8    9 2  
     6    1    2 2  
     7   10   11 2  
     8    4    5 1  
     9    9   10 1  
    10    3    4 2  
    11   11   12 1  
    12   12   14 1  
    13    5    6 2  
    14    1   15 1  
    15    2   16 1  
    16    3   17 1  
    17    4   18 1  
    18    5   19 1  
    19    6   20 1  
    20    8   21 1  
    21    9   22 1  
    22   10   23 1  
    23   11   24 1  
    24   14   25 1  
