#      Rotatable Fragment
#      Build by yxyuan
#
# Name:          frag5-547-191/138278
# Creation time: Sat Jun  5 12:53:42 2010


@<TRIPOS>MOLECULE
frag5-547-191/138278
   18    18     1     1     1
SMALL
USER_CHARGES


@<TRIPOS>ATOM
      1 N5         -2.3200   -1.3812    1.0484 N.pl3      1 <1>        0.000
      2 C9         -1.1688   -0.6669    0.9127 C.ar       1 <1>        0.000
      3 C10        -1.1978    0.6648    0.4852 C.ar       1 <1>        0.000
      4 C11         0.0711   -1.2500    1.1963 C.ar       1 <1>        0.000
      5 C12        -0.0066    1.3659    0.2529 C.ar       1 <1>        0.000
      6 C13         1.2610   -0.5580    0.9386 C.ar       1 <1>        0.000
      7 C14         1.2353    0.7472    0.4334 C.ar       1 <1>        0.000
      8 C15         2.5123    1.4934    0.0914 C.2        1 <1>        0.000
      9 N6          2.6239    2.1958   -1.0585 N.am       1 <1>        0.000
     10 O2          3.4379    1.4501    0.8895 O.2        1 <1>        0.000
     11 H          -3.2181   -0.9461    0.8374 H.spc      1 <1>        0.000
     12 H          -2.2843   -2.3515    1.3610 H.spc      1 <1>        0.000
     13 H          -2.1556    1.1618    0.3313 H.spc      1 <1>        0.000
     14 H           0.1112   -2.2526    1.6220 H.spc      1 <1>        0.000
     15 H          -0.0482    2.4054   -0.0722 H.spc      1 <1>        0.000
     16 H           2.2183   -1.0413    1.1337 H.spc      1 <1>        0.000
     17 H           3.4871    2.6971   -1.2682 H.spc      1 <1>        0.000
     18 H           1.8449    2.2244   -1.7163 H.spc      1 <1>        0.000
@<TRIPOS>BOND
     1    5    7 ar 
     2    8   10 2  
     3    7    8 1  
     4    8    9 am 
     5    6    7 ar 
     6    1    2 1  
     7    2    3 ar 
     8    2    4 ar 
     9    3    5 ar 
    10    4    6 ar 
    11    1   11 1  
    12    1   12 1  
    13    3   13 1  
    14    4   14 1  
    15    5   15 1  
    16    6   16 1  
    17    9   17 1  
    18    9   18 1  
# Name:          frag5-547-191/138278
# Creation time: Sat Jun  5 12:53:42 2010


@<TRIPOS>MOLECULE
frag5-547-191/138278
   18    18     1     1     1
SMALL
USER_CHARGES


@<TRIPOS>ATOM
      1 N5         -2.2930   -1.4138    1.0887 N.pl3      1 <1>        0.000
      2 C9         -1.1672   -0.6703    0.9232 C.ar       1 <1>        0.000
      3 C10        -1.1655    0.4585    0.0954 C.ar       1 <1>        0.000
      4 C11         0.0222   -1.0148    1.5765 C.ar       1 <1>        0.000
      5 C12         0.0186    1.1648   -0.1501 C.ar       1 <1>        0.000
      6 C13         1.2107   -0.3257    1.3110 C.ar       1 <1>        0.000
      7 C14         1.2290    0.7530    0.4188 C.ar       1 <1>        0.000
      8 C15         2.5170    1.4770    0.0715 C.2        1 <1>        0.000
      9 N6          2.5271    2.8082   -0.1625 N.am       1 <1>        0.000
     10 O2          3.5495    0.8241    0.0174 O.2        1 <1>        0.000
     11 H          -3.1527   -1.1519    0.6062 H.spc      1 <1>        0.000
     12 H          -2.2781   -2.2336    1.6954 H.spc      1 <1>        0.000
     13 H          -2.0965    0.7916   -0.3634 H.spc      1 <1>        0.000
     14 H           0.0224   -1.8295    2.3006 H.spc      1 <1>        0.000
     15 H          -0.0028    2.0456   -0.7918 H.spc      1 <1>        0.000
     16 H           2.1329   -0.6323    1.8045 H.spc      1 <1>        0.000
     17 H           3.4031    3.2799   -0.3874 H.spc      1 <1>        0.000
     18 H           1.6587    3.3411   -0.1142 H.spc      1 <1>        0.000
@<TRIPOS>BOND
     1    5    7 ar 
     2    8   10 2  
     3    7    8 1  
     4    8    9 am 
     5    6    7 ar 
     6    1    2 1  
     7    2    3 ar 
     8    2    4 ar 
     9    3    5 ar 
    10    4    6 ar 
    11    1   11 1  
    12    1   12 1  
    13    3   13 1  
    14    4   14 1  
    15    5   15 1  
    16    6   16 1  
    17    9   17 1  
    18    9   18 1  
# Name:          frag5-547-191/138278 -- energy: -1.026834
# Creation time: Sat Jun  5 12:53:42 2010


@<TRIPOS>MOLECULE
frag5-547-191/138278 -- energy: -1.026834
   18    18     1     1     1
SMALL
USER_CHARGES


@<TRIPOS>ATOM
      1 N5         -2.3200   -1.3812    1.0484 N.pl3      1 <1>        0.000
      2 C9         -1.1688   -0.6669    0.9127 C.ar       1 <1>        0.000
      3 C10        -1.1978    0.6648    0.4852 C.ar       1 <1>        0.000
      4 C11         0.0711   -1.2500    1.1963 C.ar       1 <1>        0.000
      5 C12        -0.0066    1.3659    0.2529 C.ar       1 <1>        0.000
      6 C13         1.2610   -0.5580    0.9386 C.ar       1 <1>        0.000
      7 C14         1.2353    0.7472    0.4334 C.ar       1 <1>        0.000
      8 C15         2.5123    1.4934    0.0914 C.2        1 <1>        0.000
      9 N6          2.6239    2.1958   -1.0585 N.am       1 <1>        0.000
     10 O2          3.4379    1.4501    0.8895 O.2        1 <1>        0.000
     11 H          -3.2181   -0.9461    0.8374 H.spc      1 <1>        0.000
     12 H          -2.2843   -2.3515    1.3610 H.spc      1 <1>        0.000
     13 H          -2.1556    1.1618    0.3313 H.spc      1 <1>        0.000
     14 H           0.1112   -2.2526    1.6220 H.spc      1 <1>        0.000
     15 H          -0.0482    2.4054   -0.0722 H.spc      1 <1>        0.000
     16 H           2.2183   -1.0413    1.1337 H.spc      1 <1>        0.000
     17 H           3.4871    2.6971   -1.2682 H.spc      1 <1>        0.000
     18 H           1.8449    2.2244   -1.7163 H.spc      1 <1>        0.000
@<TRIPOS>BOND
     1    5    7 ar 
     2    8   10 2  
     3    7    8 1  
     4    8    9 am 
     5    6    7 ar 
     6    1    2 1  
     7    2    3 ar 
     8    2    4 ar 
     9    3    5 ar 
    10    4    6 ar 
    11    1   11 1  
    12    1   12 1  
    13    3   13 1  
    14    4   14 1  
    15    5   15 1  
    16    6   16 1  
    17    9   17 1  
    18    9   18 1  
# Name:          frag5-547-191/138278 -- energy: -0.971652
# Creation time: Sat Jun  5 12:53:42 2010


@<TRIPOS>MOLECULE
frag5-547-191/138278 -- energy: -0.971652
   18    18     1     1     1
SMALL
USER_CHARGES


@<TRIPOS>ATOM
      1 N5         -2.2930   -1.4138    1.0887 N.pl3      1 <1>        0.000
      2 C9         -1.1672   -0.6703    0.9232 C.ar       1 <1>        0.000
      3 C10        -1.1655    0.4585    0.0954 C.ar       1 <1>        0.000
      4 C11         0.0222   -1.0148    1.5765 C.ar       1 <1>        0.000
      5 C12         0.0186    1.1648   -0.1501 C.ar       1 <1>        0.000
      6 C13         1.2107   -0.3257    1.3110 C.ar       1 <1>        0.000
      7 C14         1.2290    0.7530    0.4188 C.ar       1 <1>        0.000
      8 C15         2.5170    1.4770    0.0715 C.2        1 <1>        0.000
      9 N6          2.5271    2.8082   -0.1625 N.am       1 <1>        0.000
     10 O2          3.5495    0.8241    0.0174 O.2        1 <1>        0.000
     11 H          -3.1527   -1.1519    0.6062 H.spc      1 <1>        0.000
     12 H          -2.2781   -2.2336    1.6954 H.spc      1 <1>        0.000
     13 H          -2.0965    0.7916   -0.3634 H.spc      1 <1>        0.000
     14 H           0.0224   -1.8295    2.3006 H.spc      1 <1>        0.000
     15 H          -0.0028    2.0456   -0.7918 H.spc      1 <1>        0.000
     16 H           2.1329   -0.6323    1.8045 H.spc      1 <1>        0.000
     17 H           3.4031    3.2799   -0.3874 H.spc      1 <1>        0.000
     18 H           1.6587    3.3411   -0.1142 H.spc      1 <1>        0.000
@<TRIPOS>BOND
     1    5    7 ar 
     2    8   10 2  
     3    7    8 1  
     4    8    9 am 
     5    6    7 ar 
     6    1    2 1  
     7    2    3 ar 
     8    2    4 ar 
     9    3    5 ar 
    10    4    6 ar 
    11    1   11 1  
    12    1   12 1  
    13    3   13 1  
    14    4   14 1  
    15    5   15 1  
    16    6   16 1  
    17    9   17 1  
    18    9   18 1  
