#      Rotatable Fragment
#      Build by yxyuan
#
# Name:          frag4-364-312/150395
# Creation time: Sat Jun  5 12:53:32 2010


@<TRIPOS>MOLECULE
frag4-364-312/150395
   22    23     1     1     1
SMALL
USER_CHARGES


@<TRIPOS>ATOM
      1 C1         -2.9593    2.0919    0.1091 C.3        1 <1>        0.000
      2 N1         -3.0307    1.2668   -1.1514 N.4        1 <1>        0.000
      3 C2         -1.4144    2.1489    0.4047 C.3        1 <1>        0.000
      4 C3         -4.3438    1.6352    0.6986 C.3        1 <1>        0.000
      5 C4         -3.1564   -0.0905   -0.5618 C.3        1 <1>        0.000
      6 C6         -0.7824    0.7143    0.2484 C.3        1 <1>        0.000
      7 C7         -4.3923    0.1094    0.3542 C.3        1 <1>        0.000
      8 C8         -1.8331   -0.4391    0.2056 C.3        1 <1>        0.000
      9 H          -3.0284    3.1216    0.4600 H.spc      1 <1>        0.000
     10 H          -3.7893    1.5249   -1.7825 H.spc      1 <1>        0.000
     11 H          -2.2340    1.3829   -1.7777 H.spc      1 <1>        0.000
     12 H          -0.9390    2.8291   -0.3020 H.spc      1 <1>        0.000
     13 H          -1.2572    2.5008    1.4243 H.spc      1 <1>        0.000
     14 H          -5.1834    2.1884    0.2778 H.spc      1 <1>        0.000
     15 H          -4.4301    1.8281    1.7679 H.spc      1 <1>        0.000
     16 H          -3.2896   -0.9222   -1.2537 H.spc      1 <1>        0.000
     17 H          -0.2452    0.6985   -0.6999 H.spc      1 <1>        0.000
     18 H          -0.1486    0.5430    1.1185 H.spc      1 <1>        0.000
     19 H          -5.3244   -0.1816   -0.1301 H.spc      1 <1>        0.000
     20 H          -4.3623   -0.5219    1.2423 H.spc      1 <1>        0.000
     21 H          -2.1113   -0.6539    1.2374 H.spc      1 <1>        0.000
     22 H          -1.3693   -1.2720   -0.3229 H.spc      1 <1>        0.000
@<TRIPOS>BOND
     1    1    4 1  
     2    6    8 1  
     3    5    8 1  
     4    3    6 1  
     5    4    7 1  
     6    2    5 1  
     7    1    2 1  
     8    1    3 1  
     9    5    7 1  
    10    1    9 1  
    11    2   10 1  
    12    2   11 1  
    13    3   12 1  
    14    3   13 1  
    15    4   14 1  
    16    4   15 1  
    17    5   16 1  
    18    6   17 1  
    19    6   18 1  
    20    7   19 1  
    21    7   20 1  
    22    8   21 1  
    23    8   22 1  
# Name:          frag4-364-312/150395 -- energy: -1.866844
# Creation time: Sat Jun  5 12:53:32 2010


@<TRIPOS>MOLECULE
frag4-364-312/150395 -- energy: -1.866844
   22    23     1     1     1
SMALL
USER_CHARGES


@<TRIPOS>ATOM
      1 C1         -2.9593    2.0919    0.1091 C.3        1 <1>        0.000
      2 N1         -3.0307    1.2668   -1.1514 N.4        1 <1>        0.000
      3 C2         -1.4144    2.1489    0.4047 C.3        1 <1>        0.000
      4 C3         -4.3438    1.6352    0.6986 C.3        1 <1>        0.000
      5 C4         -3.1564   -0.0905   -0.5618 C.3        1 <1>        0.000
      6 C6         -0.7824    0.7143    0.2484 C.3        1 <1>        0.000
      7 C7         -4.3923    0.1094    0.3542 C.3        1 <1>        0.000
      8 C8         -1.8331   -0.4391    0.2056 C.3        1 <1>        0.000
      9 H          -3.0284    3.1216    0.4600 H.spc      1 <1>        0.000
     10 H          -3.7893    1.5249   -1.7825 H.spc      1 <1>        0.000
     11 H          -2.2340    1.3829   -1.7777 H.spc      1 <1>        0.000
     12 H          -0.9390    2.8291   -0.3020 H.spc      1 <1>        0.000
     13 H          -1.2572    2.5008    1.4243 H.spc      1 <1>        0.000
     14 H          -5.1834    2.1884    0.2778 H.spc      1 <1>        0.000
     15 H          -4.4301    1.8281    1.7679 H.spc      1 <1>        0.000
     16 H          -3.2896   -0.9222   -1.2537 H.spc      1 <1>        0.000
     17 H          -0.2452    0.6985   -0.6999 H.spc      1 <1>        0.000
     18 H          -0.1486    0.5430    1.1185 H.spc      1 <1>        0.000
     19 H          -5.3244   -0.1816   -0.1301 H.spc      1 <1>        0.000
     20 H          -4.3623   -0.5219    1.2423 H.spc      1 <1>        0.000
     21 H          -2.1113   -0.6539    1.2374 H.spc      1 <1>        0.000
     22 H          -1.3693   -1.2720   -0.3229 H.spc      1 <1>        0.000
@<TRIPOS>BOND
     1    1    4 1  
     2    6    8 1  
     3    5    8 1  
     4    3    6 1  
     5    4    7 1  
     6    2    5 1  
     7    1    2 1  
     8    1    3 1  
     9    5    7 1  
    10    1    9 1  
    11    2   10 1  
    12    2   11 1  
    13    3   12 1  
    14    3   13 1  
    15    4   14 1  
    16    4   15 1  
    17    5   16 1  
    18    6   17 1  
    19    6   18 1  
    20    7   19 1  
    21    7   20 1  
    22    8   21 1  
    23    8   22 1  
