#      Rotatable Fragment
#      Build by yxyuan
#
# Name:          frag4-469-102/150395
# Creation time: Sat Jun  5 12:53:37 2010


@<TRIPOS>MOLECULE
frag4-469-102/150395
   11    11     1     1     1
SMALL
USER_CHARGES


@<TRIPOS>ATOM
      1 C1          0.8378    1.2176   -0.0075 C.ar       1 <1>        0.000
      2 C2          1.1699   -0.0153   -0.4381 C.ar       1 <1>        0.000
      3 O1         -0.3643    1.3880    0.5517 O.3        1 <1>        0.000
      4 C4          0.2582   -1.1259   -0.3142 C.ar       1 <1>        0.000
      5 C5         -1.2088    0.5356    0.5635 C.ar       1 <1>        0.000
      6 C8         -0.9531   -0.8258    0.1961 C.ar       1 <1>        0.000
      7 H           1.5302    2.0528   -0.1123 H.spc      1 <1>        0.000
      8 H           2.1487   -0.1767   -0.8898 H.spc      1 <1>        0.000
      9 H           0.5298   -2.1384   -0.6127 H.spc      1 <1>        0.000
     10 H          -2.2187    0.8099    0.8682 H.spc      1 <1>        0.000
     11 H          -1.7145   -1.5950    0.3253 H.spc      1 <1>        0.000
@<TRIPOS>BOND
     1    1    2 ar 
     2    1    3 ar 
     3    2    4 ar 
     4    3    5 ar 
     5    4    6 ar 
     6    5    6 ar 
     7    1    7 1  
     8    2    8 1  
     9    4    9 1  
    10    5   10 1  
    11    6   11 1  
# Name:          frag4-469-102/150395 -- energy: 0.663084
# Creation time: Sat Jun  5 12:53:37 2010


@<TRIPOS>MOLECULE
frag4-469-102/150395 -- energy: 0.663084
   11    11     1     1     1
SMALL
USER_CHARGES


@<TRIPOS>ATOM
      1 C1          0.8378    1.2176   -0.0075 C.ar       1 <1>        0.000
      2 C2          1.1699   -0.0153   -0.4381 C.ar       1 <1>        0.000
      3 O1         -0.3643    1.3880    0.5517 O.3        1 <1>        0.000
      4 C4          0.2582   -1.1259   -0.3142 C.ar       1 <1>        0.000
      5 C5         -1.2088    0.5356    0.5635 C.ar       1 <1>        0.000
      6 C8         -0.9531   -0.8258    0.1961 C.ar       1 <1>        0.000
      7 H           1.5302    2.0528   -0.1123 H.spc      1 <1>        0.000
      8 H           2.1487   -0.1767   -0.8898 H.spc      1 <1>        0.000
      9 H           0.5298   -2.1384   -0.6127 H.spc      1 <1>        0.000
     10 H          -2.2187    0.8099    0.8682 H.spc      1 <1>        0.000
     11 H          -1.7145   -1.5950    0.3253 H.spc      1 <1>        0.000
@<TRIPOS>BOND
     1    1    2 ar 
     2    1    3 ar 
     3    2    4 ar 
     4    3    5 ar 
     5    4    6 ar 
     6    5    6 ar 
     7    1    7 1  
     8    2    8 1  
     9    4    9 1  
    10    5   10 1  
    11    6   11 1  
