#      Rotatable Fragment
#      Build by yxyuan
#
# Name:          frag5-588-122/138278
# Creation time: Sat Jun  5 12:53:45 2010


@<TRIPOS>MOLECULE
frag5-588-122/138278
   20    21     1     1     1
SMALL
USER_CHARGES


@<TRIPOS>ATOM
      1 C1         -3.6488   -1.1910   -0.1454 C.2        1 <1>        0.000
      2 C2         -3.5494    0.3328   -0.1222 C.2        1 <1>        0.000
      3 C3         -2.3505   -1.5127   -0.0398 C.2        1 <1>        0.000
      4 C4         -4.9124   -1.8100   -0.3051 C.2        1 <1>        0.000
      5 N1         -2.3681    0.8096   -0.0521 N.2        1 <1>        0.000
      6 C5         -4.7484    1.1724   -0.0688 C.2        1 <1>        0.000
      7 C6         -1.5085   -0.3154    0.0217 C.3        1 <1>        0.000
      8 C7         -5.9765   -0.9823   -0.3266 C.2        1 <1>        0.000
      9 C8         -5.8768    0.4488   -0.1627 C.2        1 <1>        0.000
     10 C9         -0.1579   -0.2117    0.6656 C.2        1 <1>        0.000
     11 N2          0.7644   -1.1785    0.5761 N.am       1 <1>        0.000
     12 O1          0.0703    0.8267    1.2985 O.2        1 <1>        0.000
     13 H          -1.9709   -2.5339   -0.0043 H.spc      1 <1>        0.000
     14 H          -5.0183   -2.8903   -0.4046 H.spc      1 <1>        0.000
     15 H          -4.7278    2.2573    0.0350 H.spc      1 <1>        0.000
     16 H          -0.8128   -0.4280   -0.8098 H.spc      1 <1>        0.000
     17 H          -6.9650   -1.4168   -0.4757 H.spc      1 <1>        0.000
     18 H          -6.8156    1.0002   -0.1096 H.spc      1 <1>        0.000
     19 H           1.6691   -1.0642    1.0331 H.spc      1 <1>        0.000
     20 H           0.5622   -2.0292    0.0509 H.spc      1 <1>        0.000
@<TRIPOS>BOND
     1    4    8 2  
     2    5    7 1  
     3    8    9 1  
     4    7   10 1  
     5    6    9 2  
     6   10   12 2  
     7    3    7 1  
     8    1    2 1  
     9    1    3 2  
    10    1    4 1  
    11    2    5 2  
    12    2    6 1  
    13   10   11 am 
    14    3   13 1  
    15    4   14 1  
    16    6   15 1  
    17    7   16 1  
    18    8   17 1  
    19    9   18 1  
    20   11   19 1  
    21   11   20 1  
# Name:          frag5-588-122/138278
# Creation time: Sat Jun  5 12:53:45 2010


@<TRIPOS>MOLECULE
frag5-588-122/138278
   20    21     1     1     1
SMALL
USER_CHARGES


@<TRIPOS>ATOM
      1 C1         -3.6195   -1.1963   -0.3639 C.2        1 <1>        0.000
      2 C2         -3.5370    0.2680    0.0356 C.2        1 <1>        0.000
      3 C3         -2.3051   -1.4881   -0.3773 C.2        1 <1>        0.000
      4 C4         -4.8940   -1.7488   -0.6697 C.2        1 <1>        0.000
      5 N1         -2.3749    0.7564    0.1782 N.2        1 <1>        0.000
      6 C5         -4.7316    1.0435    0.3760 C.2        1 <1>        0.000
      7 C6         -1.4972   -0.3087   -0.0465 C.3        1 <1>        0.000
      8 C7         -5.9566   -0.9526   -0.4451 C.2        1 <1>        0.000
      9 C8         -5.8600    0.3705    0.1038 C.2        1 <1>        0.000
     10 C9         -0.1755   -0.1879    0.6248 C.2        1 <1>        0.000
     11 N2         -0.0348   -0.5421    1.9218 N.am       1 <1>        0.000
     12 O1          0.7236    0.3744    0.0017 O.2        1 <1>        0.000
     13 H          -1.8947   -2.4721   -0.6043 H.spc      1 <1>        0.000
     14 H          -5.0043   -2.7592   -1.0634 H.spc      1 <1>        0.000
     15 H          -4.7071    2.0474    0.7998 H.spc      1 <1>        0.000
     16 H          -0.8458   -0.3968   -0.9160 H.spc      1 <1>        0.000
     17 H          -6.9466   -1.3345   -0.6943 H.spc      1 <1>        0.000
     18 H          -6.7987    0.8800    0.3215 H.spc      1 <1>        0.000
     19 H           0.8370   -0.3442    2.4128 H.spc      1 <1>        0.000
     20 H          -0.8005   -1.0073    2.4094 H.spc      1 <1>        0.000
@<TRIPOS>BOND
     1    4    8 2  
     2    5    7 1  
     3    8    9 1  
     4    7   10 1  
     5    6    9 2  
     6   10   12 2  
     7    3    7 1  
     8    1    2 1  
     9    1    3 2  
    10    1    4 1  
    11    2    5 2  
    12    2    6 1  
    13   10   11 am 
    14    3   13 1  
    15    4   14 1  
    16    6   15 1  
    17    7   16 1  
    18    8   17 1  
    19    9   18 1  
    20   11   19 1  
    21   11   20 1  
# Name:          frag5-588-122/138278
# Creation time: Sat Jun  5 12:53:45 2010


@<TRIPOS>MOLECULE
frag5-588-122/138278
   20    21     1     1     1
SMALL
USER_CHARGES


@<TRIPOS>ATOM
      1 C1         -3.7195   -1.1953    0.0758 C.2        1 <1>        0.000
      2 C2         -3.5214    0.2866   -0.2207 C.2        1 <1>        0.000
      3 C3         -2.4549   -1.5523    0.3441 C.2        1 <1>        0.000
      4 C4         -5.0155   -1.7667    0.0000 C.2        1 <1>        0.000
      5 N1         -2.3175    0.7061   -0.1769 N.2        1 <1>        0.000
      6 C5         -4.6590    1.1764   -0.4797 C.2        1 <1>        0.000
      7 C6         -1.5436   -0.4121    0.2042 C.3        1 <1>        0.000
      8 C7         -6.0185   -0.9138   -0.2880 C.2        1 <1>        0.000
      9 C8         -5.8294    0.5120   -0.4743 C.2        1 <1>        0.000
     10 C9         -0.1294   -0.2389    0.6861 C.2        1 <1>        0.000
     11 N2          0.7265    0.4843   -0.0958 N.am       1 <1>        0.000
     12 O1          0.2194   -0.6977    1.7646 O.2        1 <1>        0.000
     13 H          -2.1452   -2.5579    0.6287 H.spc      1 <1>        0.000
     14 H          -5.1895   -2.8301    0.1645 H.spc      1 <1>        0.000
     15 H          -4.5671    2.2482   -0.6556 H.spc      1 <1>        0.000
     16 H          -0.7134   -0.8805   -0.3245 H.spc      1 <1>        0.000
     17 H          -7.0263   -1.3174   -0.3862 H.spc      1 <1>        0.000
     18 H          -6.7294    1.1079   -0.6258 H.spc      1 <1>        0.000
     19 H           1.6829    0.6530    0.2160 H.spc      1 <1>        0.000
     20 H           0.4090    0.8554   -0.9913 H.spc      1 <1>        0.000
@<TRIPOS>BOND
     1    4    8 2  
     2    5    7 1  
     3    8    9 1  
     4    7   10 1  
     5    6    9 2  
     6   10   12 2  
     7    3    7 1  
     8    1    2 1  
     9    1    3 2  
    10    1    4 1  
    11    2    5 2  
    12    2    6 1  
    13   10   11 am 
    14    3   13 1  
    15    4   14 1  
    16    6   15 1  
    17    7   16 1  
    18    8   17 1  
    19    9   18 1  
    20   11   19 1  
    21   11   20 1  
# Name:          frag5-588-122/138278 -- energy: -1.318167
# Creation time: Sat Jun  5 12:53:45 2010


@<TRIPOS>MOLECULE
frag5-588-122/138278 -- energy: -1.318167
   20    21     1     1     1
SMALL
USER_CHARGES


@<TRIPOS>ATOM
      1 C1         -3.6488   -1.1910   -0.1454 C.2        1 <1>        0.000
      2 C2         -3.5494    0.3328   -0.1222 C.2        1 <1>        0.000
      3 C3         -2.3505   -1.5127   -0.0398 C.2        1 <1>        0.000
      4 C4         -4.9124   -1.8100   -0.3051 C.2        1 <1>        0.000
      5 N1         -2.3681    0.8096   -0.0521 N.2        1 <1>        0.000
      6 C5         -4.7484    1.1724   -0.0688 C.2        1 <1>        0.000
      7 C6         -1.5085   -0.3154    0.0217 C.3        1 <1>        0.000
      8 C7         -5.9765   -0.9823   -0.3266 C.2        1 <1>        0.000
      9 C8         -5.8768    0.4488   -0.1627 C.2        1 <1>        0.000
     10 C9         -0.1579   -0.2117    0.6656 C.2        1 <1>        0.000
     11 N2          0.7644   -1.1785    0.5761 N.am       1 <1>        0.000
     12 O1          0.0703    0.8267    1.2985 O.2        1 <1>        0.000
     13 H          -1.9709   -2.5339   -0.0043 H.spc      1 <1>        0.000
     14 H          -5.0183   -2.8903   -0.4046 H.spc      1 <1>        0.000
     15 H          -4.7278    2.2573    0.0350 H.spc      1 <1>        0.000
     16 H          -0.8128   -0.4280   -0.8098 H.spc      1 <1>        0.000
     17 H          -6.9650   -1.4168   -0.4757 H.spc      1 <1>        0.000
     18 H          -6.8156    1.0002   -0.1096 H.spc      1 <1>        0.000
     19 H           1.6691   -1.0642    1.0331 H.spc      1 <1>        0.000
     20 H           0.5622   -2.0292    0.0509 H.spc      1 <1>        0.000
@<TRIPOS>BOND
     1    4    8 2  
     2    5    7 1  
     3    8    9 1  
     4    7   10 1  
     5    6    9 2  
     6   10   12 2  
     7    3    7 1  
     8    1    2 1  
     9    1    3 2  
    10    1    4 1  
    11    2    5 2  
    12    2    6 1  
    13   10   11 am 
    14    3   13 1  
    15    4   14 1  
    16    6   15 1  
    17    7   16 1  
    18    8   17 1  
    19    9   18 1  
    20   11   19 1  
    21   11   20 1  
# Name:          frag5-588-122/138278 -- energy: -0.343342
# Creation time: Sat Jun  5 12:53:45 2010


@<TRIPOS>MOLECULE
frag5-588-122/138278 -- energy: -0.343342
   20    21     1     1     1
SMALL
USER_CHARGES


@<TRIPOS>ATOM
      1 C1         -3.6195   -1.1963   -0.3639 C.2        1 <1>        0.000
      2 C2         -3.5370    0.2680    0.0356 C.2        1 <1>        0.000
      3 C3         -2.3051   -1.4881   -0.3773 C.2        1 <1>        0.000
      4 C4         -4.8940   -1.7488   -0.6697 C.2        1 <1>        0.000
      5 N1         -2.3749    0.7564    0.1782 N.2        1 <1>        0.000
      6 C5         -4.7316    1.0435    0.3760 C.2        1 <1>        0.000
      7 C6         -1.4972   -0.3087   -0.0465 C.3        1 <1>        0.000
      8 C7         -5.9566   -0.9526   -0.4451 C.2        1 <1>        0.000
      9 C8         -5.8600    0.3705    0.1038 C.2        1 <1>        0.000
     10 C9         -0.1755   -0.1879    0.6248 C.2        1 <1>        0.000
     11 N2         -0.0348   -0.5421    1.9218 N.am       1 <1>        0.000
     12 O1          0.7236    0.3744    0.0017 O.2        1 <1>        0.000
     13 H          -1.8947   -2.4721   -0.6043 H.spc      1 <1>        0.000
     14 H          -5.0043   -2.7592   -1.0634 H.spc      1 <1>        0.000
     15 H          -4.7071    2.0474    0.7998 H.spc      1 <1>        0.000
     16 H          -0.8458   -0.3968   -0.9160 H.spc      1 <1>        0.000
     17 H          -6.9466   -1.3345   -0.6943 H.spc      1 <1>        0.000
     18 H          -6.7987    0.8800    0.3215 H.spc      1 <1>        0.000
     19 H           0.8370   -0.3442    2.4128 H.spc      1 <1>        0.000
     20 H          -0.8005   -1.0073    2.4094 H.spc      1 <1>        0.000
@<TRIPOS>BOND
     1    4    8 2  
     2    5    7 1  
     3    8    9 1  
     4    7   10 1  
     5    6    9 2  
     6   10   12 2  
     7    3    7 1  
     8    1    2 1  
     9    1    3 2  
    10    1    4 1  
    11    2    5 2  
    12    2    6 1  
    13   10   11 am 
    14    3   13 1  
    15    4   14 1  
    16    6   15 1  
    17    7   16 1  
    18    8   17 1  
    19    9   18 1  
    20   11   19 1  
    21   11   20 1  
# Name:          frag5-588-122/138278 -- energy: -0.304328
# Creation time: Sat Jun  5 12:53:45 2010


@<TRIPOS>MOLECULE
frag5-588-122/138278 -- energy: -0.304328
   20    21     1     1     1
SMALL
USER_CHARGES


@<TRIPOS>ATOM
      1 C1         -3.7195   -1.1953    0.0758 C.2        1 <1>        0.000
      2 C2         -3.5214    0.2866   -0.2207 C.2        1 <1>        0.000
      3 C3         -2.4549   -1.5523    0.3441 C.2        1 <1>        0.000
      4 C4         -5.0155   -1.7667    0.0000 C.2        1 <1>        0.000
      5 N1         -2.3175    0.7061   -0.1769 N.2        1 <1>        0.000
      6 C5         -4.6590    1.1764   -0.4797 C.2        1 <1>        0.000
      7 C6         -1.5436   -0.4121    0.2042 C.3        1 <1>        0.000
      8 C7         -6.0185   -0.9138   -0.2880 C.2        1 <1>        0.000
      9 C8         -5.8294    0.5120   -0.4743 C.2        1 <1>        0.000
     10 C9         -0.1294   -0.2389    0.6861 C.2        1 <1>        0.000
     11 N2          0.7265    0.4843   -0.0958 N.am       1 <1>        0.000
     12 O1          0.2194   -0.6977    1.7646 O.2        1 <1>        0.000
     13 H          -2.1452   -2.5579    0.6287 H.spc      1 <1>        0.000
     14 H          -5.1895   -2.8301    0.1645 H.spc      1 <1>        0.000
     15 H          -4.5671    2.2482   -0.6556 H.spc      1 <1>        0.000
     16 H          -0.7134   -0.8805   -0.3245 H.spc      1 <1>        0.000
     17 H          -7.0263   -1.3174   -0.3862 H.spc      1 <1>        0.000
     18 H          -6.7294    1.1079   -0.6258 H.spc      1 <1>        0.000
     19 H           1.6829    0.6530    0.2160 H.spc      1 <1>        0.000
     20 H           0.4090    0.8554   -0.9913 H.spc      1 <1>        0.000
@<TRIPOS>BOND
     1    4    8 2  
     2    5    7 1  
     3    8    9 1  
     4    7   10 1  
     5    6    9 2  
     6   10   12 2  
     7    3    7 1  
     8    1    2 1  
     9    1    3 2  
    10    1    4 1  
    11    2    5 2  
    12    2    6 1  
    13   10   11 am 
    14    3   13 1  
    15    4   14 1  
    16    6   15 1  
    17    7   16 1  
    18    8   17 1  
    19    9   18 1  
    20   11   19 1  
    21   11   20 1  
