#      Rotatable Fragment
#      Build by yxyuan
#
# Name:          frag4-409-55/48856
# Creation time: Sat Jun  5 12:51:57 2010


@<TRIPOS>MOLECULE
frag4-409-55/48856
   29    31     1     1     1
SMALL
USER_CHARGES


@<TRIPOS>ATOM
      1 N1         -1.5106    0.5393    0.1476 N.4        1 <1>        0.000
      2 C1         -0.8503    0.7761   -1.1569 C.3        1 <1>        0.000
      3 C2         -0.3486   -0.5350   -1.7824 C.3        1 <1>        0.000
      4 C3          0.5414   -1.3070   -0.7838 C.3        1 <1>        0.000
      5 C4         -0.2505   -1.5827    0.5100 C.3        1 <1>        0.000
      6 C5         -0.6737   -0.2279    1.1115 C.3        1 <1>        0.000
      7 C6          0.6040    0.5235    1.5720 C.3        1 <1>        0.000
      8 C7          1.7872    0.4232    0.6263 C.ar       1 <1>        0.000
      9 C8          1.7746   -0.4660   -0.4836 C.ar       1 <1>        0.000
     10 C9          2.9070   -0.5421   -1.3031 C.ar       1 <1>        0.000
     11 C10         4.0314    0.2369   -1.0606 C.ar       1 <1>        0.000
     12 C11         4.0378    1.1233    0.0162 C.ar       1 <1>        0.000
     13 C12         2.9247    1.2091    0.8435 C.ar       1 <1>        0.000
     14 H          -1.6979    1.4511    0.5646 H.spc      1 <1>        0.000
     15 H          -2.3512   -0.0101   -0.0312 H.spc      1 <1>        0.000
     16 H           0.0060    1.4310   -0.9959 H.spc      1 <1>        0.000
     17 H          -1.5765    1.2254   -1.8343 H.spc      1 <1>        0.000
     18 H          -1.2073   -1.1540   -2.0423 H.spc      1 <1>        0.000
     19 H           0.2378   -0.3011   -2.6709 H.spc      1 <1>        0.000
     20 H           0.8476   -2.2623   -1.2101 H.spc      1 <1>        0.000
     21 H           0.3689   -2.1313    1.2195 H.spc      1 <1>        0.000
     22 H          -1.1306   -2.1870    0.2899 H.spc      1 <1>        0.000
     23 H          -1.3071   -0.3702    1.9871 H.spc      1 <1>        0.000
     24 H           0.9144    0.0672    2.5120 H.spc      1 <1>        0.000
     25 H           0.3413    1.5795    1.6345 H.spc      1 <1>        0.000
     26 H           2.9065   -1.2279   -2.1503 H.spc      1 <1>        0.000
     27 H           4.9041    0.1558   -1.7085 H.spc      1 <1>        0.000
     28 H           4.9118    1.7458    0.2079 H.spc      1 <1>        0.000
     29 H           2.9378    1.9054    1.6820 H.spc      1 <1>        0.000
@<TRIPOS>BOND
     1    8    9 ar 
     2   11   12 ar 
     3    3    4 1  
     4   10   11 ar 
     5    8   13 ar 
     6    1    6 1  
     7   12   13 ar 
     8    4    5 1  
     9    1    2 1  
    10    4    9 1  
    11    5    6 1  
    12    6    7 1  
    13    7    8 1  
    14    9   10 ar 
    15    2    3 1  
    16    1   14 1  
    17    1   15 1  
    18    2   16 1  
    19    2   17 1  
    20    3   18 1  
    21    3   19 1  
    22    4   20 1  
    23    5   21 1  
    24    5   22 1  
    25    6   23 1  
    26    7   24 1  
    27    7   25 1  
    28   10   26 1  
    29   11   27 1  
    30   12   28 1  
    31   13   29 1  
# Name:          frag4-409-55/48856 -- energy: -3.878178
# Creation time: Sat Jun  5 12:51:57 2010


@<TRIPOS>MOLECULE
frag4-409-55/48856 -- energy: -3.878178
   29    31     1     1     1
SMALL
USER_CHARGES


@<TRIPOS>ATOM
      1 N1         -1.5106    0.5393    0.1476 N.4        1 <1>        0.000
      2 C1         -0.8503    0.7761   -1.1569 C.3        1 <1>        0.000
      3 C2         -0.3486   -0.5350   -1.7824 C.3        1 <1>        0.000
      4 C3          0.5414   -1.3070   -0.7838 C.3        1 <1>        0.000
      5 C4         -0.2505   -1.5827    0.5100 C.3        1 <1>        0.000
      6 C5         -0.6737   -0.2279    1.1115 C.3        1 <1>        0.000
      7 C6          0.6040    0.5235    1.5720 C.3        1 <1>        0.000
      8 C7          1.7872    0.4232    0.6263 C.ar       1 <1>        0.000
      9 C8          1.7746   -0.4660   -0.4836 C.ar       1 <1>        0.000
     10 C9          2.9070   -0.5421   -1.3031 C.ar       1 <1>        0.000
     11 C10         4.0314    0.2369   -1.0606 C.ar       1 <1>        0.000
     12 C11         4.0378    1.1233    0.0162 C.ar       1 <1>        0.000
     13 C12         2.9247    1.2091    0.8435 C.ar       1 <1>        0.000
     14 H          -1.6979    1.4511    0.5646 H.spc      1 <1>        0.000
     15 H          -2.3512   -0.0101   -0.0312 H.spc      1 <1>        0.000
     16 H           0.0060    1.4310   -0.9959 H.spc      1 <1>        0.000
     17 H          -1.5765    1.2254   -1.8343 H.spc      1 <1>        0.000
     18 H          -1.2073   -1.1540   -2.0423 H.spc      1 <1>        0.000
     19 H           0.2378   -0.3011   -2.6709 H.spc      1 <1>        0.000
     20 H           0.8476   -2.2623   -1.2101 H.spc      1 <1>        0.000
     21 H           0.3689   -2.1313    1.2195 H.spc      1 <1>        0.000
     22 H          -1.1306   -2.1870    0.2899 H.spc      1 <1>        0.000
     23 H          -1.3071   -0.3702    1.9871 H.spc      1 <1>        0.000
     24 H           0.9144    0.0672    2.5120 H.spc      1 <1>        0.000
     25 H           0.3413    1.5795    1.6345 H.spc      1 <1>        0.000
     26 H           2.9065   -1.2279   -2.1503 H.spc      1 <1>        0.000
     27 H           4.9041    0.1558   -1.7085 H.spc      1 <1>        0.000
     28 H           4.9118    1.7458    0.2079 H.spc      1 <1>        0.000
     29 H           2.9378    1.9054    1.6820 H.spc      1 <1>        0.000
@<TRIPOS>BOND
     1    8    9 ar 
     2   11   12 ar 
     3    3    4 1  
     4   10   11 ar 
     5    8   13 ar 
     6    1    6 1  
     7   12   13 ar 
     8    4    5 1  
     9    1    2 1  
    10    4    9 1  
    11    5    6 1  
    12    6    7 1  
    13    7    8 1  
    14    9   10 ar 
    15    2    3 1  
    16    1   14 1  
    17    1   15 1  
    18    2   16 1  
    19    2   17 1  
    20    3   18 1  
    21    3   19 1  
    22    4   20 1  
    23    5   21 1  
    24    5   22 1  
    25    6   23 1  
    26    7   24 1  
    27    7   25 1  
    28   10   26 1  
    29   11   27 1  
    30   12   28 1  
    31   13   29 1  
