#      Rotatable Fragment
#      Build by yxyuan
#
# Name:          frag4-427-48/48856
# Creation time: Sat Jun  5 12:52:24 2010


@<TRIPOS>MOLECULE
frag4-427-48/48856
   16    16     1     1     1
SMALL
USER_CHARGES


@<TRIPOS>ATOM
      1 C1          1.3659   -0.2976   -0.9245 C.3        1 <1>        0.000
      2 O1          2.4121    0.2896   -0.3686 O.3        1 <1>        0.000
      3 C2          3.3019    0.9631   -1.2958 C.3        1 <1>        0.000
      4 C3          3.4468    0.4931   -2.7428 C.3        1 <1>        0.000
      5 C4          2.0539    0.2269   -3.2698 C.3        1 <1>        0.000
      6 C5          1.3887   -0.8013   -2.3436 C.3        1 <1>        0.000
      7 H           1.2397   -1.2051   -0.3341 H.spc      1 <1>        0.000
      8 H           0.6132    0.4904   -0.9460 H.spc      1 <1>        0.000
      9 H           4.2924    0.8049   -0.8692 H.spc      1 <1>        0.000
     10 H           2.8766    1.9625   -1.3870 H.spc      1 <1>        0.000
     11 H           4.0549   -0.4101   -2.7934 H.spc      1 <1>        0.000
     12 H           3.9456    1.2529   -3.3445 H.spc      1 <1>        0.000
     13 H           2.1024   -0.1578   -4.2885 H.spc      1 <1>        0.000
     14 H           1.4741    1.1497   -3.2883 H.spc      1 <1>        0.000
     15 H           0.3641   -0.9667   -2.6767 H.spc      1 <1>        0.000
     16 H           1.9576   -1.7304   -2.3801 H.spc      1 <1>        0.000
@<TRIPOS>BOND
     1    1    6 1  
     2    1    2 1  
     3    2    3 1  
     4    3    4 1  
     5    4    5 1  
     6    5    6 1  
     7    1    7 1  
     8    1    8 1  
     9    3    9 1  
    10    3   10 1  
    11    4   11 1  
    12    4   12 1  
    13    5   13 1  
    14    5   14 1  
    15    6   15 1  
    16    6   16 1  
# Name:          frag4-427-48/48856 -- energy: -1.068192
# Creation time: Sat Jun  5 12:52:24 2010


@<TRIPOS>MOLECULE
frag4-427-48/48856 -- energy: -1.068192
   16    16     1     1     1
SMALL
USER_CHARGES


@<TRIPOS>ATOM
      1 C1          1.3659   -0.2976   -0.9245 C.3        1 <1>        0.000
      2 O1          2.4121    0.2896   -0.3686 O.3        1 <1>        0.000
      3 C2          3.3019    0.9631   -1.2958 C.3        1 <1>        0.000
      4 C3          3.4468    0.4931   -2.7428 C.3        1 <1>        0.000
      5 C4          2.0539    0.2269   -3.2698 C.3        1 <1>        0.000
      6 C5          1.3887   -0.8013   -2.3436 C.3        1 <1>        0.000
      7 H           1.2397   -1.2051   -0.3341 H.spc      1 <1>        0.000
      8 H           0.6132    0.4904   -0.9460 H.spc      1 <1>        0.000
      9 H           4.2924    0.8049   -0.8692 H.spc      1 <1>        0.000
     10 H           2.8766    1.9625   -1.3870 H.spc      1 <1>        0.000
     11 H           4.0549   -0.4101   -2.7934 H.spc      1 <1>        0.000
     12 H           3.9456    1.2529   -3.3445 H.spc      1 <1>        0.000
     13 H           2.1024   -0.1578   -4.2885 H.spc      1 <1>        0.000
     14 H           1.4741    1.1497   -3.2883 H.spc      1 <1>        0.000
     15 H           0.3641   -0.9667   -2.6767 H.spc      1 <1>        0.000
     16 H           1.9576   -1.7304   -2.3801 H.spc      1 <1>        0.000
@<TRIPOS>BOND
     1    1    6 1  
     2    1    2 1  
     3    2    3 1  
     4    3    4 1  
     5    4    5 1  
     6    5    6 1  
     7    1    7 1  
     8    1    8 1  
     9    3    9 1  
    10    3   10 1  
    11    4   11 1  
    12    4   12 1  
    13    5   13 1  
    14    5   14 1  
    15    6   15 1  
    16    6   16 1  
