#      Rotatable Fragment
#      Build by yxyuan
#
# Name:          frag4-402-58/48856
# Creation time: Sat Jun  5 12:51:51 2010


@<TRIPOS>MOLECULE
frag4-402-58/48856
   31    34     1     1     1
SMALL
USER_CHARGES


@<TRIPOS>ATOM
      1 N1         -6.7839   -0.2165   -1.0681 N.2        1 <1>        0.000
      2 C1         -5.7257    0.1894   -0.2753 C.2        1 <1>        0.000
      3 C2         -4.6046    0.1458   -1.1628 C.2        1 <1>        0.000
      4 C3         -4.9450   -0.2250   -2.4165 C.2        1 <1>        0.000
      5 C4         -6.3688   -0.4596   -2.2798 C.2        1 <1>        0.000
      6 C6         -3.9804   -0.3075   -3.5072 C.3        1 <1>        0.000
      7 C7         -2.5403   -0.5289   -3.0064 C.3        1 <1>        0.000
      8 C15        -5.5600    0.5774    0.9976 C.2        1 <1>        0.000
      9 N2         -1.5428   -0.4320   -4.0787 N.4        1 <1>        0.000
     10 C8         -0.1772   -0.4559   -3.5618 C.3        1 <1>        0.000
     11 C9          0.1031    0.7122   -2.6375 C.3        1 <1>        0.000
     12 C10        -0.9965    0.8901   -1.6401 C.2        1 <1>        0.000
     13 C11        -2.2176    0.3209   -1.7575 C.2        1 <1>        0.000
     14 C12        -3.2571    0.4712   -0.7350 C.3        1 <1>        0.000
     15 C13        -3.1687    0.8818    0.6640 C.2        1 <1>        0.000
     16 C14        -4.2550    0.9392    1.4718 C.2        1 <1>        0.000
     17 H          -7.0136   -0.7979   -3.0909 H.spc      1 <1>        0.000
     18 H          -4.2529   -1.1571   -4.1333 H.spc      1 <1>        0.000
     19 H          -4.0058    0.6371   -4.0506 H.spc      1 <1>        0.000
     20 H          -2.4774   -1.5637   -2.6699 H.spc      1 <1>        0.000
     21 H          -6.4159    0.6179    1.6714 H.spc      1 <1>        0.000
     22 H          -1.6835    0.4533   -4.5653 H.spc      1 <1>        0.000
     23 H          -1.6627   -1.2333   -4.6983 H.spc      1 <1>        0.000
     24 H          -0.0443   -1.3774   -2.9950 H.spc      1 <1>        0.000
     25 H           0.5076   -0.3922   -4.4074 H.spc      1 <1>        0.000
     26 H           1.0309    0.5154   -2.1004 H.spc      1 <1>        0.000
     27 H           0.1785    1.6194   -3.2371 H.spc      1 <1>        0.000
     28 H          -0.8027    1.5146   -0.7680 H.spc      1 <1>        0.000
     29 H          -2.2317    0.7658   -0.5116 H.spc      1 <1>        0.000
     30 H          -2.1948    1.1515    1.0724 H.spc      1 <1>        0.000
     31 H          -4.1349    1.2673    2.5043 H.spc      1 <1>        0.000
@<TRIPOS>BOND
     1    2    8 2  
     2   16    8 1  
     3   13   14 1  
     4    4    5 1  
     5    3    4 2  
     6   12   13 2  
     7   11   12 1  
     8    3   14 1  
     9    6    7 1  
    10    7    9 1  
    11    1    5 2  
    12    7   13 1  
    13    4    6 1  
    14   10   11 1  
    15    2    3 1  
    16    9   10 1  
    17   14   15 1  
    18   15   16 2  
    19    1    2 1  
    20    5   17 1  
    21    6   18 1  
    22    6   19 1  
    23    7   20 1  
    24    8   21 1  
    25    9   22 1  
    26    9   23 1  
    27   10   24 1  
    28   10   25 1  
    29   11   26 1  
    30   11   27 1  
    31   12   28 1  
    32   14   29 1  
    33   15   30 1  
    34   16   31 1  
