#      Rotatable Fragment
#      Build by yxyuan
#
# Name:          frag5-615-94/138278
# Creation time: Sat Jun  5 12:53:47 2010


@<TRIPOS>MOLECULE
frag5-615-94/138278
   12    12     1     1     1
SMALL
USER_CHARGES


@<TRIPOS>ATOM
      1 N4          1.7105    0.5838    0.0919 N.am       1 <1>        0.000
      2 C17         2.0898    1.8701    0.0440 C.2        1 <1>        0.000
      3 C18         2.8469   -0.3238    0.0834 C.3        1 <1>        0.000
      4 N5          3.4285    1.9497   -0.0045 N.am       1 <1>        0.000
      5 O4          1.3267    2.8301    0.0447 O.2        1 <1>        0.000
      6 C19         4.0564    0.6376    0.0014 C.3        1 <1>        0.000
      7 H           0.7381    0.2781    0.1299 H.spc      1 <1>        0.000
      8 H           2.8146   -1.0348   -0.7422 H.spc      1 <1>        0.000
      9 H           2.8788   -0.9703    0.9604 H.spc      1 <1>        0.000
     10 H           3.9456    2.8281   -0.0412 H.spc      1 <1>        0.000
     11 H           4.6781    0.4619   -0.8765 H.spc      1 <1>        0.000
     12 H           4.7573    0.5074    0.8260 H.spc      1 <1>        0.000
@<TRIPOS>BOND
     1    1    2 am 
     2    1    3 1  
     3    2    4 am 
     4    2    5 2  
     5    3    6 1  
     6    4    6 1  
     7    1    7 1  
     8    3    8 1  
     9    3    9 1  
    10    4   10 1  
    11    6   11 1  
    12    6   12 1  
# Name:          frag5-615-94/138278 -- energy: -0.647036
# Creation time: Sat Jun  5 12:53:47 2010


@<TRIPOS>MOLECULE
frag5-615-94/138278 -- energy: -0.647036
   12    12     1     1     1
SMALL
USER_CHARGES


@<TRIPOS>ATOM
      1 N4          1.7105    0.5838    0.0919 N.am       1 <1>        0.000
      2 C17         2.0898    1.8701    0.0440 C.2        1 <1>        0.000
      3 C18         2.8469   -0.3238    0.0834 C.3        1 <1>        0.000
      4 N5          3.4285    1.9497   -0.0045 N.am       1 <1>        0.000
      5 O4          1.3267    2.8301    0.0447 O.2        1 <1>        0.000
      6 C19         4.0564    0.6376    0.0014 C.3        1 <1>        0.000
      7 H           0.7381    0.2781    0.1299 H.spc      1 <1>        0.000
      8 H           2.8146   -1.0348   -0.7422 H.spc      1 <1>        0.000
      9 H           2.8788   -0.9703    0.9604 H.spc      1 <1>        0.000
     10 H           3.9456    2.8281   -0.0412 H.spc      1 <1>        0.000
     11 H           4.6781    0.4619   -0.8765 H.spc      1 <1>        0.000
     12 H           4.7573    0.5074    0.8260 H.spc      1 <1>        0.000
@<TRIPOS>BOND
     1    1    2 am 
     2    1    3 1  
     3    2    4 am 
     4    2    5 2  
     5    3    6 1  
     6    4    6 1  
     7    1    7 1  
     8    3    8 1  
     9    3    9 1  
    10    4   10 1  
    11    6   11 1  
    12    6   12 1  
