#      Rotatable Fragment
#      Build by yxyuan
#
# Name:          frag5-591-37/41815
# Creation time: Sat Jun  5 12:52:57 2010


@<TRIPOS>MOLECULE
frag5-591-37/41815
   18    18     1     1     1
SMALL
USER_CHARGES


@<TRIPOS>ATOM
      1 N4         -6.2128    0.2016   -0.8985 N.am       1 <1>        0.000
      2 C18        -6.2724    1.0715    0.1346 C.2        1 <1>        0.000
      3 O4         -5.6854    2.1417    0.0652 O.2        1 <1>        0.000
      4 N5         -6.9810    0.7578    1.2429 N.am       1 <1>        0.000
      5 C19        -8.2770    0.1957    1.1281 C.ar       1 <1>        0.000
      6 C20        -8.9536    0.2470   -0.0944 C.ar       1 <1>        0.000
      7 C21       -10.2308   -0.3082   -0.2104 C.ar       1 <1>        0.000
      8 C22       -10.8341   -0.9097    0.8982 C.ar       1 <1>        0.000
      9 C23       -10.1556   -0.9651    2.1200 C.ar       1 <1>        0.000
     10 C24        -8.8766   -0.4122    2.2345 C.ar       1 <1>        0.000
     11 H          -5.6786    0.4385   -1.7345 H.spc      1 <1>        0.000
     12 H          -6.7020   -0.6916   -0.8420 H.spc      1 <1>        0.000
     13 H          -6.5809    0.9265    2.1658 H.spc      1 <1>        0.000
     14 H          -8.4848    0.7202   -0.9572 H.spc      1 <1>        0.000
     15 H         -10.7564   -0.2723   -1.1646 H.spc      1 <1>        0.000
     16 H         -11.8336   -1.3356    0.8103 H.spc      1 <1>        0.000
     17 H         -10.6238   -1.4392    2.9826 H.spc      1 <1>        0.000
     18 H          -8.3473   -0.4552    3.1864 H.spc      1 <1>        0.000
@<TRIPOS>BOND
     1    7    8 ar 
     2    8    9 ar 
     3    9   10 ar 
     4    6    7 ar 
     5    1    2 am 
     6    2    3 2  
     7    2    4 am 
     8    4    5 1  
     9    5    6 ar 
    10    5   10 ar 
    11    1   11 1  
    12    1   12 1  
    13    4   13 1  
    14    6   14 1  
    15    7   15 1  
    16    8   16 1  
    17    9   17 1  
    18   10   18 1  
# Name:          frag5-591-37/41815
# Creation time: Sat Jun  5 12:52:57 2010


@<TRIPOS>MOLECULE
frag5-591-37/41815
   18    18     1     1     1
SMALL
USER_CHARGES


@<TRIPOS>ATOM
      1 N4         -5.1053    0.7570   -0.5516 N.am       1 <1>        0.000
      2 C18        -6.2621    1.0012    0.1085 C.2        1 <1>        0.000
      3 O4         -6.8217    2.0774   -0.0167 O.2        1 <1>        0.000
      4 N5         -6.7919    0.0466    0.9088 N.am       1 <1>        0.000
      5 C19        -8.1990   -0.1333    0.9679 C.ar       1 <1>        0.000
      6 C20        -8.8100   -0.4450    2.1859 C.ar       1 <1>        0.000
      7 C21       -10.1955   -0.6214    2.2467 C.ar       1 <1>        0.000
      8 C22       -10.9678   -0.4915    1.0885 C.ar       1 <1>        0.000
      9 C23       -10.3559   -0.1751   -0.1288 C.ar       1 <1>        0.000
     10 C24        -8.9702    0.0041   -0.1889 C.ar       1 <1>        0.000
     11 H          -4.7010    1.4736   -1.1544 H.spc      1 <1>        0.000
     12 H          -4.6382   -0.1436   -0.4460 H.spc      1 <1>        0.000
     13 H          -6.1791   -0.5445    1.4704 H.spc      1 <1>        0.000
     14 H          -8.2067   -0.5504    3.0875 H.spc      1 <1>        0.000
     15 H         -10.6735   -0.8601    3.1968 H.spc      1 <1>        0.000
     16 H         -12.0471   -0.6368    1.1342 H.spc      1 <1>        0.000
     17 H         -10.9590   -0.0682   -1.0305 H.spc      1 <1>        0.000
     18 H          -8.4925    0.2507   -1.1371 H.spc      1 <1>        0.000
@<TRIPOS>BOND
     1    7    8 ar 
     2    8    9 ar 
     3    9   10 ar 
     4    6    7 ar 
     5    1    2 am 
     6    2    3 2  
     7    2    4 am 
     8    4    5 1  
     9    5    6 ar 
    10    5   10 ar 
    11    1   11 1  
    12    1   12 1  
    13    4   13 1  
    14    6   14 1  
    15    7   15 1  
    16    8   16 1  
    17    9   17 1  
    18   10   18 1  
# Name:          frag5-591-37/41815
# Creation time: Sat Jun  5 12:52:57 2010


@<TRIPOS>MOLECULE
frag5-591-37/41815
   18    18     1     1     1
SMALL
USER_CHARGES


@<TRIPOS>ATOM
      1 N4         -5.8957   -0.1879   -0.2855 N.am       1 <1>        0.000
      2 C18        -6.1998    0.9910    0.3053 C.2        1 <1>        0.000
      3 O4         -5.3243    1.6495    0.8427 O.2        1 <1>        0.000
      4 N5         -7.4776    1.4377    0.2974 N.am       1 <1>        0.000
      5 C19        -8.5455    0.5557    0.6055 C.ar       1 <1>        0.000
      6 C20        -8.4431   -0.3073    1.6997 C.ar       1 <1>        0.000
      7 C21        -9.4956   -1.1753    2.0053 C.ar       1 <1>        0.000
      8 C22       -10.6474   -1.1829    1.2126 C.ar       1 <1>        0.000
      9 C23       -10.7510   -0.3154    0.1204 C.ar       1 <1>        0.000
     10 C24        -9.6992    0.5547   -0.1833 C.ar       1 <1>        0.000
     11 H          -4.9337   -0.5270   -0.2819 H.spc      1 <1>        0.000
     12 H          -6.6285   -0.7374   -0.7344 H.spc      1 <1>        0.000
     13 H          -7.6736    2.4123    0.0690 H.spc      1 <1>        0.000
     14 H          -7.5431   -0.3038    2.3146 H.spc      1 <1>        0.000
     15 H          -9.4183   -1.8458    2.8612 H.spc      1 <1>        0.000
     16 H         -11.4648   -1.8651    1.4459 H.spc      1 <1>        0.000
     17 H         -11.6514   -0.3175   -0.4939 H.spc      1 <1>        0.000
     18 H          -9.7791    1.2313   -1.0342 H.spc      1 <1>        0.000
@<TRIPOS>BOND
     1    7    8 ar 
     2    8    9 ar 
     3    9   10 ar 
     4    6    7 ar 
     5    1    2 am 
     6    2    3 2  
     7    2    4 am 
     8    4    5 1  
     9    5    6 ar 
    10    5   10 ar 
    11    1   11 1  
    12    1   12 1  
    13    4   13 1  
    14    6   14 1  
    15    7   15 1  
    16    8   16 1  
    17    9   17 1  
    18   10   18 1  
# Name:          frag5-591-37/41815
# Creation time: Sat Jun  5 12:52:57 2010


@<TRIPOS>MOLECULE
frag5-591-37/41815
   18    18     1     1     1
SMALL
USER_CHARGES


@<TRIPOS>ATOM
      1 N4         -5.5147    2.0931   -0.1608 N.am       1 <1>        0.000
      2 C18        -6.2612    0.9952    0.1057 C.2        1 <1>        0.000
      3 O4         -6.1763    0.0104   -0.6084 O.2        1 <1>        0.000
      4 N5         -7.0997    0.9964    1.1684 N.am       1 <1>        0.000
      5 C19        -8.3457    0.3198    1.0935 C.ar       1 <1>        0.000
      6 C20        -9.0681    0.3203   -0.1025 C.ar       1 <1>        0.000
      7 C21       -10.2945   -0.3468   -0.1776 C.ar       1 <1>        0.000
      8 C22       -10.7997   -1.0086    0.9456 C.ar       1 <1>        0.000
      9 C23       -10.0738   -1.0122    2.1411 C.ar       1 <1>        0.000
     10 C24        -8.8456   -0.3477    2.2151 C.ar       1 <1>        0.000
     11 H          -4.8805    2.0970   -0.9596 H.spc      1 <1>        0.000
     12 H          -5.5866    2.9162    0.4373 H.spc      1 <1>        0.000
     13 H          -6.8359    1.4842    2.0245 H.spc      1 <1>        0.000
     14 H          -8.6758    0.8404   -0.9764 H.spc      1 <1>        0.000
     15 H         -10.8566   -0.3509   -1.1115 H.spc      1 <1>        0.000
     16 H         -11.7596   -1.5219    0.8895 H.spc      1 <1>        0.000
     17 H         -10.4654   -1.5329    3.0150 H.spc      1 <1>        0.000
     18 H          -8.2789   -0.3503    3.1462 H.spc      1 <1>        0.000
@<TRIPOS>BOND
     1    7    8 ar 
     2    8    9 ar 
     3    9   10 ar 
     4    6    7 ar 
     5    1    2 am 
     6    2    3 2  
     7    2    4 am 
     8    4    5 1  
     9    5    6 ar 
    10    5   10 ar 
    11    1   11 1  
    12    1   12 1  
    13    4   13 1  
    14    6   14 1  
    15    7   15 1  
    16    8   16 1  
    17    9   17 1  
    18   10   18 1  
# Name:          frag5-591-37/41815
# Creation time: Sat Jun  5 12:52:57 2010


@<TRIPOS>MOLECULE
frag5-591-37/41815
   18    18     1     1     1
SMALL
USER_CHARGES


@<TRIPOS>ATOM
      1 N4         -5.4014    0.7513   -0.8126 N.am       1 <1>        0.000
      2 C18        -6.2042    0.9515    0.2599 C.2        1 <1>        0.000
      3 O4         -5.7713    0.7858    1.3872 O.2        1 <1>        0.000
      4 N5         -7.4879    1.3388    0.0722 N.am       1 <1>        0.000
      5 C19        -8.5536    0.5117    0.5174 C.ar       1 <1>        0.000
      6 C20        -9.6296    0.2465   -0.3341 C.ar       1 <1>        0.000
      7 C21       -10.6793   -0.5682    0.1008 C.ar       1 <1>        0.000
      8 C22       -10.6541   -1.1119    1.3888 C.ar       1 <1>        0.000
      9 C23        -9.5745   -0.8492    2.2384 C.ar       1 <1>        0.000
     10 C24        -8.5232   -0.0363    1.8022 C.ar       1 <1>        0.000
     11 H          -4.4328    0.4614   -0.6776 H.spc      1 <1>        0.000
     12 H          -5.7654    0.8905   -1.7552 H.spc      1 <1>        0.000
     13 H          -7.6901    2.2256   -0.3895 H.spc      1 <1>        0.000
     14 H          -9.6504    0.6744   -1.3364 H.spc      1 <1>        0.000
     15 H         -11.5170   -0.7794   -0.5639 H.spc      1 <1>        0.000
     16 H         -11.4761   -1.7407    1.7309 H.spc      1 <1>        0.000
     17 H          -9.5525   -1.2779    3.2403 H.spc      1 <1>        0.000
     18 H          -7.6815    0.1693    2.4636 H.spc      1 <1>        0.000
@<TRIPOS>BOND
     1    7    8 ar 
     2    8    9 ar 
     3    9   10 ar 
     4    6    7 ar 
     5    1    2 am 
     6    2    3 2  
     7    2    4 am 
     8    4    5 1  
     9    5    6 ar 
    10    5   10 ar 
    11    1   11 1  
    12    1   12 1  
    13    4   13 1  
    14    6   14 1  
    15    7   15 1  
    16    8   16 1  
    17    9   17 1  
    18   10   18 1  
# Name:          frag5-591-37/41815 -- energy: -0.518902
# Creation time: Sat Jun  5 12:52:57 2010


@<TRIPOS>MOLECULE
frag5-591-37/41815 -- energy: -0.518902
   18    18     1     1     1
SMALL
USER_CHARGES


@<TRIPOS>ATOM
      1 N4         -6.2128    0.2016   -0.8985 N.am       1 <1>        0.000
      2 C18        -6.2724    1.0715    0.1346 C.2        1 <1>        0.000
      3 O4         -5.6854    2.1417    0.0652 O.2        1 <1>        0.000
      4 N5         -6.9810    0.7578    1.2429 N.am       1 <1>        0.000
      5 C19        -8.2770    0.1957    1.1281 C.ar       1 <1>        0.000
      6 C20        -8.9536    0.2470   -0.0944 C.ar       1 <1>        0.000
      7 C21       -10.2308   -0.3082   -0.2104 C.ar       1 <1>        0.000
      8 C22       -10.8341   -0.9097    0.8982 C.ar       1 <1>        0.000
      9 C23       -10.1556   -0.9651    2.1200 C.ar       1 <1>        0.000
     10 C24        -8.8766   -0.4122    2.2345 C.ar       1 <1>        0.000
     11 H          -5.6786    0.4385   -1.7345 H.spc      1 <1>        0.000
     12 H          -6.7020   -0.6916   -0.8420 H.spc      1 <1>        0.000
     13 H          -6.5809    0.9265    2.1658 H.spc      1 <1>        0.000
     14 H          -8.4848    0.7202   -0.9572 H.spc      1 <1>        0.000
     15 H         -10.7564   -0.2723   -1.1646 H.spc      1 <1>        0.000
     16 H         -11.8336   -1.3356    0.8103 H.spc      1 <1>        0.000
     17 H         -10.6238   -1.4392    2.9826 H.spc      1 <1>        0.000
     18 H          -8.3473   -0.4552    3.1864 H.spc      1 <1>        0.000
@<TRIPOS>BOND
     1    7    8 ar 
     2    8    9 ar 
     3    9   10 ar 
     4    6    7 ar 
     5    1    2 am 
     6    2    3 2  
     7    2    4 am 
     8    4    5 1  
     9    5    6 ar 
    10    5   10 ar 
    11    1   11 1  
    12    1   12 1  
    13    4   13 1  
    14    6   14 1  
    15    7   15 1  
    16    8   16 1  
    17    9   17 1  
    18   10   18 1  
# Name:          frag5-591-37/41815 -- energy: -0.872631
# Creation time: Sat Jun  5 12:52:57 2010


@<TRIPOS>MOLECULE
frag5-591-37/41815 -- energy: -0.872631
   18    18     1     1     1
SMALL
USER_CHARGES


@<TRIPOS>ATOM
      1 N4         -5.1053    0.7570   -0.5516 N.am       1 <1>        0.000
      2 C18        -6.2621    1.0012    0.1085 C.2        1 <1>        0.000
      3 O4         -6.8217    2.0774   -0.0167 O.2        1 <1>        0.000
      4 N5         -6.7919    0.0466    0.9088 N.am       1 <1>        0.000
      5 C19        -8.1990   -0.1333    0.9679 C.ar       1 <1>        0.000
      6 C20        -8.8100   -0.4450    2.1859 C.ar       1 <1>        0.000
      7 C21       -10.1955   -0.6214    2.2467 C.ar       1 <1>        0.000
      8 C22       -10.9678   -0.4915    1.0885 C.ar       1 <1>        0.000
      9 C23       -10.3559   -0.1751   -0.1288 C.ar       1 <1>        0.000
     10 C24        -8.9702    0.0041   -0.1889 C.ar       1 <1>        0.000
     11 H          -4.7010    1.4736   -1.1544 H.spc      1 <1>        0.000
     12 H          -4.6382   -0.1436   -0.4460 H.spc      1 <1>        0.000
     13 H          -6.1791   -0.5445    1.4704 H.spc      1 <1>        0.000
     14 H          -8.2067   -0.5504    3.0875 H.spc      1 <1>        0.000
     15 H         -10.6735   -0.8601    3.1968 H.spc      1 <1>        0.000
     16 H         -12.0471   -0.6368    1.1342 H.spc      1 <1>        0.000
     17 H         -10.9590   -0.0682   -1.0305 H.spc      1 <1>        0.000
     18 H          -8.4925    0.2507   -1.1371 H.spc      1 <1>        0.000
@<TRIPOS>BOND
     1    7    8 ar 
     2    8    9 ar 
     3    9   10 ar 
     4    6    7 ar 
     5    1    2 am 
     6    2    3 2  
     7    2    4 am 
     8    4    5 1  
     9    5    6 ar 
    10    5   10 ar 
    11    1   11 1  
    12    1   12 1  
    13    4   13 1  
    14    6   14 1  
    15    7   15 1  
    16    8   16 1  
    17    9   17 1  
    18   10   18 1  
# Name:          frag5-591-37/41815 -- energy: -1.165475
# Creation time: Sat Jun  5 12:52:57 2010


@<TRIPOS>MOLECULE
frag5-591-37/41815 -- energy: -1.165475
   18    18     1     1     1
SMALL
USER_CHARGES


@<TRIPOS>ATOM
      1 N4         -5.8957   -0.1879   -0.2855 N.am       1 <1>        0.000
      2 C18        -6.1998    0.9910    0.3053 C.2        1 <1>        0.000
      3 O4         -5.3243    1.6495    0.8427 O.2        1 <1>        0.000
      4 N5         -7.4776    1.4377    0.2974 N.am       1 <1>        0.000
      5 C19        -8.5455    0.5557    0.6055 C.ar       1 <1>        0.000
      6 C20        -8.4431   -0.3073    1.6997 C.ar       1 <1>        0.000
      7 C21        -9.4956   -1.1753    2.0053 C.ar       1 <1>        0.000
      8 C22       -10.6474   -1.1829    1.2126 C.ar       1 <1>        0.000
      9 C23       -10.7510   -0.3154    0.1204 C.ar       1 <1>        0.000
     10 C24        -9.6992    0.5547   -0.1833 C.ar       1 <1>        0.000
     11 H          -4.9337   -0.5270   -0.2819 H.spc      1 <1>        0.000
     12 H          -6.6285   -0.7374   -0.7344 H.spc      1 <1>        0.000
     13 H          -7.6736    2.4123    0.0690 H.spc      1 <1>        0.000
     14 H          -7.5431   -0.3038    2.3146 H.spc      1 <1>        0.000
     15 H          -9.4183   -1.8458    2.8612 H.spc      1 <1>        0.000
     16 H         -11.4648   -1.8651    1.4459 H.spc      1 <1>        0.000
     17 H         -11.6514   -0.3175   -0.4939 H.spc      1 <1>        0.000
     18 H          -9.7791    1.2313   -1.0342 H.spc      1 <1>        0.000
@<TRIPOS>BOND
     1    7    8 ar 
     2    8    9 ar 
     3    9   10 ar 
     4    6    7 ar 
     5    1    2 am 
     6    2    3 2  
     7    2    4 am 
     8    4    5 1  
     9    5    6 ar 
    10    5   10 ar 
    11    1   11 1  
    12    1   12 1  
    13    4   13 1  
    14    6   14 1  
    15    7   15 1  
    16    8   16 1  
    17    9   17 1  
    18   10   18 1  
# Name:          frag5-591-37/41815 -- energy: -0.831698
# Creation time: Sat Jun  5 12:52:57 2010


@<TRIPOS>MOLECULE
frag5-591-37/41815 -- energy: -0.831698
   18    18     1     1     1
SMALL
USER_CHARGES


@<TRIPOS>ATOM
      1 N4         -5.5147    2.0931   -0.1608 N.am       1 <1>        0.000
      2 C18        -6.2612    0.9952    0.1057 C.2        1 <1>        0.000
      3 O4         -6.1763    0.0104   -0.6084 O.2        1 <1>        0.000
      4 N5         -7.0997    0.9964    1.1684 N.am       1 <1>        0.000
      5 C19        -8.3457    0.3198    1.0935 C.ar       1 <1>        0.000
      6 C20        -9.0681    0.3203   -0.1025 C.ar       1 <1>        0.000
      7 C21       -10.2945   -0.3468   -0.1776 C.ar       1 <1>        0.000
      8 C22       -10.7997   -1.0086    0.9456 C.ar       1 <1>        0.000
      9 C23       -10.0738   -1.0122    2.1411 C.ar       1 <1>        0.000
     10 C24        -8.8456   -0.3477    2.2151 C.ar       1 <1>        0.000
     11 H          -4.8805    2.0970   -0.9596 H.spc      1 <1>        0.000
     12 H          -5.5866    2.9162    0.4373 H.spc      1 <1>        0.000
     13 H          -6.8359    1.4842    2.0245 H.spc      1 <1>        0.000
     14 H          -8.6758    0.8404   -0.9764 H.spc      1 <1>        0.000
     15 H         -10.8566   -0.3509   -1.1115 H.spc      1 <1>        0.000
     16 H         -11.7596   -1.5219    0.8895 H.spc      1 <1>        0.000
     17 H         -10.4654   -1.5329    3.0150 H.spc      1 <1>        0.000
     18 H          -8.2789   -0.3503    3.1462 H.spc      1 <1>        0.000
@<TRIPOS>BOND
     1    7    8 ar 
     2    8    9 ar 
     3    9   10 ar 
     4    6    7 ar 
     5    1    2 am 
     6    2    3 2  
     7    2    4 am 
     8    4    5 1  
     9    5    6 ar 
    10    5   10 ar 
    11    1   11 1  
    12    1   12 1  
    13    4   13 1  
    14    6   14 1  
    15    7   15 1  
    16    8   16 1  
    17    9   17 1  
    18   10   18 1  
# Name:          frag5-591-37/41815 -- energy: -0.692111
# Creation time: Sat Jun  5 12:52:57 2010


@<TRIPOS>MOLECULE
frag5-591-37/41815 -- energy: -0.692111
   18    18     1     1     1
SMALL
USER_CHARGES


@<TRIPOS>ATOM
      1 N4         -5.4014    0.7513   -0.8126 N.am       1 <1>        0.000
      2 C18        -6.2042    0.9515    0.2599 C.2        1 <1>        0.000
      3 O4         -5.7713    0.7858    1.3872 O.2        1 <1>        0.000
      4 N5         -7.4879    1.3388    0.0722 N.am       1 <1>        0.000
      5 C19        -8.5536    0.5117    0.5174 C.ar       1 <1>        0.000
      6 C20        -9.6296    0.2465   -0.3341 C.ar       1 <1>        0.000
      7 C21       -10.6793   -0.5682    0.1008 C.ar       1 <1>        0.000
      8 C22       -10.6541   -1.1119    1.3888 C.ar       1 <1>        0.000
      9 C23        -9.5745   -0.8492    2.2384 C.ar       1 <1>        0.000
     10 C24        -8.5232   -0.0363    1.8022 C.ar       1 <1>        0.000
     11 H          -4.4328    0.4614   -0.6776 H.spc      1 <1>        0.000
     12 H          -5.7654    0.8905   -1.7552 H.spc      1 <1>        0.000
     13 H          -7.6901    2.2256   -0.3895 H.spc      1 <1>        0.000
     14 H          -9.6504    0.6744   -1.3364 H.spc      1 <1>        0.000
     15 H         -11.5170   -0.7794   -0.5639 H.spc      1 <1>        0.000
     16 H         -11.4761   -1.7407    1.7309 H.spc      1 <1>        0.000
     17 H          -9.5525   -1.2779    3.2403 H.spc      1 <1>        0.000
     18 H          -7.6815    0.1693    2.4636 H.spc      1 <1>        0.000
@<TRIPOS>BOND
     1    7    8 ar 
     2    8    9 ar 
     3    9   10 ar 
     4    6    7 ar 
     5    1    2 am 
     6    2    3 2  
     7    2    4 am 
     8    4    5 1  
     9    5    6 ar 
    10    5   10 ar 
    11    1   11 1  
    12    1   12 1  
    13    4   13 1  
    14    6   14 1  
    15    7   15 1  
    16    8   16 1  
    17    9   17 1  
    18   10   18 1  
