#      Rotatable Fragment
#      Build by yxyuan
#
# Name:          frag4-349-414/150395
# Creation time: Sat Jun  5 12:53:31 2010


@<TRIPOS>MOLECULE
frag4-349-414/150395
   16    16     1     1     1
SMALL
USER_CHARGES


@<TRIPOS>ATOM
      1 C20         0.9576    0.9516   -0.4448 C.3        1 <1>        0.000
      2 C22         2.2146    1.5694    0.1593 C.3        1 <1>        0.000
      3 O1         -0.2474    1.6632   -0.5262 O.3        1 <1>        0.000
      4 C23         2.3582    2.9599   -0.3804 C.3        1 <1>        0.000
      5 C24        -0.0256    2.9592   -0.5820 C.3        1 <1>        0.000
      6 C25         1.1276    3.7341   -0.0813 C.3        1 <1>        0.000
      7 H           1.2283    0.7817   -1.4869 H.spc      1 <1>        0.000
      8 H           0.7256    0.1267    0.2289 H.spc      1 <1>        0.000
      9 H           3.0886    0.9733   -0.1032 H.spc      1 <1>        0.000
     10 H           2.1344    1.5955    1.2460 H.spc      1 <1>        0.000
     11 H           2.5088    2.9180   -1.4591 H.spc      1 <1>        0.000
     12 H           3.2158    3.4447    0.0861 H.spc      1 <1>        0.000
     13 H          -0.8130    3.3249    0.0771 H.spc      1 <1>        0.000
     14 H           0.0944    3.0950   -1.6568 H.spc      1 <1>        0.000
     15 H           1.1671    4.7098   -0.5656 H.spc      1 <1>        0.000
     16 H           1.0356    3.8989    0.9922 H.spc      1 <1>        0.000
@<TRIPOS>BOND
     1    1    3 1  
     2    1    2 1  
     3    2    4 1  
     4    3    5 1  
     5    4    6 1  
     6    5    6 1  
     7    1    7 1  
     8    1    8 1  
     9    2    9 1  
    10    2   10 1  
    11    4   11 1  
    12    4   12 1  
    13    5   13 1  
    14    5   14 1  
    15    6   15 1  
    16    6   16 1  
# Name:          frag4-349-414/150395 -- energy: -0.843004
# Creation time: Sat Jun  5 12:53:31 2010


@<TRIPOS>MOLECULE
frag4-349-414/150395 -- energy: -0.843004
   16    16     1     1     1
SMALL
USER_CHARGES


@<TRIPOS>ATOM
      1 C20         0.9576    0.9516   -0.4448 C.3        1 <1>        0.000
      2 C22         2.2146    1.5694    0.1593 C.3        1 <1>        0.000
      3 O1         -0.2474    1.6632   -0.5262 O.3        1 <1>        0.000
      4 C23         2.3582    2.9599   -0.3804 C.3        1 <1>        0.000
      5 C24        -0.0256    2.9592   -0.5820 C.3        1 <1>        0.000
      6 C25         1.1276    3.7341   -0.0813 C.3        1 <1>        0.000
      7 H           1.2283    0.7817   -1.4869 H.spc      1 <1>        0.000
      8 H           0.7256    0.1267    0.2289 H.spc      1 <1>        0.000
      9 H           3.0886    0.9733   -0.1032 H.spc      1 <1>        0.000
     10 H           2.1344    1.5955    1.2460 H.spc      1 <1>        0.000
     11 H           2.5088    2.9180   -1.4591 H.spc      1 <1>        0.000
     12 H           3.2158    3.4447    0.0861 H.spc      1 <1>        0.000
     13 H          -0.8130    3.3249    0.0771 H.spc      1 <1>        0.000
     14 H           0.0944    3.0950   -1.6568 H.spc      1 <1>        0.000
     15 H           1.1671    4.7098   -0.5656 H.spc      1 <1>        0.000
     16 H           1.0356    3.8989    0.9922 H.spc      1 <1>        0.000
@<TRIPOS>BOND
     1    1    3 1  
     2    1    2 1  
     3    2    4 1  
     4    3    5 1  
     5    4    6 1  
     6    5    6 1  
     7    1    7 1  
     8    1    8 1  
     9    2    9 1  
    10    2   10 1  
    11    4   11 1  
    12    4   12 1  
    13    5   13 1  
    14    5   14 1  
    15    6   15 1  
    16    6   16 1  
