#      Rotatable Fragment
#      Build by yxyuan
#
# Name:          frag3-183-8/31924
# Creation time: Sat Jun  5 12:52:09 2010


@<TRIPOS>MOLECULE
frag3-183-8/31924
    7     6     1     1     1
SMALL
USER_CHARGES


@<TRIPOS>ATOM
      1 C13         1.0729   -0.3011   -0.0487 C.2        1 <1>        0.000
      2 O1          1.1936   -1.4879   -0.2955 O.2        1 <1>        0.000
      3 C14        -0.2952    0.3380   -0.0219 C.2        1 <1>        0.000
      4 O2         -1.2229   -0.3636   -0.3887 O.2        1 <1>        0.000
      5 O3         -0.3541    1.5930    0.4026 O.3        1 <1>        0.000
      6 H           1.9573    0.3030    0.1539 H.spc      1 <1>        0.000
      7 H           0.5291    1.8958    0.6260 H.spc      1 <1>        0.000
@<TRIPOS>BOND
     1    1    2 2  
     2    1    3 1  
     3    3    4 2  
     4    3    5 1  
     5    1    6 1  
     6    5    7 1  
# Name:          frag3-183-8/31924
# Creation time: Sat Jun  5 12:52:09 2010


@<TRIPOS>MOLECULE
frag3-183-8/31924
    7     6     1     1     1
SMALL
USER_CHARGES


@<TRIPOS>ATOM
      1 C13         0.6913   -0.7887    0.2888 C.2        1 <1>        0.000
      2 O1          1.6162   -0.9357   -0.4897 O.2        1 <1>        0.000
      3 C14        -0.3873    0.2246    0.0079 C.2        1 <1>        0.000
      4 O2         -1.4754   -0.2235   -0.3120 O.2        1 <1>        0.000
      5 O3         -0.0506    1.5017    0.1529 O.3        1 <1>        0.000
      6 H           0.6437   -1.3939    1.1941 H.spc      1 <1>        0.000
      7 H           0.8721    1.5609    0.4112 H.spc      1 <1>        0.000
@<TRIPOS>BOND
     1    1    2 2  
     2    1    3 1  
     3    3    4 2  
     4    3    5 1  
     5    1    6 1  
     6    5    7 1  
# Name:          frag3-183-8/31924 -- energy: 0.026623
# Creation time: Sat Jun  5 12:52:09 2010


@<TRIPOS>MOLECULE
frag3-183-8/31924 -- energy: 0.026623
    7     6     1     1     1
SMALL
USER_CHARGES


@<TRIPOS>ATOM
      1 C13         1.0729   -0.3011   -0.0487 C.2        1 <1>        0.000
      2 O1          1.1936   -1.4879   -0.2955 O.2        1 <1>        0.000
      3 C14        -0.2952    0.3380   -0.0219 C.2        1 <1>        0.000
      4 O2         -1.2229   -0.3636   -0.3887 O.2        1 <1>        0.000
      5 O3         -0.3541    1.5930    0.4026 O.3        1 <1>        0.000
      6 H           1.9573    0.3030    0.1539 H.spc      1 <1>        0.000
      7 H           0.5291    1.8958    0.6260 H.spc      1 <1>        0.000
@<TRIPOS>BOND
     1    1    2 2  
     2    1    3 1  
     3    3    4 2  
     4    3    5 1  
     5    1    6 1  
     6    5    7 1  
# Name:          frag3-183-8/31924 -- energy: -0.114719
# Creation time: Sat Jun  5 12:52:09 2010


@<TRIPOS>MOLECULE
frag3-183-8/31924 -- energy: -0.114719
    7     6     1     1     1
SMALL
USER_CHARGES


@<TRIPOS>ATOM
      1 C13         0.6913   -0.7887    0.2888 C.2        1 <1>        0.000
      2 O1          1.6162   -0.9357   -0.4897 O.2        1 <1>        0.000
      3 C14        -0.3873    0.2246    0.0079 C.2        1 <1>        0.000
      4 O2         -1.4754   -0.2235   -0.3120 O.2        1 <1>        0.000
      5 O3         -0.0506    1.5017    0.1529 O.3        1 <1>        0.000
      6 H           0.6437   -1.3939    1.1941 H.spc      1 <1>        0.000
      7 H           0.8721    1.5609    0.4112 H.spc      1 <1>        0.000
@<TRIPOS>BOND
     1    1    2 2  
     2    1    3 1  
     3    3    4 2  
     4    3    5 1  
     5    1    6 1  
     6    5    7 1  
