#      Rotatable Fragment
#      Build by yxyuan
#
# Name:          frag3-105-148/31924
# Creation time: Sat Jun  5 12:52:00 2010


@<TRIPOS>MOLECULE
frag3-105-148/31924
    8     7     1     1     1
SMALL
USER_CHARGES


@<TRIPOS>ATOM
      1 P1          3.6126    8.5701    4.0316 P.3        1 <1>        0.000
      2 O1          3.7082   10.0076    4.0547 O.2        1 <1>        0.000
      3 O2          4.4843    7.9607    2.8789 O.3        1 <1>        0.000
      4 O11         2.1351    8.1037    3.7829 O.3        1 <1>        0.000
      5 O16         4.0823    7.8856    5.3809 O.3        1 <1>        0.000
      6 H           4.4013    7.0043    2.8878 H.spc      1 <1>        0.000
      7 H           2.1010    7.1444    3.7724 H.spc      1 <1>        0.000
      8 H           3.9950    6.9328    5.3023 H.spc      1 <1>        0.000
@<TRIPOS>BOND
     1    1    2 2  
     2    1    3 1  
     3    1    4 1  
     4    1    5 1  
     5    3    6 1  
     6    4    7 1  
     7    5    8 1  
# Name:          frag3-105-148/31924 -- energy: -0.385117
# Creation time: Sat Jun  5 12:52:00 2010


@<TRIPOS>MOLECULE
frag3-105-148/31924 -- energy: -0.385117
    8     7     1     1     1
SMALL
USER_CHARGES


@<TRIPOS>ATOM
      1 P1          3.6126    8.5701    4.0316 P.3        1 <1>        0.000
      2 O1          3.7082   10.0076    4.0547 O.2        1 <1>        0.000
      3 O2          4.4843    7.9607    2.8789 O.3        1 <1>        0.000
      4 O11         2.1351    8.1037    3.7829 O.3        1 <1>        0.000
      5 O16         4.0823    7.8856    5.3809 O.3        1 <1>        0.000
      6 H           4.4013    7.0043    2.8878 H.spc      1 <1>        0.000
      7 H           2.1010    7.1444    3.7724 H.spc      1 <1>        0.000
      8 H           3.9950    6.9328    5.3023 H.spc      1 <1>        0.000
@<TRIPOS>BOND
     1    1    2 2  
     2    1    3 1  
     3    1    4 1  
     4    1    5 1  
     5    3    6 1  
     6    4    7 1  
     7    5    8 1  
