#      Rotatable Fragment
#      Build by yxyuan
#
# Name:          frag5-511-194/41815
# Creation time: Sat Jun  5 12:52:50 2010


@<TRIPOS>MOLECULE
frag5-511-194/41815
   40    43     1     1     1
SMALL
USER_CHARGES


@<TRIPOS>ATOM
      1 C3         -1.9135   -0.3365    0.3143 C.3        1 <1>        0.000
      2 C4         -2.4729   -0.9190   -1.0073 C.3        1 <1>        0.000
      3 C5         -1.2863   -1.6394   -1.7038 C.3        1 <1>        0.000
      4 C6         -0.0499   -1.2505   -0.8671 C.3        1 <1>        0.000
      5 C7         -0.6401   -1.1652    0.5506 C.3        1 <1>        0.000
      6 C8          0.4045   -0.5941    1.5256 C.3        1 <1>        0.000
      7 C9          1.6524   -1.5066    1.5285 C.3        1 <1>        0.000
      8 C18         4.5517   -2.2959    1.0817 C.2        1 <1>        0.000
      9 C10         2.2575   -1.7084    0.1084 C.3        1 <1>        0.000
     10 C11         1.1672   -2.2033   -0.8947 C.3        1 <1>        0.000
     11 C12         1.7435   -2.3358   -2.3243 C.3        1 <1>        0.000
     12 C13         2.9596   -3.2806   -2.3421 C.3        1 <1>        0.000
     13 C14         3.9636   -2.7802   -1.3380 C.2        1 <1>        0.000
     14 C15         5.2081   -2.4244   -1.6986 C.2        1 <1>        0.000
     15 C16         6.1691   -1.9371   -0.7018 C.2        1 <1>        0.000
     16 C17         5.7899   -1.9387    0.7164 C.2        1 <1>        0.000
     17 C19         3.4761   -2.6799    0.0929 C.3        1 <1>        0.000
     18 O3          7.2745   -1.5471   -1.0452 O.2        1 <1>        0.000
     19 H          -2.6220   -0.4089    1.1394 H.spc      1 <1>        0.000
     20 H          -1.7140    0.7333    0.2517 H.spc      1 <1>        0.000
     21 H          -2.8797   -0.1313   -1.6414 H.spc      1 <1>        0.000
     22 H          -3.2926   -1.6111   -0.8144 H.spc      1 <1>        0.000
     23 H          -1.4301   -2.7192   -1.7408 H.spc      1 <1>        0.000
     24 H          -1.1832   -1.3399   -2.7468 H.spc      1 <1>        0.000
     25 H           0.3951   -0.3413   -1.2715 H.spc      1 <1>        0.000
     26 H          -0.8981   -2.1059    1.0370 H.spc      1 <1>        0.000
     27 H          -0.0183   -0.5506    2.5293 H.spc      1 <1>        0.000
     28 H           0.6874    0.4103    1.2105 H.spc      1 <1>        0.000
     29 H           1.3495   -2.4842    1.9037 H.spc      1 <1>        0.000
     30 H           2.4115   -1.0311    2.1497 H.spc      1 <1>        0.000
     31 H           4.3084   -2.3102    2.1441 H.spc      1 <1>        0.000
     32 H           2.6250   -0.7313   -0.2051 H.spc      1 <1>        0.000
     33 H           0.8359   -3.1947   -0.5858 H.spc      1 <1>        0.000
     34 H           0.9721   -2.7455   -2.9763 H.spc      1 <1>        0.000
     35 H           2.0603   -1.3507   -2.6669 H.spc      1 <1>        0.000
     36 H           2.6491   -4.2937   -2.0865 H.spc      1 <1>        0.000
     37 H           3.4039   -3.2985   -3.3373 H.spc      1 <1>        0.000
     38 H           5.5077   -2.4985   -2.7440 H.spc      1 <1>        0.000
     39 H           6.5178   -1.6485    1.4741 H.spc      1 <1>        0.000
     40 H           3.1691   -3.6686    0.4341 H.spc      1 <1>        0.000
@<TRIPOS>BOND
     1    5    6 1  
     2    4   10 1  
     3    4    5 1  
     4    3    4 1  
     5    1    2 1  
     6    6    7 1  
     7    1    5 1  
     8    2    3 1  
     9    8   17 1  
    10   16    8 2  
    11   15   18 2  
    12   15   16 1  
    13   14   15 1  
    14   13   17 1  
    15   13   14 2  
    16   12   13 1  
    17   11   12 1  
    18   10   11 1  
    19    9   10 1  
    20    9   17 1  
    21    7    9 1  
    22    1   19 1  
    23    1   20 1  
    24    2   21 1  
    25    2   22 1  
    26    3   23 1  
    27    3   24 1  
    28    4   25 1  
    29    5   26 1  
    30    6   27 1  
    31    6   28 1  
    32    7   29 1  
    33    7   30 1  
    34    8   31 1  
    35    9   32 1  
    36   10   33 1  
    37   11   34 1  
    38   11   35 1  
    39   12   36 1  
    40   12   37 1  
    41   14   38 1  
    42   16   39 1  
    43   17   40 1  
# Name:          frag5-511-194/41815 -- energy: -7.282080
# Creation time: Sat Jun  5 12:52:50 2010


@<TRIPOS>MOLECULE
frag5-511-194/41815 -- energy: -7.282080
   40    43     1     1     1
SMALL
USER_CHARGES


@<TRIPOS>ATOM
      1 C3         -1.9135   -0.3365    0.3143 C.3        1 <1>        0.000
      2 C4         -2.4729   -0.9190   -1.0073 C.3        1 <1>        0.000
      3 C5         -1.2863   -1.6394   -1.7038 C.3        1 <1>        0.000
      4 C6         -0.0499   -1.2505   -0.8671 C.3        1 <1>        0.000
      5 C7         -0.6401   -1.1652    0.5506 C.3        1 <1>        0.000
      6 C8          0.4045   -0.5941    1.5256 C.3        1 <1>        0.000
      7 C9          1.6524   -1.5066    1.5285 C.3        1 <1>        0.000
      8 C18         4.5517   -2.2959    1.0817 C.2        1 <1>        0.000
      9 C10         2.2575   -1.7084    0.1084 C.3        1 <1>        0.000
     10 C11         1.1672   -2.2033   -0.8947 C.3        1 <1>        0.000
     11 C12         1.7435   -2.3358   -2.3243 C.3        1 <1>        0.000
     12 C13         2.9596   -3.2806   -2.3421 C.3        1 <1>        0.000
     13 C14         3.9636   -2.7802   -1.3380 C.2        1 <1>        0.000
     14 C15         5.2081   -2.4244   -1.6986 C.2        1 <1>        0.000
     15 C16         6.1691   -1.9371   -0.7018 C.2        1 <1>        0.000
     16 C17         5.7899   -1.9387    0.7164 C.2        1 <1>        0.000
     17 C19         3.4761   -2.6799    0.0929 C.3        1 <1>        0.000
     18 O3          7.2745   -1.5471   -1.0452 O.2        1 <1>        0.000
     19 H          -2.6220   -0.4089    1.1394 H.spc      1 <1>        0.000
     20 H          -1.7140    0.7333    0.2517 H.spc      1 <1>        0.000
     21 H          -2.8797   -0.1313   -1.6414 H.spc      1 <1>        0.000
     22 H          -3.2926   -1.6111   -0.8144 H.spc      1 <1>        0.000
     23 H          -1.4301   -2.7192   -1.7408 H.spc      1 <1>        0.000
     24 H          -1.1832   -1.3399   -2.7468 H.spc      1 <1>        0.000
     25 H           0.3951   -0.3413   -1.2715 H.spc      1 <1>        0.000
     26 H          -0.8981   -2.1059    1.0370 H.spc      1 <1>        0.000
     27 H          -0.0183   -0.5506    2.5293 H.spc      1 <1>        0.000
     28 H           0.6874    0.4103    1.2105 H.spc      1 <1>        0.000
     29 H           1.3495   -2.4842    1.9037 H.spc      1 <1>        0.000
     30 H           2.4115   -1.0311    2.1497 H.spc      1 <1>        0.000
     31 H           4.3084   -2.3102    2.1441 H.spc      1 <1>        0.000
     32 H           2.6250   -0.7313   -0.2051 H.spc      1 <1>        0.000
     33 H           0.8359   -3.1947   -0.5858 H.spc      1 <1>        0.000
     34 H           0.9721   -2.7455   -2.9763 H.spc      1 <1>        0.000
     35 H           2.0603   -1.3507   -2.6669 H.spc      1 <1>        0.000
     36 H           2.6491   -4.2937   -2.0865 H.spc      1 <1>        0.000
     37 H           3.4039   -3.2985   -3.3373 H.spc      1 <1>        0.000
     38 H           5.5077   -2.4985   -2.7440 H.spc      1 <1>        0.000
     39 H           6.5178   -1.6485    1.4741 H.spc      1 <1>        0.000
     40 H           3.1691   -3.6686    0.4341 H.spc      1 <1>        0.000
@<TRIPOS>BOND
     1    5    6 1  
     2    4   10 1  
     3    4    5 1  
     4    3    4 1  
     5    1    2 1  
     6    6    7 1  
     7    1    5 1  
     8    2    3 1  
     9    8   17 1  
    10   16    8 2  
    11   15   18 2  
    12   15   16 1  
    13   14   15 1  
    14   13   17 1  
    15   13   14 2  
    16   12   13 1  
    17   11   12 1  
    18   10   11 1  
    19    9   10 1  
    20    9   17 1  
    21    7    9 1  
    22    1   19 1  
    23    1   20 1  
    24    2   21 1  
    25    2   22 1  
    26    3   23 1  
    27    3   24 1  
    28    4   25 1  
    29    5   26 1  
    30    6   27 1  
    31    6   28 1  
    32    7   29 1  
    33    7   30 1  
    34    8   31 1  
    35    9   32 1  
    36   10   33 1  
    37   11   34 1  
    38   11   35 1  
    39   12   36 1  
    40   12   37 1  
    41   14   38 1  
    42   16   39 1  
    43   17   40 1  
