#      Rotatable Fragment
#      Build by yxyuan
#
# Name:          frag5-514-414/138278
# Creation time: Sat Jun  5 12:53:40 2010


@<TRIPOS>MOLECULE
frag5-514-414/138278
   15    15     1     1     1
SMALL
USER_CHARGES


@<TRIPOS>ATOM
      1 C20         1.1507    0.8388   -0.1041 C.3        1 <1>        0.000
      2 C22         2.4816    1.5071    0.2137 C.3        1 <1>        0.000
      3 O1          0.0079    1.5248    0.3424 O.3        1 <1>        0.000
      4 C23         2.4963    2.9808   -0.1349 C.3        1 <1>        0.000
      5 C24         0.1688    2.8549    0.4197 C.2        1 <1>        0.000
      6 C25         1.1560    3.5654   -0.4588 C.3        1 <1>        0.000
      7 O3         -0.4399    3.4910    1.2768 O.2        1 <1>        0.000
      8 H           1.1558   -0.1230    0.4088 H.spc      1 <1>        0.000
      9 H           1.0791    0.7903   -1.1907 H.spc      1 <1>        0.000
     10 H           3.2521    1.0158   -0.3805 H.spc      1 <1>        0.000
     11 H           2.6531    1.4161    1.2863 H.spc      1 <1>        0.000
     12 H           3.1115    3.0876   -1.0284 H.spc      1 <1>        0.000
     13 H           2.8672    3.5092    0.7434 H.spc      1 <1>        0.000
     14 H           0.9125    3.4321   -1.5129 H.spc      1 <1>        0.000
     15 H           1.1412    4.6403   -0.2787 H.spc      1 <1>        0.000
@<TRIPOS>BOND
     1    1    2 1  
     2    1    3 1  
     3    2    4 1  
     4    3    5 1  
     5    4    6 1  
     6    5    7 2  
     7    5    6 1  
     8    1    8 1  
     9    1    9 1  
    10    2   10 1  
    11    2   11 1  
    12    4   12 1  
    13    4   13 1  
    14    6   14 1  
    15    6   15 1  
# Name:          frag5-514-414/138278
# Creation time: Sat Jun  5 12:53:40 2010


@<TRIPOS>MOLECULE
frag5-514-414/138278
   15    15     1     1     1
SMALL
USER_CHARGES


@<TRIPOS>ATOM
      1 C20         1.1807    0.8405    0.1295 C.3        1 <1>        0.000
      2 C22         2.3978    1.4970   -0.5192 C.3        1 <1>        0.000
      3 O1          0.1464    1.5485    0.7873 O.3        1 <1>        0.000
      4 C23         2.3629    2.9907   -0.4557 C.3        1 <1>        0.000
      5 C24         0.1945    2.8753    0.5945 C.2        1 <1>        0.000
      6 C25         1.5455    3.4836    0.6781 C.3        1 <1>        0.000
      7 O3         -0.8064    3.5272    0.3403 O.2        1 <1>        0.000
      8 H           1.6261    0.2636    0.9400 H.spc      1 <1>        0.000
      9 H           0.6632    0.4037   -0.7246 H.spc      1 <1>        0.000
     10 H           2.4072    1.2105   -1.5708 H.spc      1 <1>        0.000
     11 H           3.2824    1.1632    0.0232 H.spc      1 <1>        0.000
     12 H           1.9181    3.3592   -1.3801 H.spc      1 <1>        0.000
     13 H           3.3834    3.3484   -0.3189 H.spc      1 <1>        0.000
     14 H           1.4650    4.5696    0.6305 H.spc      1 <1>        0.000
     15 H           2.0172    3.2069    1.6210 H.spc      1 <1>        0.000
@<TRIPOS>BOND
     1    1    2 1  
     2    1    3 1  
     3    2    4 1  
     4    3    5 1  
     5    4    6 1  
     6    5    7 2  
     7    5    6 1  
     8    1    8 1  
     9    1    9 1  
    10    2   10 1  
    11    2   11 1  
    12    4   12 1  
    13    4   13 1  
    14    6   14 1  
    15    6   15 1  
# Name:          frag5-514-414/138278 -- energy: -0.583308
# Creation time: Sat Jun  5 12:53:40 2010


@<TRIPOS>MOLECULE
frag5-514-414/138278 -- energy: -0.583308
   15    15     1     1     1
SMALL
USER_CHARGES


@<TRIPOS>ATOM
      1 C20         1.1507    0.8388   -0.1041 C.3        1 <1>        0.000
      2 C22         2.4816    1.5071    0.2137 C.3        1 <1>        0.000
      3 O1          0.0079    1.5248    0.3424 O.3        1 <1>        0.000
      4 C23         2.4963    2.9808   -0.1349 C.3        1 <1>        0.000
      5 C24         0.1688    2.8549    0.4197 C.2        1 <1>        0.000
      6 C25         1.1560    3.5654   -0.4588 C.3        1 <1>        0.000
      7 O3         -0.4399    3.4910    1.2768 O.2        1 <1>        0.000
      8 H           1.1558   -0.1230    0.4088 H.spc      1 <1>        0.000
      9 H           1.0791    0.7903   -1.1907 H.spc      1 <1>        0.000
     10 H           3.2521    1.0158   -0.3805 H.spc      1 <1>        0.000
     11 H           2.6531    1.4161    1.2863 H.spc      1 <1>        0.000
     12 H           3.1115    3.0876   -1.0284 H.spc      1 <1>        0.000
     13 H           2.8672    3.5092    0.7434 H.spc      1 <1>        0.000
     14 H           0.9125    3.4321   -1.5129 H.spc      1 <1>        0.000
     15 H           1.1412    4.6403   -0.2787 H.spc      1 <1>        0.000
@<TRIPOS>BOND
     1    1    2 1  
     2    1    3 1  
     3    2    4 1  
     4    3    5 1  
     5    4    6 1  
     6    5    7 2  
     7    5    6 1  
     8    1    8 1  
     9    1    9 1  
    10    2   10 1  
    11    2   11 1  
    12    4   12 1  
    13    4   13 1  
    14    6   14 1  
    15    6   15 1  
# Name:          frag5-514-414/138278 -- energy: -0.737351
# Creation time: Sat Jun  5 12:53:40 2010


@<TRIPOS>MOLECULE
frag5-514-414/138278 -- energy: -0.737351
   15    15     1     1     1
SMALL
USER_CHARGES


@<TRIPOS>ATOM
      1 C20         1.1807    0.8405    0.1295 C.3        1 <1>        0.000
      2 C22         2.3978    1.4970   -0.5192 C.3        1 <1>        0.000
      3 O1          0.1464    1.5485    0.7873 O.3        1 <1>        0.000
      4 C23         2.3629    2.9907   -0.4557 C.3        1 <1>        0.000
      5 C24         0.1945    2.8753    0.5945 C.2        1 <1>        0.000
      6 C25         1.5455    3.4836    0.6781 C.3        1 <1>        0.000
      7 O3         -0.8064    3.5272    0.3403 O.2        1 <1>        0.000
      8 H           1.6261    0.2636    0.9400 H.spc      1 <1>        0.000
      9 H           0.6632    0.4037   -0.7246 H.spc      1 <1>        0.000
     10 H           2.4072    1.2105   -1.5708 H.spc      1 <1>        0.000
     11 H           3.2824    1.1632    0.0232 H.spc      1 <1>        0.000
     12 H           1.9181    3.3592   -1.3801 H.spc      1 <1>        0.000
     13 H           3.3834    3.3484   -0.3189 H.spc      1 <1>        0.000
     14 H           1.4650    4.5696    0.6305 H.spc      1 <1>        0.000
     15 H           2.0172    3.2069    1.6210 H.spc      1 <1>        0.000
@<TRIPOS>BOND
     1    1    2 1  
     2    1    3 1  
     3    2    4 1  
     4    3    5 1  
     5    4    6 1  
     6    5    7 2  
     7    5    6 1  
     8    1    8 1  
     9    1    9 1  
    10    2   10 1  
    11    2   11 1  
    12    4   12 1  
    13    4   13 1  
    14    6   14 1  
    15    6   15 1  
