#      Rotatable Fragment
#      Build by yxyuan
#
# Name:          frag3-206-8/96164
# Creation time: Sat Jun  5 12:53:10 2010


@<TRIPOS>MOLECULE
frag3-206-8/96164
    5     4     1     1     1
SMALL
USER_CHARGES


@<TRIPOS>ATOM
      1 N2         -0.5093    0.0814   -0.0284 N.pl3      1 <1>        0.000
      2 C40         0.7544   -0.3078   -0.0438 C.1        1 <1>        0.000
      3 N3          1.8280   -0.7252   -0.0208 N.1        1 <1>        0.000
      4 H          -1.2308   -0.5428    0.3325 H.spc      1 <1>        0.000
      5 H          -0.7625    1.0058   -0.3774 H.spc      1 <1>        0.000
@<TRIPOS>BOND
     1    1    2 1  
     2    2    3 3  
     3    1    4 1  
     4    1    5 1  
# Name:          frag3-206-8/96164 -- energy: -0.045950
# Creation time: Sat Jun  5 12:53:10 2010


@<TRIPOS>MOLECULE
frag3-206-8/96164 -- energy: -0.045950
    5     4     1     1     1
SMALL
USER_CHARGES


@<TRIPOS>ATOM
      1 N2         -0.5093    0.0814   -0.0284 N.pl3      1 <1>        0.000
      2 C40         0.7544   -0.3078   -0.0438 C.1        1 <1>        0.000
      3 N3          1.8280   -0.7252   -0.0208 N.1        1 <1>        0.000
      4 H          -1.2308   -0.5428    0.3325 H.spc      1 <1>        0.000
      5 H          -0.7625    1.0058   -0.3774 H.spc      1 <1>        0.000
@<TRIPOS>BOND
     1    1    2 1  
     2    2    3 3  
     3    1    4 1  
     4    1    5 1  
