#      Rotatable Fragment
#      Build by yxyuan
#
# Name:          frag5-527-295/138278
# Creation time: Sat Jun  5 12:53:41 2010


@<TRIPOS>MOLECULE
frag5-527-295/138278
   13    13     1     1     1
SMALL
USER_CHARGES


@<TRIPOS>ATOM
      1 C9          0.9909    1.4358    0.0875 C.ar       1 <1>        0.000
      2 N3         -0.3446    1.2880    0.0264 N.ar       1 <1>        0.000
      3 C10         1.8088    0.3102    0.0874 C.ar       1 <1>        0.000
      4 C11        -0.9554    0.0759   -0.0366 C.ar       1 <1>        0.000
      5 C12         1.2341   -0.9537    0.0231 C.ar       1 <1>        0.000
      6 C13        -0.1447   -1.0669   -0.0332 C.ar       1 <1>        0.000
      7 N4         -2.3790    0.0087   -0.1066 N.pl3      1 <1>        0.000
      8 H           1.4301    2.4322    0.1368 H.spc      1 <1>        0.000
      9 H           2.8922    0.4188    0.1374 H.spc      1 <1>        0.000
     10 H           1.8614   -1.8451    0.0171 H.spc      1 <1>        0.000
     11 H          -0.6039   -2.0546   -0.0753 H.spc      1 <1>        0.000
     12 H          -2.9306    0.8667   -0.1091 H.spc      1 <1>        0.000
     13 H          -2.8451   -0.8973   -0.1541 H.spc      1 <1>        0.000
@<TRIPOS>BOND
     1    1    2 ar 
     2    1    3 ar 
     3    2    4 ar 
     4    3    5 ar 
     5    4    6 ar 
     6    4    7 1  
     7    5    6 ar 
     8    1    8 1  
     9    3    9 1  
    10    5   10 1  
    11    6   11 1  
    12    7   12 1  
    13    7   13 1  
# Name:          frag5-527-295/138278 -- energy: -0.018182
# Creation time: Sat Jun  5 12:53:41 2010


@<TRIPOS>MOLECULE
frag5-527-295/138278 -- energy: -0.018182
   13    13     1     1     1
SMALL
USER_CHARGES


@<TRIPOS>ATOM
      1 C9          0.9909    1.4358    0.0875 C.ar       1 <1>        0.000
      2 N3         -0.3446    1.2880    0.0264 N.ar       1 <1>        0.000
      3 C10         1.8088    0.3102    0.0874 C.ar       1 <1>        0.000
      4 C11        -0.9554    0.0759   -0.0366 C.ar       1 <1>        0.000
      5 C12         1.2341   -0.9537    0.0231 C.ar       1 <1>        0.000
      6 C13        -0.1447   -1.0669   -0.0332 C.ar       1 <1>        0.000
      7 N4         -2.3790    0.0087   -0.1066 N.pl3      1 <1>        0.000
      8 H           1.4301    2.4322    0.1368 H.spc      1 <1>        0.000
      9 H           2.8922    0.4188    0.1374 H.spc      1 <1>        0.000
     10 H           1.8614   -1.8451    0.0171 H.spc      1 <1>        0.000
     11 H          -0.6039   -2.0546   -0.0753 H.spc      1 <1>        0.000
     12 H          -2.9306    0.8667   -0.1091 H.spc      1 <1>        0.000
     13 H          -2.8451   -0.8973   -0.1541 H.spc      1 <1>        0.000
@<TRIPOS>BOND
     1    1    2 ar 
     2    1    3 ar 
     3    2    4 ar 
     4    3    5 ar 
     5    4    6 ar 
     6    4    7 1  
     7    5    6 ar 
     8    1    8 1  
     9    3    9 1  
    10    5   10 1  
    11    6   11 1  
    12    7   12 1  
    13    7   13 1  
