#      Rotatable Fragment
#      Build by yxyuan
#
# Name:          frag3-207-5/31924
# Creation time: Sat Jun  5 12:52:20 2010


@<TRIPOS>MOLECULE
frag3-207-5/31924
    6     5     1     1     1
SMALL
USER_CHARGES


@<TRIPOS>ATOM
      1 I1          2.1565    0.1617   -0.8693 I          1 <1>        0.000
      2 C1          0.3956    0.3846    0.2180 C.2        1 <1>        0.000
      3 C2         -0.6741   -0.3465   -0.0448 C.2        1 <1>        0.000
      4 H           0.3545    1.1200    1.0215 H.spc      1 <1>        0.000
      5 H          -0.6459   -1.0854   -0.8457 H.spc      1 <1>        0.000
      6 H          -1.5842   -0.2104    0.5394 H.spc      1 <1>        0.000
@<TRIPOS>BOND
     1    1    2 1  
     2    2    3 2  
     3    2    4 1  
     4    3    5 1  
     5    3    6 1  
# Name:          frag3-207-5/31924 -- energy: -0.140865
# Creation time: Sat Jun  5 12:52:20 2010


@<TRIPOS>MOLECULE
frag3-207-5/31924 -- energy: -0.140865
    6     5     1     1     1
SMALL
USER_CHARGES


@<TRIPOS>ATOM
      1 I1          2.1565    0.1617   -0.8693 I          1 <1>        0.000
      2 C1          0.3956    0.3846    0.2180 C.2        1 <1>        0.000
      3 C2         -0.6741   -0.3465   -0.0448 C.2        1 <1>        0.000
      4 H           0.3545    1.1200    1.0215 H.spc      1 <1>        0.000
      5 H          -0.6459   -1.0854   -0.8457 H.spc      1 <1>        0.000
      6 H          -1.5842   -0.2104    0.5394 H.spc      1 <1>        0.000
@<TRIPOS>BOND
     1    1    2 1  
     2    2    3 2  
     3    2    4 1  
     4    3    5 1  
     5    3    6 1  
