#      Rotatable Fragment
#      Build by yxyuan
#
# Name:          frag3-115-65/31924
# Creation time: Sat Jun  5 12:52:02 2010


@<TRIPOS>MOLECULE
frag3-115-65/31924
   10     9     1     1     1
SMALL
USER_CHARGES


@<TRIPOS>ATOM
      1 N1          1.8195    0.1776    0.0046 N.am       1 <1>        0.000
      2 C3          0.6239   -0.4392   -0.1182 C.2        1 <1>        0.000
      3 O2          0.5083   -1.6570   -0.0889 O.2        1 <1>        0.000
      4 C4         -0.5492    0.4431   -0.2750 C.2        1 <1>        0.000
      5 C5         -1.7843   -0.0666   -0.2934 C.2        1 <1>        0.000
      6 H           2.6682   -0.3748    0.1270 H.spc      1 <1>        0.000
      7 H           1.8736    1.1957   -0.0251 H.spc      1 <1>        0.000
      8 H          -0.4068    1.5190   -0.3766 H.spc      1 <1>        0.000
      9 H          -1.9317   -1.1418   -0.1922 H.spc      1 <1>        0.000
     10 H          -2.6444    0.5929   -0.4096 H.spc      1 <1>        0.000
@<TRIPOS>BOND
     1    1    2 am 
     2    2    3 2  
     3    2    4 1  
     4    4    5 2  
     5    1    6 1  
     6    1    7 1  
     7    4    8 1  
     8    5    9 1  
     9    5   10 1  
# Name:          frag3-115-65/31924
# Creation time: Sat Jun  5 12:52:02 2010


@<TRIPOS>MOLECULE
frag3-115-65/31924
   10     9     1     1     1
SMALL
USER_CHARGES


@<TRIPOS>ATOM
      1 N1          1.3736    0.4177    0.0081 N.am       1 <1>        0.000
      2 C3          0.5493   -0.6463   -0.1255 C.2        1 <1>        0.000
      3 O2          0.9625   -1.8002   -0.0928 O.2        1 <1>        0.000
      4 C4         -0.8848   -0.3770   -0.3118 C.2        1 <1>        0.000
      5 C5         -1.3825    0.8637   -0.2490 C.2        1 <1>        0.000
      6 H           2.3746    0.2738    0.1412 H.spc      1 <1>        0.000
      7 H           0.9942    1.3640   -0.0242 H.spc      1 <1>        0.000
      8 H          -1.5601   -1.2102   -0.5062 H.spc      1 <1>        0.000
      9 H          -0.7202    1.7075   -0.0554 H.spc      1 <1>        0.000
     10 H          -2.4502    1.0305   -0.3914 H.spc      1 <1>        0.000
@<TRIPOS>BOND
     1    1    2 am 
     2    2    3 2  
     3    2    4 1  
     4    4    5 2  
     5    1    6 1  
     6    1    7 1  
     7    4    8 1  
     8    5    9 1  
     9    5   10 1  
# Name:          frag3-115-65/31924 -- energy: -0.321446
# Creation time: Sat Jun  5 12:52:02 2010


@<TRIPOS>MOLECULE
frag3-115-65/31924 -- energy: -0.321446
   10     9     1     1     1
SMALL
USER_CHARGES


@<TRIPOS>ATOM
      1 N1          1.8195    0.1776    0.0046 N.am       1 <1>        0.000
      2 C3          0.6239   -0.4392   -0.1182 C.2        1 <1>        0.000
      3 O2          0.5083   -1.6570   -0.0889 O.2        1 <1>        0.000
      4 C4         -0.5492    0.4431   -0.2750 C.2        1 <1>        0.000
      5 C5         -1.7843   -0.0666   -0.2934 C.2        1 <1>        0.000
      6 H           2.6682   -0.3748    0.1270 H.spc      1 <1>        0.000
      7 H           1.8736    1.1957   -0.0251 H.spc      1 <1>        0.000
      8 H          -0.4068    1.5190   -0.3766 H.spc      1 <1>        0.000
      9 H          -1.9317   -1.1418   -0.1922 H.spc      1 <1>        0.000
     10 H          -2.6444    0.5929   -0.4096 H.spc      1 <1>        0.000
@<TRIPOS>BOND
     1    1    2 am 
     2    2    3 2  
     3    2    4 1  
     4    4    5 2  
     5    1    6 1  
     6    1    7 1  
     7    4    8 1  
     8    5    9 1  
     9    5   10 1  
# Name:          frag3-115-65/31924 -- energy: 1.199301
# Creation time: Sat Jun  5 12:52:02 2010


@<TRIPOS>MOLECULE
frag3-115-65/31924 -- energy: 1.199301
   10     9     1     1     1
SMALL
USER_CHARGES


@<TRIPOS>ATOM
      1 N1          1.3736    0.4177    0.0081 N.am       1 <1>        0.000
      2 C3          0.5493   -0.6463   -0.1255 C.2        1 <1>        0.000
      3 O2          0.9625   -1.8002   -0.0928 O.2        1 <1>        0.000
      4 C4         -0.8848   -0.3770   -0.3118 C.2        1 <1>        0.000
      5 C5         -1.3825    0.8637   -0.2490 C.2        1 <1>        0.000
      6 H           2.3746    0.2738    0.1412 H.spc      1 <1>        0.000
      7 H           0.9942    1.3640   -0.0242 H.spc      1 <1>        0.000
      8 H          -1.5601   -1.2102   -0.5062 H.spc      1 <1>        0.000
      9 H          -0.7202    1.7075   -0.0554 H.spc      1 <1>        0.000
     10 H          -2.4502    1.0305   -0.3914 H.spc      1 <1>        0.000
@<TRIPOS>BOND
     1    1    2 am 
     2    2    3 2  
     3    2    4 1  
     4    4    5 2  
     5    1    6 1  
     6    1    7 1  
     7    4    8 1  
     8    5    9 1  
     9    5   10 1  
