#      Rotatable Fragment
#      Build by yxyuan
#
# Name:          frag5-648-27/41815
# Creation time: Sat Jun  5 12:53:01 2010


@<TRIPOS>MOLECULE
frag5-648-27/41815
   21    21     1     1     1
SMALL
USER_CHARGES


@<TRIPOS>ATOM
      1 S1         -4.5125    3.5730   -1.3622 S.o2       1 <1>        0.000
      2 O1         -5.0489    4.3974   -0.2948 O.2        1 <1>        0.000
      3 O2         -5.3654    2.5746   -1.9850 O.2        1 <1>        0.000
      4 N1         -3.8498    4.5958   -2.5977 N.am       1 <1>        0.000
      5 C1         -3.1026    4.0837   -3.6175 C.2        1 <1>        0.000
      6 O3         -2.9441    2.8751   -3.6854 O.2        1 <1>        0.000
      7 N2         -2.5532    4.9033   -4.5285 N.am       1 <1>        0.000
      8 C8         -3.0326    2.7839   -0.8062 C.ar       1 <1>        0.000
      9 C9         -2.7232    1.4668   -1.1775 C.ar       1 <1>        0.000
     10 C10        -1.5569    0.8538   -0.7246 C.ar       1 <1>        0.000
     11 C11        -0.6807    1.5529    0.1097 C.ar       1 <1>        0.000
     12 C12        -0.9809    2.8619    0.4956 C.ar       1 <1>        0.000
     13 C13        -2.1512    3.4676    0.0434 C.ar       1 <1>        0.000
     14 H          -4.0226    5.6004   -2.5605 H.spc      1 <1>        0.000
     15 H          -1.9948    4.5180   -5.2901 H.spc      1 <1>        0.000
     16 H          -2.6944    5.9111   -4.4588 H.spc      1 <1>        0.000
     17 H          -3.4032    0.9167   -1.8279 H.spc      1 <1>        0.000
     18 H          -1.3282   -0.1700   -1.0207 H.spc      1 <1>        0.000
     19 H           0.2359    1.0777    0.4591 H.spc      1 <1>        0.000
     20 H          -0.3007    3.4081    1.1492 H.spc      1 <1>        0.000
     21 H          -2.3846    4.4860    0.3540 H.spc      1 <1>        0.000
@<TRIPOS>BOND
     1    5    6 2  
     2   12   13 ar 
     3   10   11 ar 
     4    4    5 am 
     5    5    7 am 
     6    9   10 ar 
     7    8   13 ar 
     8    1    8 1  
     9    8    9 ar 
    10    1    2 2  
    11    1    3 2  
    12    1    4 1  
    13   11   12 ar 
    14    4   14 1  
    15    7   15 1  
    16    7   16 1  
    17    9   17 1  
    18   10   18 1  
    19   11   19 1  
    20   12   20 1  
    21   13   21 1  
# Name:          frag5-648-27/41815
# Creation time: Sat Jun  5 12:53:01 2010


@<TRIPOS>MOLECULE
frag5-648-27/41815
   21    21     1     1     1
SMALL
USER_CHARGES


@<TRIPOS>ATOM
      1 S1         -4.1759    3.3274   -1.6356 S.o2       1 <1>        0.000
      2 O1         -4.3090    4.7249   -1.2218 O.2        1 <1>        0.000
      3 O2         -5.3478    2.4753   -1.5816 O.2        1 <1>        0.000
      4 N1         -3.5081    3.2833   -3.2082 N.am       1 <1>        0.000
      5 C1         -3.3986    4.3895   -4.0128 C.2        1 <1>        0.000
      6 O3         -3.0799    4.2888   -5.1730 O.2        1 <1>        0.000
      7 N2         -3.6681    5.5885   -3.4587 N.am       1 <1>        0.000
      8 C8         -2.8858    2.5821   -0.7204 C.ar       1 <1>        0.000
      9 C9         -2.8470    1.1929   -0.4946 C.ar       1 <1>        0.000
     10 C10        -1.8212    0.6040    0.2338 C.ar       1 <1>        0.000
     11 C11        -0.7979    1.3974    0.7569 C.ar       1 <1>        0.000
     12 C12        -0.8143    2.7791    0.5553 C.ar       1 <1>        0.000
     13 C13        -1.8482    3.3568   -0.1697 C.ar       1 <1>        0.000
     14 H          -3.1738    2.3889   -3.5671 H.spc      1 <1>        0.000
     15 H          -3.6048    6.4365   -4.0220 H.spc      1 <1>        0.000
     16 H          -3.9354    5.6477   -2.4761 H.spc      1 <1>        0.000
     17 H          -3.6401    0.5651   -0.9007 H.spc      1 <1>        0.000
     18 H          -1.8150   -0.4738    0.3965 H.spc      1 <1>        0.000
     19 H           0.0132    0.9384    1.3222 H.spc      1 <1>        0.000
     20 H          -0.0189    3.4015    0.9653 H.spc      1 <1>        0.000
     21 H          -1.8562    4.4369   -0.3158 H.spc      1 <1>        0.000
@<TRIPOS>BOND
     1    5    6 2  
     2   12   13 ar 
     3   10   11 ar 
     4    4    5 am 
     5    5    7 am 
     6    9   10 ar 
     7    8   13 ar 
     8    1    8 1  
     9    8    9 ar 
    10    1    2 2  
    11    1    3 2  
    12    1    4 1  
    13   11   12 ar 
    14    4   14 1  
    15    7   15 1  
    16    7   16 1  
    17    9   17 1  
    18   10   18 1  
    19   11   19 1  
    20   12   20 1  
    21   13   21 1  
# Name:          frag5-648-27/41815
# Creation time: Sat Jun  5 12:53:01 2010


@<TRIPOS>MOLECULE
frag5-648-27/41815
   21    21     1     1     1
SMALL
USER_CHARGES


@<TRIPOS>ATOM
      1 S1         -4.4363    3.5986   -1.3927 S.o2       1 <1>        0.000
      2 O1         -5.0378    4.3653   -0.3220 O.2        1 <1>        0.000
      3 O2         -5.2572    2.6298   -2.1145 O.2        1 <1>        0.000
      4 N1         -3.7110    4.6479   -2.5265 N.am       1 <1>        0.000
      5 C1         -3.1238    4.2059   -3.6910 C.2        1 <1>        0.000
      6 O3         -2.3939    4.9206   -4.3331 O.2        1 <1>        0.000
      7 N2         -3.3934    2.9407   -4.0723 N.am       1 <1>        0.000
      8 C8         -3.0143    2.7672   -0.7866 C.ar       1 <1>        0.000
      9 C9         -2.7014    1.4437   -1.1516 C.ar       1 <1>        0.000
     10 C10        -1.5732    0.8003   -0.6609 C.ar       1 <1>        0.000
     11 C11        -0.7176    1.4727    0.2141 C.ar       1 <1>        0.000
     12 C12        -1.0039    2.7837    0.6000 C.ar       1 <1>        0.000
     13 C13        -2.1382    3.4136    0.1066 C.ar       1 <1>        0.000
     14 H          -3.7125    5.6493   -2.3325 H.spc      1 <1>        0.000
     15 H          -2.9762    2.5648   -4.9238 H.spc      1 <1>        0.000
     16 H          -4.0145    2.3597   -3.5092 H.spc      1 <1>        0.000
     17 H          -3.3613    0.9111   -1.8364 H.spc      1 <1>        0.000
     18 H          -1.3562   -0.2258   -0.9576 H.spc      1 <1>        0.000
     19 H           0.1735    0.9743    0.5958 H.spc      1 <1>        0.000
     20 H          -0.3398    3.3101    1.2855 H.spc      1 <1>        0.000
     21 H          -2.3564    4.4349    0.4186 H.spc      1 <1>        0.000
@<TRIPOS>BOND
     1    5    6 2  
     2   12   13 ar 
     3   10   11 ar 
     4    4    5 am 
     5    5    7 am 
     6    9   10 ar 
     7    8   13 ar 
     8    1    8 1  
     9    8    9 ar 
    10    1    2 2  
    11    1    3 2  
    12    1    4 1  
    13   11   12 ar 
    14    4   14 1  
    15    7   15 1  
    16    7   16 1  
    17    9   17 1  
    18   10   18 1  
    19   11   19 1  
    20   12   20 1  
    21   13   21 1  
# Name:          frag5-648-27/41815
# Creation time: Sat Jun  5 12:53:01 2010


@<TRIPOS>MOLECULE
frag5-648-27/41815
   21    21     1     1     1
SMALL
USER_CHARGES


@<TRIPOS>ATOM
      1 S1         -3.9328    3.5554   -1.5998 S.o2       1 <1>        0.000
      2 O1         -4.0617    4.9188   -1.0975 O.2        1 <1>        0.000
      3 O2         -5.1408    2.7578   -1.7554 O.2        1 <1>        0.000
      4 N1         -3.0974    3.5938   -3.0935 N.am       1 <1>        0.000
      5 C1         -3.5586    4.2580   -4.1999 C.2        1 <1>        0.000
      6 O3         -3.0173    4.1357   -5.2722 O.2        1 <1>        0.000
      7 N2         -4.6417    5.0455   -4.0390 N.am       1 <1>        0.000
      8 C8         -2.7949    2.6747   -0.6123 C.ar       1 <1>        0.000
      9 C9         -2.3086    3.1795    0.6053 C.ar       1 <1>        0.000
     10 C10        -1.3822    2.4761    1.3653 C.ar       1 <1>        0.000
     11 C11        -0.9122    1.2399    0.9167 C.ar       1 <1>        0.000
     12 C12        -1.3659    0.7201   -0.2974 C.ar       1 <1>        0.000
     13 C13        -2.2878    1.4347   -1.0510 C.ar       1 <1>        0.000
     14 H          -2.2098    3.0962   -3.1637 H.spc      1 <1>        0.000
     15 H          -5.0236    5.5564   -4.8350 H.spc      1 <1>        0.000
     16 H          -5.0789    5.1302   -3.1213 H.spc      1 <1>        0.000
     17 H          -2.6664    4.1453    0.9620 H.spc      1 <1>        0.000
     18 H          -1.0234    2.8878    2.3086 H.spc      1 <1>        0.000
     19 H          -0.1916    0.6811    1.5139 H.spc      1 <1>        0.000
     20 H          -0.9979   -0.2426   -0.6521 H.spc      1 <1>        0.000
     21 H          -2.6271    1.0275   -2.0035 H.spc      1 <1>        0.000
@<TRIPOS>BOND
     1    5    6 2  
     2   12   13 ar 
     3   10   11 ar 
     4    4    5 am 
     5    5    7 am 
     6    9   10 ar 
     7    8   13 ar 
     8    1    8 1  
     9    8    9 ar 
    10    1    2 2  
    11    1    3 2  
    12    1    4 1  
    13   11   12 ar 
    14    4   14 1  
    15    7   15 1  
    16    7   16 1  
    17    9   17 1  
    18   10   18 1  
    19   11   19 1  
    20   12   20 1  
    21   13   21 1  
# Name:          frag5-648-27/41815
# Creation time: Sat Jun  5 12:53:01 2010


@<TRIPOS>MOLECULE
frag5-648-27/41815
   21    21     1     1     1
SMALL
USER_CHARGES


@<TRIPOS>ATOM
      1 S1         -3.9964    3.3349   -1.7080 S.o2       1 <1>        0.000
      2 O1         -4.6192    4.4411   -0.9932 O.2        1 <1>        0.000
      3 O2         -4.8580    2.3167   -2.2963 O.2        1 <1>        0.000
      4 N1         -2.9752    3.9665   -2.9281 N.am       1 <1>        0.000
      5 C1         -3.4408    4.6340   -4.0298 C.2        1 <1>        0.000
      6 O3         -2.6903    4.9960   -4.9041 O.2        1 <1>        0.000
      7 N2         -4.7678    4.8664   -4.0966 N.am       1 <1>        0.000
      8 C8         -2.8258    2.5552   -0.6738 C.ar       1 <1>        0.000
      9 C9         -1.6236    3.1973   -0.3111 C.ar       1 <1>        0.000
     10 C10        -0.6796    2.5671    0.4898 C.ar       1 <1>        0.000
     11 C11        -0.9136    1.2683    0.9471 C.ar       1 <1>        0.000
     12 C12        -2.0890    0.6043    0.5898 C.ar       1 <1>        0.000
     13 C13        -3.0227    1.2423   -0.2164 C.ar       1 <1>        0.000
     14 H          -1.9680    3.8392   -2.8296 H.spc      1 <1>        0.000
     15 H          -5.1596    5.3587   -4.8995 H.spc      1 <1>        0.000
     16 H          -5.3795    4.5499   -3.3443 H.spc      1 <1>        0.000
     17 H          -1.4311    4.2095   -0.6668 H.spc      1 <1>        0.000
     18 H           0.2408    3.0845    0.7605 H.spc      1 <1>        0.000
     19 H          -0.1792    0.7733    1.5825 H.spc      1 <1>        0.000
     20 H          -2.2729   -0.4106    0.9422 H.spc      1 <1>        0.000
     21 H          -3.9307    0.7108   -0.5011 H.spc      1 <1>        0.000
@<TRIPOS>BOND
     1    5    6 2  
     2   12   13 ar 
     3   10   11 ar 
     4    4    5 am 
     5    5    7 am 
     6    9   10 ar 
     7    8   13 ar 
     8    1    8 1  
     9    8    9 ar 
    10    1    2 2  
    11    1    3 2  
    12    1    4 1  
    13   11   12 ar 
    14    4   14 1  
    15    7   15 1  
    16    7   16 1  
    17    9   17 1  
    18   10   18 1  
    19   11   19 1  
    20   12   20 1  
    21   13   21 1  
# Name:          frag5-648-27/41815
# Creation time: Sat Jun  5 12:53:01 2010


@<TRIPOS>MOLECULE
frag5-648-27/41815
   21    21     1     1     1
SMALL
USER_CHARGES


@<TRIPOS>ATOM
      1 S1         -4.5631    3.4639   -1.4479 S.o2       1 <1>        0.000
      2 O1         -4.6486    4.8290   -0.9404 O.2        1 <1>        0.000
      3 O2         -5.6619    2.5533   -1.2012 O.2        1 <1>        0.000
      4 N1         -4.2178    3.5186   -3.1189 N.am       1 <1>        0.000
      5 C1         -3.0562    4.0588   -3.6265 C.2        1 <1>        0.000
      6 O3         -2.4296    3.4844   -4.4847 O.2        1 <1>        0.000
      7 N2         -2.6362    5.2255   -3.1009 N.am       1 <1>        0.000
      8 C8         -3.0818    2.7295   -0.8533 C.ar       1 <1>        0.000
      9 C9         -2.8731    1.3374   -0.9062 C.ar       1 <1>        0.000
     10 C10        -1.7019    0.7590   -0.4348 C.ar       1 <1>        0.000
     11 C11        -0.6978    1.5666    0.1033 C.ar       1 <1>        0.000
     12 C12        -0.8782    2.9494    0.1750 C.ar       1 <1>        0.000
     13 C13        -2.0558    3.5144   -0.2940 C.ar       1 <1>        0.000
     14 H          -4.9019    3.1343   -3.7706 H.spc      1 <1>        0.000
     15 H          -1.7668    5.6479   -3.4266 H.spc      1 <1>        0.000
     16 H          -3.1875    5.6867   -2.3772 H.spc      1 <1>        0.000
     17 H          -3.6496    0.6988   -1.3273 H.spc      1 <1>        0.000
     18 H          -1.5669   -0.3215   -0.4846 H.spc      1 <1>        0.000
     19 H           0.2264    1.1177    0.4672 H.spc      1 <1>        0.000
     20 H          -0.0976    3.5822    0.5974 H.spc      1 <1>        0.000
     21 H          -2.1898    4.5941   -0.2276 H.spc      1 <1>        0.000
@<TRIPOS>BOND
     1    5    6 2  
     2   12   13 ar 
     3   10   11 ar 
     4    4    5 am 
     5    5    7 am 
     6    9   10 ar 
     7    8   13 ar 
     8    1    8 1  
     9    8    9 ar 
    10    1    2 2  
    11    1    3 2  
    12    1    4 1  
    13   11   12 ar 
    14    4   14 1  
    15    7   15 1  
    16    7   16 1  
    17    9   17 1  
    18   10   18 1  
    19   11   19 1  
    20   12   20 1  
    21   13   21 1  
# Name:          frag5-648-27/41815
# Creation time: Sat Jun  5 12:53:01 2010


@<TRIPOS>MOLECULE
frag5-648-27/41815
   21    21     1     1     1
SMALL
USER_CHARGES


@<TRIPOS>ATOM
      1 S1         -4.3110    3.7655   -1.3621 S.o2       1 <1>        0.000
      2 O1         -4.7684    4.7101   -0.3652 O.2        1 <1>        0.000
      3 O2         -5.2667    2.8105   -1.9188 O.2        1 <1>        0.000
      4 N1         -3.5563    4.5913   -2.6464 N.am       1 <1>        0.000
      5 C1         -3.2452    3.9967   -3.8493 C.2        1 <1>        0.000
      6 O3         -2.5043    4.5289   -4.6390 O.2        1 <1>        0.000
      7 N2         -3.7950    2.7905   -4.0982 N.am       1 <1>        0.000
      8 C8         -2.9481    2.8623   -0.7294 C.ar       1 <1>        0.000
      9 C9         -2.1754    2.0079   -1.5468 C.ar       1 <1>        0.000
     10 C10        -1.0962    1.2966   -1.0434 C.ar       1 <1>        0.000
     11 C11        -0.7531    1.4222    0.3041 C.ar       1 <1>        0.000
     12 C12        -1.5011    2.2531    1.1402 C.ar       1 <1>        0.000
     13 C13        -2.5812    2.9545    0.6237 C.ar       1 <1>        0.000
     14 H          -3.3229    5.5759   -2.5183 H.spc      1 <1>        0.000
     15 H          -3.5876    2.3059   -4.9714 H.spc      1 <1>        0.000
     16 H          -4.4182    2.3630   -3.4132 H.spc      1 <1>        0.000
     17 H          -2.4339    1.9048   -2.6007 H.spc      1 <1>        0.000
     18 H          -0.5187    0.6426   -1.6968 H.spc      1 <1>        0.000
     19 H           0.0987    0.8716    0.7033 H.spc      1 <1>        0.000
     20 H          -1.2380    2.3504    2.1935 H.spc      1 <1>        0.000
     21 H          -3.1619    3.5956    1.2869 H.spc      1 <1>        0.000
@<TRIPOS>BOND
     1    5    6 2  
     2   12   13 ar 
     3   10   11 ar 
     4    4    5 am 
     5    5    7 am 
     6    9   10 ar 
     7    8   13 ar 
     8    1    8 1  
     9    8    9 ar 
    10    1    2 2  
    11    1    3 2  
    12    1    4 1  
    13   11   12 ar 
    14    4   14 1  
    15    7   15 1  
    16    7   16 1  
    17    9   17 1  
    18   10   18 1  
    19   11   19 1  
    20   12   20 1  
    21   13   21 1  
# Name:          frag5-648-27/41815
# Creation time: Sat Jun  5 12:53:01 2010


@<TRIPOS>MOLECULE
frag5-648-27/41815
   21    21     1     1     1
SMALL
USER_CHARGES


@<TRIPOS>ATOM
      1 S1         -4.5743    3.3458   -1.4695 S.o2       1 <1>        0.000
      2 O1         -4.7710    4.6333   -0.8239 O.2        1 <1>        0.000
      3 O2         -5.6239    2.3469   -1.3916 O.2        1 <1>        0.000
      4 N1         -4.1531    3.6010   -3.1290 N.am       1 <1>        0.000
      5 C1         -3.0682    4.3525   -3.4845 C.2        1 <1>        0.000
      6 O3         -2.7614    5.3077   -2.7913 O.2        1 <1>        0.000
      7 N2         -2.3500    4.0233   -4.5694 N.am       1 <1>        0.000
      8 C8         -3.0685    2.6283   -0.8900 C.ar       1 <1>        0.000
      9 C9         -2.7776    1.2713   -1.1037 C.ar       1 <1>        0.000
     10 C10        -1.5910    0.7122   -0.6361 C.ar       1 <1>        0.000
     11 C11        -0.6719    1.5058    0.0553 C.ar       1 <1>        0.000
     12 C12        -0.9501    2.8557    0.2844 C.ar       1 <1>        0.000
     13 C13        -2.1409    3.4062   -0.1811 C.ar       1 <1>        0.000
     14 H          -4.7282    3.1805   -3.8589 H.spc      1 <1>        0.000
     15 H          -1.5319    4.5757   -4.8263 H.spc      1 <1>        0.000
     16 H          -2.6222    3.2207   -5.1370 H.spc      1 <1>        0.000
     17 H          -3.4902    0.6471   -1.6429 H.spc      1 <1>        0.000
     18 H          -1.3795   -0.3430   -0.8092 H.spc      1 <1>        0.000
     19 H           0.2610    1.0722    0.4155 H.spc      1 <1>        0.000
     20 H          -0.2364    3.4763    0.8263 H.spc      1 <1>        0.000
     21 H          -2.3559    4.4579    0.0081 H.spc      1 <1>        0.000
@<TRIPOS>BOND
     1    5    6 2  
     2   12   13 ar 
     3   10   11 ar 
     4    4    5 am 
     5    5    7 am 
     6    9   10 ar 
     7    8   13 ar 
     8    1    8 1  
     9    8    9 ar 
    10    1    2 2  
    11    1    3 2  
    12    1    4 1  
    13   11   12 ar 
    14    4   14 1  
    15    7   15 1  
    16    7   16 1  
    17    9   17 1  
    18   10   18 1  
    19   11   19 1  
    20   12   20 1  
    21   13   21 1  
# Name:          frag5-648-27/41815
# Creation time: Sat Jun  5 12:53:01 2010


@<TRIPOS>MOLECULE
frag5-648-27/41815
   21    21     1     1     1
SMALL
USER_CHARGES


@<TRIPOS>ATOM
      1 S1         -4.3688    3.4530   -1.4729 S.o2       1 <1>        0.000
      2 O1         -4.3335    4.8919   -1.2192 O.2        1 <1>        0.000
      3 O2         -5.5397    2.7021   -1.0753 O.2        1 <1>        0.000
      4 N1         -4.0343    3.1779   -3.1264 N.am       1 <1>        0.000
      5 C1         -3.3451    4.0697   -3.9115 C.2        1 <1>        0.000
      6 O3         -3.4230    4.0280   -5.1156 O.2        1 <1>        0.000
      7 N2         -2.5944    4.9974   -3.2831 N.am       1 <1>        0.000
      8 C8         -2.9512    2.7157   -0.7473 C.ar       1 <1>        0.000
      9 C9         -2.5025    1.4403   -1.1515 C.ar       1 <1>        0.000
     10 C10        -1.3866    0.8480   -0.5742 C.ar       1 <1>        0.000
     11 C11        -0.6835    1.5220    0.4266 C.ar       1 <1>        0.000
     12 C12        -1.1095    2.7824    0.8504 C.ar       1 <1>        0.000
     13 C13        -2.2298    3.3618    0.2694 C.ar       1 <1>        0.000
     14 H          -4.3621    2.3100   -3.5504 H.spc      1 <1>        0.000
     15 H          -2.0747    5.6865   -3.8267 H.spc      1 <1>        0.000
     16 H          -2.5464    5.0099   -2.2643 H.spc      1 <1>        0.000
     17 H          -3.0435    0.9082   -1.9340 H.spc      1 <1>        0.000
     18 H          -1.0608   -0.1394   -0.9012 H.spc      1 <1>        0.000
     19 H           0.1974    1.0644    0.8767 H.spc      1 <1>        0.000
     20 H          -0.5650    3.3093    1.6340 H.spc      1 <1>        0.000
     21 H          -2.5576    4.3435    0.6114 H.spc      1 <1>        0.000
@<TRIPOS>BOND
     1    5    6 2  
     2   12   13 ar 
     3   10   11 ar 
     4    4    5 am 
     5    5    7 am 
     6    9   10 ar 
     7    8   13 ar 
     8    1    8 1  
     9    8    9 ar 
    10    1    2 2  
    11    1    3 2  
    12    1    4 1  
    13   11   12 ar 
    14    4   14 1  
    15    7   15 1  
    16    7   16 1  
    17    9   17 1  
    18   10   18 1  
    19   11   19 1  
    20   12   20 1  
    21   13   21 1  
# Name:          frag5-648-27/41815
# Creation time: Sat Jun  5 12:53:01 2010


@<TRIPOS>MOLECULE
frag5-648-27/41815
   21    21     1     1     1
SMALL
USER_CHARGES


@<TRIPOS>ATOM
      1 S1         -4.3473    3.3096   -1.5665 S.o2       1 <1>        0.000
      2 O1         -5.2892    3.7713   -0.5693 O.2        1 <1>        0.000
      3 O2         -4.8102    2.3812   -2.5965 O.2        1 <1>        0.000
      4 N1         -3.6102    4.6460   -2.3332 N.am       1 <1>        0.000
      5 C1         -3.2646    4.6560   -3.6643 C.2        1 <1>        0.000
      6 O3         -3.1181    5.6952   -4.2596 O.2        1 <1>        0.000
      7 N2         -3.1145    3.4625   -4.2723 N.am       1 <1>        0.000
      8 C8         -2.9564    2.5960   -0.7762 C.ar       1 <1>        0.000
      9 C9         -1.6495    3.0806   -1.0088 C.ar       1 <1>        0.000
     10 C10        -0.5439    2.5144   -0.3905 C.ar       1 <1>        0.000
     11 C11        -0.7146    1.4397    0.4846 C.ar       1 <1>        0.000
     12 C12        -1.9930    0.9327    0.7258 C.ar       1 <1>        0.000
     13 C13        -3.0904    1.5049    0.0960 C.ar       1 <1>        0.000
     14 H          -3.4167    5.4782   -1.7761 H.spc      1 <1>        0.000
     15 H          -2.8706    3.4213   -5.2619 H.spc      1 <1>        0.000
     16 H          -3.2448    2.6005   -3.7429 H.spc      1 <1>        0.000
     17 H          -1.5065    3.9192   -1.6902 H.spc      1 <1>        0.000
     18 H           0.4538    2.9069   -0.5871 H.spc      1 <1>        0.000
     19 H           0.1498    0.9968    0.9792 H.spc      1 <1>        0.000
     20 H          -2.1290    0.0915    1.4055 H.spc      1 <1>        0.000
     21 H          -4.0829    1.0954    0.2842 H.spc      1 <1>        0.000
@<TRIPOS>BOND
     1    5    6 2  
     2   12   13 ar 
     3   10   11 ar 
     4    4    5 am 
     5    5    7 am 
     6    9   10 ar 
     7    8   13 ar 
     8    1    8 1  
     9    8    9 ar 
    10    1    2 2  
    11    1    3 2  
    12    1    4 1  
    13   11   12 ar 
    14    4   14 1  
    15    7   15 1  
    16    7   16 1  
    17    9   17 1  
    18   10   18 1  
    19   11   19 1  
    20   12   20 1  
    21   13   21 1  
# Name:          frag5-648-27/41815
# Creation time: Sat Jun  5 12:53:01 2010


@<TRIPOS>MOLECULE
frag5-648-27/41815
   21    21     1     1     1
SMALL
USER_CHARGES


@<TRIPOS>ATOM
      1 S1         -4.2929    3.6431   -1.3838 S.o2       1 <1>        0.000
      2 O1         -4.8456    4.5661   -0.4098 O.2        1 <1>        0.000
      3 O2         -5.1681    2.6675   -2.0127 O.2        1 <1>        0.000
      4 N1         -3.4721    4.5430   -2.6226 N.am       1 <1>        0.000
      5 C1         -3.3561    4.0603   -3.8912 C.2        1 <1>        0.000
      6 O3         -3.6875    2.9080   -4.1200 O.2        1 <1>        0.000
      7 N2         -2.8864    4.8493   -4.8725 N.am       1 <1>        0.000
      8 C8         -2.9163    2.7934   -0.6752 C.ar       1 <1>        0.000
      9 C9         -2.4158    3.1430    0.5869 C.ar       1 <1>        0.000
     10 C10        -1.3148    2.4790    1.1254 C.ar       1 <1>        0.000
     11 C11        -0.6962    1.4550    0.4033 C.ar       1 <1>        0.000
     12 C12        -1.1763    1.1057   -0.8615 C.ar       1 <1>        0.000
     13 C13        -2.2739    1.7767   -1.3970 C.ar       1 <1>        0.000
     14 H          -3.0686    5.4518   -2.3953 H.spc      1 <1>        0.000
     15 H          -2.8033    4.4871   -5.8224 H.spc      1 <1>        0.000
     16 H          -2.6130    5.8103   -4.6674 H.spc      1 <1>        0.000
     17 H          -2.8929    3.9428    1.1533 H.spc      1 <1>        0.000
     18 H          -0.9367    2.7583    2.1088 H.spc      1 <1>        0.000
     19 H           0.1599    0.9293    0.8263 H.spc      1 <1>        0.000
     20 H          -0.6932    0.3098   -1.4283 H.spc      1 <1>        0.000
     21 H          -2.6377    1.5082   -2.3888 H.spc      1 <1>        0.000
@<TRIPOS>BOND
     1    5    6 2  
     2   12   13 ar 
     3   10   11 ar 
     4    4    5 am 
     5    5    7 am 
     6    9   10 ar 
     7    8   13 ar 
     8    1    8 1  
     9    8    9 ar 
    10    1    2 2  
    11    1    3 2  
    12    1    4 1  
    13   11   12 ar 
    14    4   14 1  
    15    7   15 1  
    16    7   16 1  
    17    9   17 1  
    18   10   18 1  
    19   11   19 1  
    20   12   20 1  
    21   13   21 1  
# Name:          frag5-648-27/41815
# Creation time: Sat Jun  5 12:53:01 2010


@<TRIPOS>MOLECULE
frag5-648-27/41815
   21    21     1     1     1
SMALL
USER_CHARGES


@<TRIPOS>ATOM
      1 S1         -4.5360    3.5209   -1.3798 S.o2       1 <1>        0.000
      2 O1         -4.5583    4.8940   -0.9045 O.2        1 <1>        0.000
      3 O2         -5.6673    2.6558   -1.1040 O.2        1 <1>        0.000
      4 N1         -4.2206    3.5173   -3.0865 N.am       1 <1>        0.000
      5 C1         -3.0991    4.0980   -3.6034 C.2        1 <1>        0.000
      6 O3         -2.4255    4.8214   -2.8876 O.2        1 <1>        0.000
      7 N2         -2.7466    3.8654   -4.8780 N.am       1 <1>        0.000
      8 C8         -3.0645    2.7282   -0.8068 C.ar       1 <1>        0.000
      9 C9         -2.5089    3.0269    0.4442 C.ar       1 <1>        0.000
     10 C10        -1.3372    2.4056    0.8719 C.ar       1 <1>        0.000
     11 C11        -0.7004    1.4749    0.0467 C.ar       1 <1>        0.000
     12 C12        -1.2346    1.1768   -1.2096 C.ar       1 <1>        0.000
     13 C13        -2.4029    1.8048   -1.6331 C.ar       1 <1>        0.000
     14 H          -4.8876    3.0717   -3.7165 H.spc      1 <1>        0.000
     15 H          -1.9050    4.2959   -5.2611 H.spc      1 <1>        0.000
     16 H          -3.3205    3.2582   -5.4632 H.spc      1 <1>        0.000
     17 H          -2.9993    3.7544    1.0910 H.spc      1 <1>        0.000
     18 H          -0.9179    2.6453    1.8490 H.spc      1 <1>        0.000
     19 H           0.2119    0.9821    0.3826 H.spc      1 <1>        0.000
     20 H          -0.7377    0.4541   -1.8568 H.spc      1 <1>        0.000
     21 H          -2.8093    1.5770   -2.6185 H.spc      1 <1>        0.000
@<TRIPOS>BOND
     1    5    6 2  
     2   12   13 ar 
     3   10   11 ar 
     4    4    5 am 
     5    5    7 am 
     6    9   10 ar 
     7    8   13 ar 
     8    1    8 1  
     9    8    9 ar 
    10    1    2 2  
    11    1    3 2  
    12    1    4 1  
    13   11   12 ar 
    14    4   14 1  
    15    7   15 1  
    16    7   16 1  
    17    9   17 1  
    18   10   18 1  
    19   11   19 1  
    20   12   20 1  
    21   13   21 1  
# Name:          frag5-648-27/41815
# Creation time: Sat Jun  5 12:53:01 2010


@<TRIPOS>MOLECULE
frag5-648-27/41815
   21    21     1     1     1
SMALL
USER_CHARGES


@<TRIPOS>ATOM
      1 S1         -4.5125    3.4485   -1.4418 S.o2       1 <1>        0.000
      2 O1         -5.2174    4.0943   -0.3499 O.2        1 <1>        0.000
      3 O2         -5.2219    2.4902   -2.2747 O.2        1 <1>        0.000
      4 N1         -3.8038    4.6558   -2.4601 N.am       1 <1>        0.000
      5 C1         -3.0643    4.3199   -3.5599 C.2        1 <1>        0.000
      6 O3         -2.7243    3.1567   -3.7053 O.2        1 <1>        0.000
      7 N2         -2.7314    5.2571   -4.4583 N.am       1 <1>        0.000
      8 C8         -3.0510    2.6815   -0.8212 C.ar       1 <1>        0.000
      9 C9         -3.0427    1.3492   -0.3856 C.ar       1 <1>        0.000
     10 C10        -1.8813    0.7648    0.1129 C.ar       1 <1>        0.000
     11 C11        -0.7013    1.5097    0.1823 C.ar       1 <1>        0.000
     12 C12        -0.6921    2.8419   -0.2389 C.ar       1 <1>        0.000
     13 C13        -1.8579    3.4204   -0.7300 C.ar       1 <1>        0.000
     14 H          -3.9412    5.6410   -2.2343 H.spc      1 <1>        0.000
     15 H          -2.1845    5.0034   -5.2811 H.spc      1 <1>        0.000
     16 H          -3.0249    6.2240   -4.3192 H.spc      1 <1>        0.000
     17 H          -3.9593    0.7617   -0.4379 H.spc      1 <1>        0.000
     18 H          -1.8927   -0.2722    0.4485 H.spc      1 <1>        0.000
     19 H           0.2111    1.0521    0.5646 H.spc      1 <1>        0.000
     20 H           0.2262    3.4264   -0.1828 H.spc      1 <1>        0.000
     21 H          -1.8465    4.4626   -1.0491 H.spc      1 <1>        0.000
@<TRIPOS>BOND
     1    5    6 2  
     2   12   13 ar 
     3   10   11 ar 
     4    4    5 am 
     5    5    7 am 
     6    9   10 ar 
     7    8   13 ar 
     8    1    8 1  
     9    8    9 ar 
    10    1    2 2  
    11    1    3 2  
    12    1    4 1  
    13   11   12 ar 
    14    4   14 1  
    15    7   15 1  
    16    7   16 1  
    17    9   17 1  
    18   10   18 1  
    19   11   19 1  
    20   12   20 1  
    21   13   21 1  
# Name:          frag5-648-27/41815
# Creation time: Sat Jun  5 12:53:01 2010


@<TRIPOS>MOLECULE
frag5-648-27/41815
   21    21     1     1     1
SMALL
USER_CHARGES


@<TRIPOS>ATOM
      1 S1         -4.0547    3.3680   -1.6040 S.o2       1 <1>        0.000
      2 O1         -4.3389    4.6707   -1.0261 O.2        1 <1>        0.000
      3 O2         -5.1462    2.4324   -1.8135 O.2        1 <1>        0.000
      4 N1         -3.2050    3.5860   -3.1032 N.am       1 <1>        0.000
      5 C1         -3.6031    4.5102   -4.0195 C.2        1 <1>        0.000
      6 O3         -4.3266    5.4252   -3.6624 O.2        1 <1>        0.000
      7 N2         -3.2069    4.4031   -5.2997 N.am       1 <1>        0.000
      8 C8         -2.7963    2.5692   -0.6595 C.ar       1 <1>        0.000
      9 C9         -2.3535    3.0955    0.5616 C.ar       1 <1>        0.000
     10 C10        -1.3437    2.4641    1.2857 C.ar       1 <1>        0.000
     11 C11        -0.7589    1.2946    0.7926 C.ar       1 <1>        0.000
     12 C12        -1.1809    0.7663   -0.4303 C.ar       1 <1>        0.000
     13 C13        -2.1872    1.4049   -1.1522 C.ar       1 <1>        0.000
     14 H          -2.3885    3.0078   -3.3015 H.spc      1 <1>        0.000
     15 H          -3.5113    5.0924   -5.9872 H.spc      1 <1>        0.000
     16 H          -2.6019    3.6325   -5.5836 H.spc      1 <1>        0.000
     17 H          -2.8040    4.0091    0.9495 H.spc      1 <1>        0.000
     18 H          -1.0105    2.8821    2.2356 H.spc      1 <1>        0.000
     19 H           0.0255    0.7951    1.3612 H.spc      1 <1>        0.000
     20 H          -0.7237   -0.1437   -0.8188 H.spc      1 <1>        0.000
     21 H          -2.5051    0.9952   -2.1110 H.spc      1 <1>        0.000
@<TRIPOS>BOND
     1    5    6 2  
     2   12   13 ar 
     3   10   11 ar 
     4    4    5 am 
     5    5    7 am 
     6    9   10 ar 
     7    8   13 ar 
     8    1    8 1  
     9    8    9 ar 
    10    1    2 2  
    11    1    3 2  
    12    1    4 1  
    13   11   12 ar 
    14    4   14 1  
    15    7   15 1  
    16    7   16 1  
    17    9   17 1  
    18   10   18 1  
    19   11   19 1  
    20   12   20 1  
    21   13   21 1  
# Name:          frag5-648-27/41815
# Creation time: Sat Jun  5 12:53:01 2010


@<TRIPOS>MOLECULE
frag5-648-27/41815
   21    21     1     1     1
SMALL
USER_CHARGES


@<TRIPOS>ATOM
      1 S1         -4.0527    3.3869   -1.5969 S.o2       1 <1>        0.000
      2 O1         -4.6857    4.4316   -0.8090 O.2        1 <1>        0.000
      3 O2         -4.8806    2.3541   -2.1969 O.2        1 <1>        0.000
      4 N1         -3.0827    4.1205   -2.8334 N.am       1 <1>        0.000
      5 C1         -3.6039    4.4554   -4.0468 C.2        1 <1>        0.000
      6 O3         -4.5895    3.8614   -4.4510 O.2        1 <1>        0.000
      7 N2         -3.0411    5.4356   -4.7729 N.am       1 <1>        0.000
      8 C8         -2.7890    2.6148   -0.6404 C.ar       1 <1>        0.000
      9 C9         -2.0051    3.3512    0.2612 C.ar       1 <1>        0.000
     10 C10        -0.9936    2.7353    0.9953 C.ar       1 <1>        0.000
     11 C11        -0.7486    1.3690    0.8345 C.ar       1 <1>        0.000
     12 C12        -1.5118    0.6257   -0.0696 C.ar       1 <1>        0.000
     13 C13        -2.5178    1.2486   -0.8044 C.ar       1 <1>        0.000
     14 H          -2.0971    4.3059   -2.6475 H.spc      1 <1>        0.000
     15 H          -3.4378    5.6929   -5.6767 H.spc      1 <1>        0.000
     16 H          -2.2170    5.9225   -4.4204 H.spc      1 <1>        0.000
     17 H          -2.1898    4.4178    0.3887 H.spc      1 <1>        0.000
     18 H          -0.3941    3.3186    1.6942 H.spc      1 <1>        0.000
     19 H           0.0370    0.8837    1.4137 H.spc      1 <1>        0.000
     20 H          -1.3203   -0.4394   -0.1996 H.spc      1 <1>        0.000
     21 H          -3.1023    0.6663   -1.5167 H.spc      1 <1>        0.000
@<TRIPOS>BOND
     1    5    6 2  
     2   12   13 ar 
     3   10   11 ar 
     4    4    5 am 
     5    5    7 am 
     6    9   10 ar 
     7    8   13 ar 
     8    1    8 1  
     9    8    9 ar 
    10    1    2 2  
    11    1    3 2  
    12    1    4 1  
    13   11   12 ar 
    14    4   14 1  
    15    7   15 1  
    16    7   16 1  
    17    9   17 1  
    18   10   18 1  
    19   11   19 1  
    20   12   20 1  
    21   13   21 1  
# Name:          frag5-648-27/41815
# Creation time: Sat Jun  5 12:53:01 2010


@<TRIPOS>MOLECULE
frag5-648-27/41815
   21    21     1     1     1
SMALL
USER_CHARGES


@<TRIPOS>ATOM
      1 S1         -4.0587    3.1317   -1.7586 S.o2       1 <1>        0.000
      2 O1         -4.7433    4.1897   -1.0345 O.2        1 <1>        0.000
      3 O2         -4.8342    2.0404   -2.3212 O.2        1 <1>        0.000
      4 N1         -3.0892    3.8407   -3.0156 N.am       1 <1>        0.000
      5 C1         -3.6061    4.7532   -3.8811 C.2        1 <1>        0.000
      6 O3         -4.8144    4.9220   -3.9140 O.2        1 <1>        0.000
      7 N2         -2.7901    5.4596   -4.6839 N.am       1 <1>        0.000
      8 C8         -2.7826    2.4566   -0.7415 C.ar       1 <1>        0.000
      9 C9         -2.9021    1.1835   -0.1694 C.ar       1 <1>        0.000
     10 C10        -1.8904    0.6695    0.6407 C.ar       1 <1>        0.000
     11 C11        -0.7426    1.4270    0.8886 C.ar       1 <1>        0.000
     12 C12        -0.6157    2.7025    0.3321 C.ar       1 <1>        0.000
     13 C13        -1.6325    3.2137   -0.4724 C.ar       1 <1>        0.000
     14 H          -2.1110    3.5661   -3.1058 H.spc      1 <1>        0.000
     15 H          -3.1794    6.1461   -5.3301 H.spc      1 <1>        0.000
     16 H          -1.7820    5.3088   -4.6464 H.spc      1 <1>        0.000
     17 H          -3.7954    0.5885   -0.3596 H.spc      1 <1>        0.000
     18 H          -1.9947   -0.3224    1.0803 H.spc      1 <1>        0.000
     19 H           0.0527    1.0235    1.5153 H.spc      1 <1>        0.000
     20 H           0.2771    3.2967    0.5269 H.spc      1 <1>        0.000
     21 H          -1.5331    4.2126   -0.8972 H.spc      1 <1>        0.000
@<TRIPOS>BOND
     1    5    6 2  
     2   12   13 ar 
     3   10   11 ar 
     4    4    5 am 
     5    5    7 am 
     6    9   10 ar 
     7    8   13 ar 
     8    1    8 1  
     9    8    9 ar 
    10    1    2 2  
    11    1    3 2  
    12    1    4 1  
    13   11   12 ar 
    14    4   14 1  
    15    7   15 1  
    16    7   16 1  
    17    9   17 1  
    18   10   18 1  
    19   11   19 1  
    20   12   20 1  
    21   13   21 1  
# Name:          frag5-648-27/41815
# Creation time: Sat Jun  5 12:53:01 2010


@<TRIPOS>MOLECULE
frag5-648-27/41815
   21    21     1     1     1
SMALL
USER_CHARGES


@<TRIPOS>ATOM
      1 S1         -4.0645    3.3392   -1.6510 S.o2       1 <1>        0.000
      2 O1         -4.8775    4.1924   -0.8012 O.2        1 <1>        0.000
      3 O2         -4.7279    2.3275   -2.4674 O.2        1 <1>        0.000
      4 N1         -3.0905    4.3128   -2.6725 N.am       1 <1>        0.000
      5 C1         -3.4792    4.7007   -3.9272 C.2        1 <1>        0.000
      6 O3         -3.3840    5.8565   -4.2699 O.2        1 <1>        0.000
      7 N2         -3.9974    3.7627   -4.7433 N.am       1 <1>        0.000
      8 C8         -2.8306    2.5569   -0.6861 C.ar       1 <1>        0.000
      9 C9         -1.7592    3.2884   -0.1346 C.ar       1 <1>        0.000
     10 C10        -0.7661    2.6647    0.6105 C.ar       1 <1>        0.000
     11 C11        -0.8183    1.2846    0.8194 C.ar       1 <1>        0.000
     12 C12        -1.8613    0.5352    0.2706 C.ar       1 <1>        0.000
     13 C13        -2.8455    1.1685   -0.4778 C.ar       1 <1>        0.000
     14 H          -2.1793    4.6172   -2.3298 H.spc      1 <1>        0.000
     15 H          -4.3211    4.0203   -5.6756 H.spc      1 <1>        0.000
     16 H          -4.0661    2.7948   -4.4290 H.spc      1 <1>        0.000
     17 H          -1.7088    4.3652   -0.2960 H.spc      1 <1>        0.000
     18 H           0.0513    3.2506    1.0308 H.spc      1 <1>        0.000
     19 H          -0.0456    0.7928    1.4103 H.spc      1 <1>        0.000
     20 H          -1.9029   -0.5424    0.4289 H.spc      1 <1>        0.000
     21 H          -3.6482    0.5736   -0.9135 H.spc      1 <1>        0.000
@<TRIPOS>BOND
     1    5    6 2  
     2   12   13 ar 
     3   10   11 ar 
     4    4    5 am 
     5    5    7 am 
     6    9   10 ar 
     7    8   13 ar 
     8    1    8 1  
     9    8    9 ar 
    10    1    2 2  
    11    1    3 2  
    12    1    4 1  
    13   11   12 ar 
    14    4   14 1  
    15    7   15 1  
    16    7   16 1  
    17    9   17 1  
    18   10   18 1  
    19   11   19 1  
    20   12   20 1  
    21   13   21 1  
# Name:          frag5-648-27/41815
# Creation time: Sat Jun  5 12:53:01 2010


@<TRIPOS>MOLECULE
frag5-648-27/41815
   21    21     1     1     1
SMALL
USER_CHARGES


@<TRIPOS>ATOM
      1 S1         -4.5527    3.3983   -1.4954 S.o2       1 <1>        0.000
      2 O1         -4.7140    4.7197   -0.9058 O.2        1 <1>        0.000
      3 O2         -5.6441    2.4466   -1.4020 O.2        1 <1>        0.000
      4 N1         -4.0907    3.5757   -3.1506 N.am       1 <1>        0.000
      5 C1         -2.9893    4.3004   -3.5177 C.2        1 <1>        0.000
      6 O3         -1.9202    4.0638   -2.9838 O.2        1 <1>        0.000
      7 N2         -3.1082    5.2748   -4.4314 N.am       1 <1>        0.000
      8 C8         -3.0924    2.6502   -0.8540 C.ar       1 <1>        0.000
      9 C9         -2.0097    3.4216   -0.3972 C.ar       1 <1>        0.000
     10 C10        -0.8509    2.8190    0.0816 C.ar       1 <1>        0.000
     11 C11        -0.7523    1.4256    0.1113 C.ar       1 <1>        0.000
     12 C12        -1.8125    0.6417   -0.3508 C.ar       1 <1>        0.000
     13 C13        -2.9650    1.2525   -0.8347 C.ar       1 <1>        0.000
     14 H          -4.6540    3.1283   -3.8737 H.spc      1 <1>        0.000
     15 H          -2.2948    5.8331   -4.6904 H.spc      1 <1>        0.000
     16 H          -4.0120    5.4577   -4.8673 H.spc      1 <1>        0.000
     17 H          -2.0792    4.5092   -0.4185 H.spc      1 <1>        0.000
     18 H          -0.0214    3.4327    0.4329 H.spc      1 <1>        0.000
     19 H           0.1508    0.9506    0.4946 H.spc      1 <1>        0.000
     20 H          -1.7369   -0.4455   -0.3322 H.spc      1 <1>        0.000
     21 H          -3.7832    0.6350   -1.2053 H.spc      1 <1>        0.000
@<TRIPOS>BOND
     1    5    6 2  
     2   12   13 ar 
     3   10   11 ar 
     4    4    5 am 
     5    5    7 am 
     6    9   10 ar 
     7    8   13 ar 
     8    1    8 1  
     9    8    9 ar 
    10    1    2 2  
    11    1    3 2  
    12    1    4 1  
    13   11   12 ar 
    14    4   14 1  
    15    7   15 1  
    16    7   16 1  
    17    9   17 1  
    18   10   18 1  
    19   11   19 1  
    20   12   20 1  
    21   13   21 1  
# Name:          frag5-648-27/41815
# Creation time: Sat Jun  5 12:53:01 2010


@<TRIPOS>MOLECULE
frag5-648-27/41815
   21    21     1     1     1
SMALL
USER_CHARGES


@<TRIPOS>ATOM
      1 S1         -4.1313    3.7491   -1.3997 S.o2       1 <1>        0.000
      2 O1         -4.5473    4.8177   -0.5084 O.2        1 <1>        0.000
      3 O2         -5.1297    2.8129   -1.8929 O.2        1 <1>        0.000
      4 N1         -3.2862    4.4292   -2.7489 N.am       1 <1>        0.000
      5 C1         -3.4979    3.9888   -4.0241 C.2        1 <1>        0.000
      6 O3         -3.8622    2.8378   -4.1968 O.2        1 <1>        0.000
      7 N2         -3.3198    4.8231   -5.0592 N.am       1 <1>        0.000
      8 C8         -2.8252    2.8346   -0.6514 C.ar       1 <1>        0.000
      9 C9         -1.7062    2.4231   -1.3978 C.ar       1 <1>        0.000
     10 C10        -0.6813    1.6911   -0.8052 C.ar       1 <1>        0.000
     11 C11        -0.7576    1.3568    0.5494 C.ar       1 <1>        0.000
     12 C12        -1.8668    1.7492    1.3028 C.ar       1 <1>        0.000
     13 C13        -2.8905    2.4765    0.7016 C.ar       1 <1>        0.000
     14 H          -2.6128    5.1781   -2.5872 H.spc      1 <1>        0.000
     15 H          -3.4895    4.4983   -6.0111 H.spc      1 <1>        0.000
     16 H          -3.0147    5.7823   -4.8944 H.spc      1 <1>        0.000
     17 H          -1.6408    2.6810   -2.4548 H.spc      1 <1>        0.000
     18 H           0.1794    1.3792   -1.3968 H.spc      1 <1>        0.000
     19 H           0.0474    0.7905    1.0178 H.spc      1 <1>        0.000
     20 H          -1.9306    1.4866    2.3588 H.spc      1 <1>        0.000
     21 H          -3.7569    2.7722    1.2932 H.spc      1 <1>        0.000
@<TRIPOS>BOND
     1    5    6 2  
     2   12   13 ar 
     3   10   11 ar 
     4    4    5 am 
     5    5    7 am 
     6    9   10 ar 
     7    8   13 ar 
     8    1    8 1  
     9    8    9 ar 
    10    1    2 2  
    11    1    3 2  
    12    1    4 1  
    13   11   12 ar 
    14    4   14 1  
    15    7   15 1  
    16    7   16 1  
    17    9   17 1  
    18   10   18 1  
    19   11   19 1  
    20   12   20 1  
    21   13   21 1  
# Name:          frag5-648-27/41815
# Creation time: Sat Jun  5 12:53:01 2010


@<TRIPOS>MOLECULE
frag5-648-27/41815
   21    21     1     1     1
SMALL
USER_CHARGES


@<TRIPOS>ATOM
      1 S1         -3.9709    3.5561   -1.5370 S.o2       1 <1>        0.000
      2 O1         -4.3068    4.7932   -0.8501 O.2        1 <1>        0.000
      3 O2         -5.0323    2.6213   -1.8686 O.2        1 <1>        0.000
      4 N1         -3.0809    3.9338   -2.9772 N.am       1 <1>        0.000
      5 C1         -3.7090    4.2355   -4.1470 C.2        1 <1>        0.000
      6 O3         -4.8010    3.7430   -4.3769 O.2        1 <1>        0.000
      7 N2         -3.1327    5.0767   -5.0221 N.am       1 <1>        0.000
      8 C8         -2.7269    2.6999   -0.6272 C.ar       1 <1>        0.000
      9 C9         -1.7947    1.8734   -1.2770 C.ar       1 <1>        0.000
     10 C10        -0.8213    1.1899   -0.5518 C.ar       1 <1>        0.000
     11 C11        -0.7657    1.3231    0.8381 C.ar       1 <1>        0.000
     12 C12        -1.6927    2.1337    1.4983 C.ar       1 <1>        0.000
     13 C13        -2.6669    2.8103    0.7677 C.ar       1 <1>        0.000
     14 H          -2.0614    3.9298   -2.9470 H.spc      1 <1>        0.000
     15 H          -3.6089    5.3115   -5.8930 H.spc      1 <1>        0.000
     16 H          -2.2191    5.4804   -4.8155 H.spc      1 <1>        0.000
     17 H          -1.8336    1.7658   -2.3610 H.spc      1 <1>        0.000
     18 H          -0.1039    0.5519   -1.0679 H.spc      1 <1>        0.000
     19 H          -0.0000    0.7952    1.4066 H.spc      1 <1>        0.000
     20 H          -1.6537    2.2364    2.5827 H.spc      1 <1>        0.000
     21 H          -3.3927    3.4344    1.2890 H.spc      1 <1>        0.000
@<TRIPOS>BOND
     1    5    6 2  
     2   12   13 ar 
     3   10   11 ar 
     4    4    5 am 
     5    5    7 am 
     6    9   10 ar 
     7    8   13 ar 
     8    1    8 1  
     9    8    9 ar 
    10    1    2 2  
    11    1    3 2  
    12    1    4 1  
    13   11   12 ar 
    14    4   14 1  
    15    7   15 1  
    16    7   16 1  
    17    9   17 1  
    18   10   18 1  
    19   11   19 1  
    20   12   20 1  
    21   13   21 1  
# Name:          frag5-648-27/41815
# Creation time: Sat Jun  5 12:53:01 2010


@<TRIPOS>MOLECULE
frag5-648-27/41815
   21    21     1     1     1
SMALL
USER_CHARGES


@<TRIPOS>ATOM
      1 S1         -4.2511    3.1133   -1.7653 S.o2       1 <1>        0.000
      2 O1         -4.7041    4.3340   -1.1163 O.2        1 <1>        0.000
      3 O2         -5.2173    2.0684   -2.0548 O.2        1 <1>        0.000
      4 N1         -3.4127    3.5273   -3.2239 N.am       1 <1>        0.000
      5 C1         -3.2975    4.8203   -3.6422 C.2        1 <1>        0.000
      6 O3         -3.0579    5.6894   -2.8208 O.2        1 <1>        0.000
      7 N2         -3.4681    5.1218   -4.9395 N.am       1 <1>        0.000
      8 C8         -2.9234    2.4184   -0.8383 C.ar       1 <1>        0.000
      9 C9         -3.1122    1.3111    0.0004 C.ar       1 <1>        0.000
     10 C10        -2.0535    0.7801    0.7336 C.ar       1 <1>        0.000
     11 C11        -0.7825    1.3525    0.6367 C.ar       1 <1>        0.000
     12 C12        -0.5788    2.4622   -0.1873 C.ar       1 <1>        0.000
     13 C13        -1.6427    2.9912   -0.9129 C.ar       1 <1>        0.000
     14 H          -2.9944    2.7847   -3.7843 H.spc      1 <1>        0.000
     15 H          -3.3979    6.0904   -5.2515 H.spc      1 <1>        0.000
     16 H          -3.6679    4.3823   -5.6130 H.spc      1 <1>        0.000
     17 H          -4.1010    0.8594    0.0799 H.spc      1 <1>        0.000
     18 H          -2.2163   -0.0808    1.3821 H.spc      1 <1>        0.000
     19 H           0.0491    0.9337    1.2034 H.spc      1 <1>        0.000
     20 H           0.4109    2.9128   -0.2619 H.spc      1 <1>        0.000
     21 H          -1.4798    3.8621   -1.5478 H.spc      1 <1>        0.000
@<TRIPOS>BOND
     1    5    6 2  
     2   12   13 ar 
     3   10   11 ar 
     4    4    5 am 
     5    5    7 am 
     6    9   10 ar 
     7    8   13 ar 
     8    1    8 1  
     9    8    9 ar 
    10    1    2 2  
    11    1    3 2  
    12    1    4 1  
    13   11   12 ar 
    14    4   14 1  
    15    7   15 1  
    16    7   16 1  
    17    9   17 1  
    18   10   18 1  
    19   11   19 1  
    20   12   20 1  
    21   13   21 1  
# Name:          frag5-648-27/41815 -- energy: -2.103049
# Creation time: Sat Jun  5 12:53:01 2010


@<TRIPOS>MOLECULE
frag5-648-27/41815 -- energy: -2.103049
   21    21     1     1     1
SMALL
USER_CHARGES


@<TRIPOS>ATOM
      1 S1         -4.5125    3.5730   -1.3622 S.o2       1 <1>        0.000
      2 O1         -5.0489    4.3974   -0.2948 O.2        1 <1>        0.000
      3 O2         -5.3654    2.5746   -1.9850 O.2        1 <1>        0.000
      4 N1         -3.8498    4.5958   -2.5977 N.am       1 <1>        0.000
      5 C1         -3.1026    4.0837   -3.6175 C.2        1 <1>        0.000
      6 O3         -2.9441    2.8751   -3.6854 O.2        1 <1>        0.000
      7 N2         -2.5532    4.9033   -4.5285 N.am       1 <1>        0.000
      8 C8         -3.0326    2.7839   -0.8062 C.ar       1 <1>        0.000
      9 C9         -2.7232    1.4668   -1.1775 C.ar       1 <1>        0.000
     10 C10        -1.5569    0.8538   -0.7246 C.ar       1 <1>        0.000
     11 C11        -0.6807    1.5529    0.1097 C.ar       1 <1>        0.000
     12 C12        -0.9809    2.8619    0.4956 C.ar       1 <1>        0.000
     13 C13        -2.1512    3.4676    0.0434 C.ar       1 <1>        0.000
     14 H          -4.0226    5.6004   -2.5605 H.spc      1 <1>        0.000
     15 H          -1.9948    4.5180   -5.2901 H.spc      1 <1>        0.000
     16 H          -2.6944    5.9111   -4.4588 H.spc      1 <1>        0.000
     17 H          -3.4032    0.9167   -1.8279 H.spc      1 <1>        0.000
     18 H          -1.3282   -0.1700   -1.0207 H.spc      1 <1>        0.000
     19 H           0.2359    1.0777    0.4591 H.spc      1 <1>        0.000
     20 H          -0.3007    3.4081    1.1492 H.spc      1 <1>        0.000
     21 H          -2.3846    4.4860    0.3540 H.spc      1 <1>        0.000
@<TRIPOS>BOND
     1    5    6 2  
     2   12   13 ar 
     3   10   11 ar 
     4    4    5 am 
     5    5    7 am 
     6    9   10 ar 
     7    8   13 ar 
     8    1    8 1  
     9    8    9 ar 
    10    1    2 2  
    11    1    3 2  
    12    1    4 1  
    13   11   12 ar 
    14    4   14 1  
    15    7   15 1  
    16    7   16 1  
    17    9   17 1  
    18   10   18 1  
    19   11   19 1  
    20   12   20 1  
    21   13   21 1  
# Name:          frag5-648-27/41815 -- energy: 2.217299
# Creation time: Sat Jun  5 12:53:01 2010


@<TRIPOS>MOLECULE
frag5-648-27/41815 -- energy: 2.217299
   21    21     1     1     1
SMALL
USER_CHARGES


@<TRIPOS>ATOM
      1 S1         -4.4363    3.5986   -1.3927 S.o2       1 <1>        0.000
      2 O1         -5.0378    4.3653   -0.3220 O.2        1 <1>        0.000
      3 O2         -5.2572    2.6298   -2.1145 O.2        1 <1>        0.000
      4 N1         -3.7110    4.6479   -2.5265 N.am       1 <1>        0.000
      5 C1         -3.1238    4.2059   -3.6910 C.2        1 <1>        0.000
      6 O3         -2.3939    4.9206   -4.3331 O.2        1 <1>        0.000
      7 N2         -3.3934    2.9407   -4.0723 N.am       1 <1>        0.000
      8 C8         -3.0143    2.7672   -0.7866 C.ar       1 <1>        0.000
      9 C9         -2.7014    1.4437   -1.1516 C.ar       1 <1>        0.000
     10 C10        -1.5732    0.8003   -0.6609 C.ar       1 <1>        0.000
     11 C11        -0.7176    1.4727    0.2141 C.ar       1 <1>        0.000
     12 C12        -1.0039    2.7837    0.6000 C.ar       1 <1>        0.000
     13 C13        -2.1382    3.4136    0.1066 C.ar       1 <1>        0.000
     14 H          -3.7125    5.6493   -2.3325 H.spc      1 <1>        0.000
     15 H          -2.9762    2.5648   -4.9238 H.spc      1 <1>        0.000
     16 H          -4.0145    2.3597   -3.5092 H.spc      1 <1>        0.000
     17 H          -3.3613    0.9111   -1.8364 H.spc      1 <1>        0.000
     18 H          -1.3562   -0.2258   -0.9576 H.spc      1 <1>        0.000
     19 H           0.1735    0.9743    0.5958 H.spc      1 <1>        0.000
     20 H          -0.3398    3.3101    1.2855 H.spc      1 <1>        0.000
     21 H          -2.3564    4.4349    0.4186 H.spc      1 <1>        0.000
@<TRIPOS>BOND
     1    5    6 2  
     2   12   13 ar 
     3   10   11 ar 
     4    4    5 am 
     5    5    7 am 
     6    9   10 ar 
     7    8   13 ar 
     8    1    8 1  
     9    8    9 ar 
    10    1    2 2  
    11    1    3 2  
    12    1    4 1  
    13   11   12 ar 
    14    4   14 1  
    15    7   15 1  
    16    7   16 1  
    17    9   17 1  
    18   10   18 1  
    19   11   19 1  
    20   12   20 1  
    21   13   21 1  
# Name:          frag5-648-27/41815 -- energy: -1.514936
# Creation time: Sat Jun  5 12:53:01 2010


@<TRIPOS>MOLECULE
frag5-648-27/41815 -- energy: -1.514936
   21    21     1     1     1
SMALL
USER_CHARGES


@<TRIPOS>ATOM
      1 S1         -3.9328    3.5554   -1.5998 S.o2       1 <1>        0.000
      2 O1         -4.0617    4.9188   -1.0975 O.2        1 <1>        0.000
      3 O2         -5.1408    2.7578   -1.7554 O.2        1 <1>        0.000
      4 N1         -3.0974    3.5938   -3.0935 N.am       1 <1>        0.000
      5 C1         -3.5586    4.2580   -4.1999 C.2        1 <1>        0.000
      6 O3         -3.0173    4.1357   -5.2722 O.2        1 <1>        0.000
      7 N2         -4.6417    5.0455   -4.0390 N.am       1 <1>        0.000
      8 C8         -2.7949    2.6747   -0.6123 C.ar       1 <1>        0.000
      9 C9         -2.3086    3.1795    0.6053 C.ar       1 <1>        0.000
     10 C10        -1.3822    2.4761    1.3653 C.ar       1 <1>        0.000
     11 C11        -0.9122    1.2399    0.9167 C.ar       1 <1>        0.000
     12 C12        -1.3659    0.7201   -0.2974 C.ar       1 <1>        0.000
     13 C13        -2.2878    1.4347   -1.0510 C.ar       1 <1>        0.000
     14 H          -2.2098    3.0962   -3.1637 H.spc      1 <1>        0.000
     15 H          -5.0236    5.5564   -4.8350 H.spc      1 <1>        0.000
     16 H          -5.0789    5.1302   -3.1213 H.spc      1 <1>        0.000
     17 H          -2.6664    4.1453    0.9620 H.spc      1 <1>        0.000
     18 H          -1.0234    2.8878    2.3086 H.spc      1 <1>        0.000
     19 H          -0.1916    0.6811    1.5139 H.spc      1 <1>        0.000
     20 H          -0.9979   -0.2426   -0.6521 H.spc      1 <1>        0.000
     21 H          -2.6271    1.0275   -2.0035 H.spc      1 <1>        0.000
@<TRIPOS>BOND
     1    5    6 2  
     2   12   13 ar 
     3   10   11 ar 
     4    4    5 am 
     5    5    7 am 
     6    9   10 ar 
     7    8   13 ar 
     8    1    8 1  
     9    8    9 ar 
    10    1    2 2  
    11    1    3 2  
    12    1    4 1  
    13   11   12 ar 
    14    4   14 1  
    15    7   15 1  
    16    7   16 1  
    17    9   17 1  
    18   10   18 1  
    19   11   19 1  
    20   12   20 1  
    21   13   21 1  
# Name:          frag5-648-27/41815 -- energy: -1.643795
# Creation time: Sat Jun  5 12:53:01 2010


@<TRIPOS>MOLECULE
frag5-648-27/41815 -- energy: -1.643795
   21    21     1     1     1
SMALL
USER_CHARGES


@<TRIPOS>ATOM
      1 S1         -3.9964    3.3349   -1.7080 S.o2       1 <1>        0.000
      2 O1         -4.6192    4.4411   -0.9932 O.2        1 <1>        0.000
      3 O2         -4.8580    2.3167   -2.2963 O.2        1 <1>        0.000
      4 N1         -2.9752    3.9665   -2.9281 N.am       1 <1>        0.000
      5 C1         -3.4408    4.6340   -4.0298 C.2        1 <1>        0.000
      6 O3         -2.6903    4.9960   -4.9041 O.2        1 <1>        0.000
      7 N2         -4.7678    4.8664   -4.0966 N.am       1 <1>        0.000
      8 C8         -2.8258    2.5552   -0.6738 C.ar       1 <1>        0.000
      9 C9         -1.6236    3.1973   -0.3111 C.ar       1 <1>        0.000
     10 C10        -0.6796    2.5671    0.4898 C.ar       1 <1>        0.000
     11 C11        -0.9136    1.2683    0.9471 C.ar       1 <1>        0.000
     12 C12        -2.0890    0.6043    0.5898 C.ar       1 <1>        0.000
     13 C13        -3.0227    1.2423   -0.2164 C.ar       1 <1>        0.000
     14 H          -1.9680    3.8392   -2.8296 H.spc      1 <1>        0.000
     15 H          -5.1596    5.3587   -4.8995 H.spc      1 <1>        0.000
     16 H          -5.3795    4.5499   -3.3443 H.spc      1 <1>        0.000
     17 H          -1.4311    4.2095   -0.6668 H.spc      1 <1>        0.000
     18 H           0.2408    3.0845    0.7605 H.spc      1 <1>        0.000
     19 H          -0.1792    0.7733    1.5825 H.spc      1 <1>        0.000
     20 H          -2.2729   -0.4106    0.9422 H.spc      1 <1>        0.000
     21 H          -3.9307    0.7108   -0.5011 H.spc      1 <1>        0.000
@<TRIPOS>BOND
     1    5    6 2  
     2   12   13 ar 
     3   10   11 ar 
     4    4    5 am 
     5    5    7 am 
     6    9   10 ar 
     7    8   13 ar 
     8    1    8 1  
     9    8    9 ar 
    10    1    2 2  
    11    1    3 2  
    12    1    4 1  
    13   11   12 ar 
    14    4   14 1  
    15    7   15 1  
    16    7   16 1  
    17    9   17 1  
    18   10   18 1  
    19   11   19 1  
    20   12   20 1  
    21   13   21 1  
# Name:          frag5-648-27/41815 -- energy: -2.288732
# Creation time: Sat Jun  5 12:53:01 2010


@<TRIPOS>MOLECULE
frag5-648-27/41815 -- energy: -2.288732
   21    21     1     1     1
SMALL
USER_CHARGES


@<TRIPOS>ATOM
      1 S1         -4.5631    3.4639   -1.4479 S.o2       1 <1>        0.000
      2 O1         -4.6486    4.8290   -0.9404 O.2        1 <1>        0.000
      3 O2         -5.6619    2.5533   -1.2012 O.2        1 <1>        0.000
      4 N1         -4.2178    3.5186   -3.1189 N.am       1 <1>        0.000
      5 C1         -3.0562    4.0588   -3.6265 C.2        1 <1>        0.000
      6 O3         -2.4296    3.4844   -4.4847 O.2        1 <1>        0.000
      7 N2         -2.6362    5.2255   -3.1009 N.am       1 <1>        0.000
      8 C8         -3.0818    2.7295   -0.8533 C.ar       1 <1>        0.000
      9 C9         -2.8731    1.3374   -0.9062 C.ar       1 <1>        0.000
     10 C10        -1.7019    0.7590   -0.4348 C.ar       1 <1>        0.000
     11 C11        -0.6978    1.5666    0.1033 C.ar       1 <1>        0.000
     12 C12        -0.8782    2.9494    0.1750 C.ar       1 <1>        0.000
     13 C13        -2.0558    3.5144   -0.2940 C.ar       1 <1>        0.000
     14 H          -4.9019    3.1343   -3.7706 H.spc      1 <1>        0.000
     15 H          -1.7668    5.6479   -3.4266 H.spc      1 <1>        0.000
     16 H          -3.1875    5.6867   -2.3772 H.spc      1 <1>        0.000
     17 H          -3.6496    0.6988   -1.3273 H.spc      1 <1>        0.000
     18 H          -1.5669   -0.3215   -0.4846 H.spc      1 <1>        0.000
     19 H           0.2264    1.1177    0.4672 H.spc      1 <1>        0.000
     20 H          -0.0976    3.5822    0.5974 H.spc      1 <1>        0.000
     21 H          -2.1898    4.5941   -0.2276 H.spc      1 <1>        0.000
@<TRIPOS>BOND
     1    5    6 2  
     2   12   13 ar 
     3   10   11 ar 
     4    4    5 am 
     5    5    7 am 
     6    9   10 ar 
     7    8   13 ar 
     8    1    8 1  
     9    8    9 ar 
    10    1    2 2  
    11    1    3 2  
    12    1    4 1  
    13   11   12 ar 
    14    4   14 1  
    15    7   15 1  
    16    7   16 1  
    17    9   17 1  
    18   10   18 1  
    19   11   19 1  
    20   12   20 1  
    21   13   21 1  
# Name:          frag5-648-27/41815 -- energy: -2.321152
# Creation time: Sat Jun  5 12:53:01 2010


@<TRIPOS>MOLECULE
frag5-648-27/41815 -- energy: -2.321152
   21    21     1     1     1
SMALL
USER_CHARGES


@<TRIPOS>ATOM
      1 S1         -4.5743    3.3458   -1.4695 S.o2       1 <1>        0.000
      2 O1         -4.7710    4.6333   -0.8239 O.2        1 <1>        0.000
      3 O2         -5.6239    2.3469   -1.3916 O.2        1 <1>        0.000
      4 N1         -4.1531    3.6010   -3.1290 N.am       1 <1>        0.000
      5 C1         -3.0682    4.3525   -3.4845 C.2        1 <1>        0.000
      6 O3         -2.7614    5.3077   -2.7913 O.2        1 <1>        0.000
      7 N2         -2.3500    4.0233   -4.5694 N.am       1 <1>        0.000
      8 C8         -3.0685    2.6283   -0.8900 C.ar       1 <1>        0.000
      9 C9         -2.7776    1.2713   -1.1037 C.ar       1 <1>        0.000
     10 C10        -1.5910    0.7122   -0.6361 C.ar       1 <1>        0.000
     11 C11        -0.6719    1.5058    0.0553 C.ar       1 <1>        0.000
     12 C12        -0.9501    2.8557    0.2844 C.ar       1 <1>        0.000
     13 C13        -2.1409    3.4062   -0.1811 C.ar       1 <1>        0.000
     14 H          -4.7282    3.1805   -3.8589 H.spc      1 <1>        0.000
     15 H          -1.5319    4.5757   -4.8263 H.spc      1 <1>        0.000
     16 H          -2.6222    3.2207   -5.1370 H.spc      1 <1>        0.000
     17 H          -3.4902    0.6471   -1.6429 H.spc      1 <1>        0.000
     18 H          -1.3795   -0.3430   -0.8092 H.spc      1 <1>        0.000
     19 H           0.2610    1.0722    0.4155 H.spc      1 <1>        0.000
     20 H          -0.2364    3.4763    0.8263 H.spc      1 <1>        0.000
     21 H          -2.3559    4.4579    0.0081 H.spc      1 <1>        0.000
@<TRIPOS>BOND
     1    5    6 2  
     2   12   13 ar 
     3   10   11 ar 
     4    4    5 am 
     5    5    7 am 
     6    9   10 ar 
     7    8   13 ar 
     8    1    8 1  
     9    8    9 ar 
    10    1    2 2  
    11    1    3 2  
    12    1    4 1  
    13   11   12 ar 
    14    4   14 1  
    15    7   15 1  
    16    7   16 1  
    17    9   17 1  
    18   10   18 1  
    19   11   19 1  
    20   12   20 1  
    21   13   21 1  
# Name:          frag5-648-27/41815 -- energy: -0.933510
# Creation time: Sat Jun  5 12:53:01 2010


@<TRIPOS>MOLECULE
frag5-648-27/41815 -- energy: -0.933510
   21    21     1     1     1
SMALL
USER_CHARGES


@<TRIPOS>ATOM
      1 S1         -4.3688    3.4530   -1.4729 S.o2       1 <1>        0.000
      2 O1         -4.3335    4.8919   -1.2192 O.2        1 <1>        0.000
      3 O2         -5.5397    2.7021   -1.0753 O.2        1 <1>        0.000
      4 N1         -4.0343    3.1779   -3.1264 N.am       1 <1>        0.000
      5 C1         -3.3451    4.0697   -3.9115 C.2        1 <1>        0.000
      6 O3         -3.4230    4.0280   -5.1156 O.2        1 <1>        0.000
      7 N2         -2.5944    4.9974   -3.2831 N.am       1 <1>        0.000
      8 C8         -2.9512    2.7157   -0.7473 C.ar       1 <1>        0.000
      9 C9         -2.5025    1.4403   -1.1515 C.ar       1 <1>        0.000
     10 C10        -1.3866    0.8480   -0.5742 C.ar       1 <1>        0.000
     11 C11        -0.6835    1.5220    0.4266 C.ar       1 <1>        0.000
     12 C12        -1.1095    2.7824    0.8504 C.ar       1 <1>        0.000
     13 C13        -2.2298    3.3618    0.2694 C.ar       1 <1>        0.000
     14 H          -4.3621    2.3100   -3.5504 H.spc      1 <1>        0.000
     15 H          -2.0747    5.6865   -3.8267 H.spc      1 <1>        0.000
     16 H          -2.5464    5.0099   -2.2643 H.spc      1 <1>        0.000
     17 H          -3.0435    0.9082   -1.9340 H.spc      1 <1>        0.000
     18 H          -1.0608   -0.1394   -0.9012 H.spc      1 <1>        0.000
     19 H           0.1974    1.0644    0.8767 H.spc      1 <1>        0.000
     20 H          -0.5650    3.3093    1.6340 H.spc      1 <1>        0.000
     21 H          -2.5576    4.3435    0.6114 H.spc      1 <1>        0.000
@<TRIPOS>BOND
     1    5    6 2  
     2   12   13 ar 
     3   10   11 ar 
     4    4    5 am 
     5    5    7 am 
     6    9   10 ar 
     7    8   13 ar 
     8    1    8 1  
     9    8    9 ar 
    10    1    2 2  
    11    1    3 2  
    12    1    4 1  
    13   11   12 ar 
    14    4   14 1  
    15    7   15 1  
    16    7   16 1  
    17    9   17 1  
    18   10   18 1  
    19   11   19 1  
    20   12   20 1  
    21   13   21 1  
# Name:          frag5-648-27/41815 -- energy: 0.971597
# Creation time: Sat Jun  5 12:53:01 2010


@<TRIPOS>MOLECULE
frag5-648-27/41815 -- energy: 0.971597
   21    21     1     1     1
SMALL
USER_CHARGES


@<TRIPOS>ATOM
      1 S1         -4.3473    3.3096   -1.5665 S.o2       1 <1>        0.000
      2 O1         -5.2892    3.7713   -0.5693 O.2        1 <1>        0.000
      3 O2         -4.8102    2.3812   -2.5965 O.2        1 <1>        0.000
      4 N1         -3.6102    4.6460   -2.3332 N.am       1 <1>        0.000
      5 C1         -3.2646    4.6560   -3.6643 C.2        1 <1>        0.000
      6 O3         -3.1181    5.6952   -4.2596 O.2        1 <1>        0.000
      7 N2         -3.1145    3.4625   -4.2723 N.am       1 <1>        0.000
      8 C8         -2.9564    2.5960   -0.7762 C.ar       1 <1>        0.000
      9 C9         -1.6495    3.0806   -1.0088 C.ar       1 <1>        0.000
     10 C10        -0.5439    2.5144   -0.3905 C.ar       1 <1>        0.000
     11 C11        -0.7146    1.4397    0.4846 C.ar       1 <1>        0.000
     12 C12        -1.9930    0.9327    0.7258 C.ar       1 <1>        0.000
     13 C13        -3.0904    1.5049    0.0960 C.ar       1 <1>        0.000
     14 H          -3.4167    5.4782   -1.7761 H.spc      1 <1>        0.000
     15 H          -2.8706    3.4213   -5.2619 H.spc      1 <1>        0.000
     16 H          -3.2448    2.6005   -3.7429 H.spc      1 <1>        0.000
     17 H          -1.5065    3.9192   -1.6902 H.spc      1 <1>        0.000
     18 H           0.4538    2.9069   -0.5871 H.spc      1 <1>        0.000
     19 H           0.1498    0.9968    0.9792 H.spc      1 <1>        0.000
     20 H          -2.1290    0.0915    1.4055 H.spc      1 <1>        0.000
     21 H          -4.0829    1.0954    0.2842 H.spc      1 <1>        0.000
@<TRIPOS>BOND
     1    5    6 2  
     2   12   13 ar 
     3   10   11 ar 
     4    4    5 am 
     5    5    7 am 
     6    9   10 ar 
     7    8   13 ar 
     8    1    8 1  
     9    8    9 ar 
    10    1    2 2  
    11    1    3 2  
    12    1    4 1  
    13   11   12 ar 
    14    4   14 1  
    15    7   15 1  
    16    7   16 1  
    17    9   17 1  
    18   10   18 1  
    19   11   19 1  
    20   12   20 1  
    21   13   21 1  
# Name:          frag5-648-27/41815 -- energy: -1.763351
# Creation time: Sat Jun  5 12:53:01 2010


@<TRIPOS>MOLECULE
frag5-648-27/41815 -- energy: -1.763351
   21    21     1     1     1
SMALL
USER_CHARGES


@<TRIPOS>ATOM
      1 S1         -4.2929    3.6431   -1.3838 S.o2       1 <1>        0.000
      2 O1         -4.8456    4.5661   -0.4098 O.2        1 <1>        0.000
      3 O2         -5.1681    2.6675   -2.0127 O.2        1 <1>        0.000
      4 N1         -3.4721    4.5430   -2.6226 N.am       1 <1>        0.000
      5 C1         -3.3561    4.0603   -3.8912 C.2        1 <1>        0.000
      6 O3         -3.6875    2.9080   -4.1200 O.2        1 <1>        0.000
      7 N2         -2.8864    4.8493   -4.8725 N.am       1 <1>        0.000
      8 C8         -2.9163    2.7934   -0.6752 C.ar       1 <1>        0.000
      9 C9         -2.4158    3.1430    0.5869 C.ar       1 <1>        0.000
     10 C10        -1.3148    2.4790    1.1254 C.ar       1 <1>        0.000
     11 C11        -0.6962    1.4550    0.4033 C.ar       1 <1>        0.000
     12 C12        -1.1763    1.1057   -0.8615 C.ar       1 <1>        0.000
     13 C13        -2.2739    1.7767   -1.3970 C.ar       1 <1>        0.000
     14 H          -3.0686    5.4518   -2.3953 H.spc      1 <1>        0.000
     15 H          -2.8033    4.4871   -5.8224 H.spc      1 <1>        0.000
     16 H          -2.6130    5.8103   -4.6674 H.spc      1 <1>        0.000
     17 H          -2.8929    3.9428    1.1533 H.spc      1 <1>        0.000
     18 H          -0.9367    2.7583    2.1088 H.spc      1 <1>        0.000
     19 H           0.1599    0.9293    0.8263 H.spc      1 <1>        0.000
     20 H          -0.6932    0.3098   -1.4283 H.spc      1 <1>        0.000
     21 H          -2.6377    1.5082   -2.3888 H.spc      1 <1>        0.000
@<TRIPOS>BOND
     1    5    6 2  
     2   12   13 ar 
     3   10   11 ar 
     4    4    5 am 
     5    5    7 am 
     6    9   10 ar 
     7    8   13 ar 
     8    1    8 1  
     9    8    9 ar 
    10    1    2 2  
    11    1    3 2  
    12    1    4 1  
    13   11   12 ar 
    14    4   14 1  
    15    7   15 1  
    16    7   16 1  
    17    9   17 1  
    18   10   18 1  
    19   11   19 1  
    20   12   20 1  
    21   13   21 1  
# Name:          frag5-648-27/41815 -- energy: -2.234362
# Creation time: Sat Jun  5 12:53:01 2010


@<TRIPOS>MOLECULE
frag5-648-27/41815 -- energy: -2.234362
   21    21     1     1     1
SMALL
USER_CHARGES


@<TRIPOS>ATOM
      1 S1         -4.5360    3.5209   -1.3798 S.o2       1 <1>        0.000
      2 O1         -4.5583    4.8940   -0.9045 O.2        1 <1>        0.000
      3 O2         -5.6673    2.6558   -1.1040 O.2        1 <1>        0.000
      4 N1         -4.2206    3.5173   -3.0865 N.am       1 <1>        0.000
      5 C1         -3.0991    4.0980   -3.6034 C.2        1 <1>        0.000
      6 O3         -2.4255    4.8214   -2.8876 O.2        1 <1>        0.000
      7 N2         -2.7466    3.8654   -4.8780 N.am       1 <1>        0.000
      8 C8         -3.0645    2.7282   -0.8068 C.ar       1 <1>        0.000
      9 C9         -2.5089    3.0269    0.4442 C.ar       1 <1>        0.000
     10 C10        -1.3372    2.4056    0.8719 C.ar       1 <1>        0.000
     11 C11        -0.7004    1.4749    0.0467 C.ar       1 <1>        0.000
     12 C12        -1.2346    1.1768   -1.2096 C.ar       1 <1>        0.000
     13 C13        -2.4029    1.8048   -1.6331 C.ar       1 <1>        0.000
     14 H          -4.8876    3.0717   -3.7165 H.spc      1 <1>        0.000
     15 H          -1.9050    4.2959   -5.2611 H.spc      1 <1>        0.000
     16 H          -3.3205    3.2582   -5.4632 H.spc      1 <1>        0.000
     17 H          -2.9993    3.7544    1.0910 H.spc      1 <1>        0.000
     18 H          -0.9179    2.6453    1.8490 H.spc      1 <1>        0.000
     19 H           0.2119    0.9821    0.3826 H.spc      1 <1>        0.000
     20 H          -0.7377    0.4541   -1.8568 H.spc      1 <1>        0.000
     21 H          -2.8093    1.5770   -2.6185 H.spc      1 <1>        0.000
@<TRIPOS>BOND
     1    5    6 2  
     2   12   13 ar 
     3   10   11 ar 
     4    4    5 am 
     5    5    7 am 
     6    9   10 ar 
     7    8   13 ar 
     8    1    8 1  
     9    8    9 ar 
    10    1    2 2  
    11    1    3 2  
    12    1    4 1  
    13   11   12 ar 
    14    4   14 1  
    15    7   15 1  
    16    7   16 1  
    17    9   17 1  
    18   10   18 1  
    19   11   19 1  
    20   12   20 1  
    21   13   21 1  
# Name:          frag5-648-27/41815 -- energy: -2.162813
# Creation time: Sat Jun  5 12:53:01 2010


@<TRIPOS>MOLECULE
frag5-648-27/41815 -- energy: -2.162813
   21    21     1     1     1
SMALL
USER_CHARGES


@<TRIPOS>ATOM
      1 S1         -4.5125    3.4485   -1.4418 S.o2       1 <1>        0.000
      2 O1         -5.2174    4.0943   -0.3499 O.2        1 <1>        0.000
      3 O2         -5.2219    2.4902   -2.2747 O.2        1 <1>        0.000
      4 N1         -3.8038    4.6558   -2.4601 N.am       1 <1>        0.000
      5 C1         -3.0643    4.3199   -3.5599 C.2        1 <1>        0.000
      6 O3         -2.7243    3.1567   -3.7053 O.2        1 <1>        0.000
      7 N2         -2.7314    5.2571   -4.4583 N.am       1 <1>        0.000
      8 C8         -3.0510    2.6815   -0.8212 C.ar       1 <1>        0.000
      9 C9         -3.0427    1.3492   -0.3856 C.ar       1 <1>        0.000
     10 C10        -1.8813    0.7648    0.1129 C.ar       1 <1>        0.000
     11 C11        -0.7013    1.5097    0.1823 C.ar       1 <1>        0.000
     12 C12        -0.6921    2.8419   -0.2389 C.ar       1 <1>        0.000
     13 C13        -1.8579    3.4204   -0.7300 C.ar       1 <1>        0.000
     14 H          -3.9412    5.6410   -2.2343 H.spc      1 <1>        0.000
     15 H          -2.1845    5.0034   -5.2811 H.spc      1 <1>        0.000
     16 H          -3.0249    6.2240   -4.3192 H.spc      1 <1>        0.000
     17 H          -3.9593    0.7617   -0.4379 H.spc      1 <1>        0.000
     18 H          -1.8927   -0.2722    0.4485 H.spc      1 <1>        0.000
     19 H           0.2111    1.0521    0.5646 H.spc      1 <1>        0.000
     20 H           0.2262    3.4264   -0.1828 H.spc      1 <1>        0.000
     21 H          -1.8465    4.4626   -1.0491 H.spc      1 <1>        0.000
@<TRIPOS>BOND
     1    5    6 2  
     2   12   13 ar 
     3   10   11 ar 
     4    4    5 am 
     5    5    7 am 
     6    9   10 ar 
     7    8   13 ar 
     8    1    8 1  
     9    8    9 ar 
    10    1    2 2  
    11    1    3 2  
    12    1    4 1  
    13   11   12 ar 
    14    4   14 1  
    15    7   15 1  
    16    7   16 1  
    17    9   17 1  
    18   10   18 1  
    19   11   19 1  
    20   12   20 1  
    21   13   21 1  
# Name:          frag5-648-27/41815 -- energy: -1.737439
# Creation time: Sat Jun  5 12:53:01 2010


@<TRIPOS>MOLECULE
frag5-648-27/41815 -- energy: -1.737439
   21    21     1     1     1
SMALL
USER_CHARGES


@<TRIPOS>ATOM
      1 S1         -4.0547    3.3680   -1.6040 S.o2       1 <1>        0.000
      2 O1         -4.3389    4.6707   -1.0261 O.2        1 <1>        0.000
      3 O2         -5.1462    2.4324   -1.8135 O.2        1 <1>        0.000
      4 N1         -3.2050    3.5860   -3.1032 N.am       1 <1>        0.000
      5 C1         -3.6031    4.5102   -4.0195 C.2        1 <1>        0.000
      6 O3         -4.3266    5.4252   -3.6624 O.2        1 <1>        0.000
      7 N2         -3.2069    4.4031   -5.2997 N.am       1 <1>        0.000
      8 C8         -2.7963    2.5692   -0.6595 C.ar       1 <1>        0.000
      9 C9         -2.3535    3.0955    0.5616 C.ar       1 <1>        0.000
     10 C10        -1.3437    2.4641    1.2857 C.ar       1 <1>        0.000
     11 C11        -0.7589    1.2946    0.7926 C.ar       1 <1>        0.000
     12 C12        -1.1809    0.7663   -0.4303 C.ar       1 <1>        0.000
     13 C13        -2.1872    1.4049   -1.1522 C.ar       1 <1>        0.000
     14 H          -2.3885    3.0078   -3.3015 H.spc      1 <1>        0.000
     15 H          -3.5113    5.0924   -5.9872 H.spc      1 <1>        0.000
     16 H          -2.6019    3.6325   -5.5836 H.spc      1 <1>        0.000
     17 H          -2.8040    4.0091    0.9495 H.spc      1 <1>        0.000
     18 H          -1.0105    2.8821    2.2356 H.spc      1 <1>        0.000
     19 H           0.0255    0.7951    1.3612 H.spc      1 <1>        0.000
     20 H          -0.7237   -0.1437   -0.8188 H.spc      1 <1>        0.000
     21 H          -2.5051    0.9952   -2.1110 H.spc      1 <1>        0.000
@<TRIPOS>BOND
     1    5    6 2  
     2   12   13 ar 
     3   10   11 ar 
     4    4    5 am 
     5    5    7 am 
     6    9   10 ar 
     7    8   13 ar 
     8    1    8 1  
     9    8    9 ar 
    10    1    2 2  
    11    1    3 2  
    12    1    4 1  
    13   11   12 ar 
    14    4   14 1  
    15    7   15 1  
    16    7   16 1  
    17    9   17 1  
    18   10   18 1  
    19   11   19 1  
    20   12   20 1  
    21   13   21 1  
# Name:          frag5-648-27/41815 -- energy: -1.702660
# Creation time: Sat Jun  5 12:53:01 2010


@<TRIPOS>MOLECULE
frag5-648-27/41815 -- energy: -1.702660
   21    21     1     1     1
SMALL
USER_CHARGES


@<TRIPOS>ATOM
      1 S1         -4.0527    3.3869   -1.5969 S.o2       1 <1>        0.000
      2 O1         -4.6857    4.4316   -0.8090 O.2        1 <1>        0.000
      3 O2         -4.8806    2.3541   -2.1969 O.2        1 <1>        0.000
      4 N1         -3.0827    4.1205   -2.8334 N.am       1 <1>        0.000
      5 C1         -3.6039    4.4554   -4.0468 C.2        1 <1>        0.000
      6 O3         -4.5895    3.8614   -4.4510 O.2        1 <1>        0.000
      7 N2         -3.0411    5.4356   -4.7729 N.am       1 <1>        0.000
      8 C8         -2.7890    2.6148   -0.6404 C.ar       1 <1>        0.000
      9 C9         -2.0051    3.3512    0.2612 C.ar       1 <1>        0.000
     10 C10        -0.9936    2.7353    0.9953 C.ar       1 <1>        0.000
     11 C11        -0.7486    1.3690    0.8345 C.ar       1 <1>        0.000
     12 C12        -1.5118    0.6257   -0.0696 C.ar       1 <1>        0.000
     13 C13        -2.5178    1.2486   -0.8044 C.ar       1 <1>        0.000
     14 H          -2.0971    4.3059   -2.6475 H.spc      1 <1>        0.000
     15 H          -3.4378    5.6929   -5.6767 H.spc      1 <1>        0.000
     16 H          -2.2170    5.9225   -4.4204 H.spc      1 <1>        0.000
     17 H          -2.1898    4.4178    0.3887 H.spc      1 <1>        0.000
     18 H          -0.3941    3.3186    1.6942 H.spc      1 <1>        0.000
     19 H           0.0370    0.8837    1.4137 H.spc      1 <1>        0.000
     20 H          -1.3203   -0.4394   -0.1996 H.spc      1 <1>        0.000
     21 H          -3.1023    0.6663   -1.5167 H.spc      1 <1>        0.000
@<TRIPOS>BOND
     1    5    6 2  
     2   12   13 ar 
     3   10   11 ar 
     4    4    5 am 
     5    5    7 am 
     6    9   10 ar 
     7    8   13 ar 
     8    1    8 1  
     9    8    9 ar 
    10    1    2 2  
    11    1    3 2  
    12    1    4 1  
    13   11   12 ar 
    14    4   14 1  
    15    7   15 1  
    16    7   16 1  
    17    9   17 1  
    18   10   18 1  
    19   11   19 1  
    20   12   20 1  
    21   13   21 1  
# Name:          frag5-648-27/41815 -- energy: -1.856446
# Creation time: Sat Jun  5 12:53:01 2010


@<TRIPOS>MOLECULE
frag5-648-27/41815 -- energy: -1.856446
   21    21     1     1     1
SMALL
USER_CHARGES


@<TRIPOS>ATOM
      1 S1         -4.0587    3.1317   -1.7586 S.o2       1 <1>        0.000
      2 O1         -4.7433    4.1897   -1.0345 O.2        1 <1>        0.000
      3 O2         -4.8342    2.0404   -2.3212 O.2        1 <1>        0.000
      4 N1         -3.0892    3.8407   -3.0156 N.am       1 <1>        0.000
      5 C1         -3.6061    4.7532   -3.8811 C.2        1 <1>        0.000
      6 O3         -4.8144    4.9220   -3.9140 O.2        1 <1>        0.000
      7 N2         -2.7901    5.4596   -4.6839 N.am       1 <1>        0.000
      8 C8         -2.7826    2.4566   -0.7415 C.ar       1 <1>        0.000
      9 C9         -2.9021    1.1835   -0.1694 C.ar       1 <1>        0.000
     10 C10        -1.8904    0.6695    0.6407 C.ar       1 <1>        0.000
     11 C11        -0.7426    1.4270    0.8886 C.ar       1 <1>        0.000
     12 C12        -0.6157    2.7025    0.3321 C.ar       1 <1>        0.000
     13 C13        -1.6325    3.2137   -0.4724 C.ar       1 <1>        0.000
     14 H          -2.1110    3.5661   -3.1058 H.spc      1 <1>        0.000
     15 H          -3.1794    6.1461   -5.3301 H.spc      1 <1>        0.000
     16 H          -1.7820    5.3088   -4.6464 H.spc      1 <1>        0.000
     17 H          -3.7954    0.5885   -0.3596 H.spc      1 <1>        0.000
     18 H          -1.9947   -0.3224    1.0803 H.spc      1 <1>        0.000
     19 H           0.0527    1.0235    1.5153 H.spc      1 <1>        0.000
     20 H           0.2771    3.2967    0.5269 H.spc      1 <1>        0.000
     21 H          -1.5331    4.2126   -0.8972 H.spc      1 <1>        0.000
@<TRIPOS>BOND
     1    5    6 2  
     2   12   13 ar 
     3   10   11 ar 
     4    4    5 am 
     5    5    7 am 
     6    9   10 ar 
     7    8   13 ar 
     8    1    8 1  
     9    8    9 ar 
    10    1    2 2  
    11    1    3 2  
    12    1    4 1  
    13   11   12 ar 
    14    4   14 1  
    15    7   15 1  
    16    7   16 1  
    17    9   17 1  
    18   10   18 1  
    19   11   19 1  
    20   12   20 1  
    21   13   21 1  
# Name:          frag5-648-27/41815 -- energy: -1.066547
# Creation time: Sat Jun  5 12:53:01 2010


@<TRIPOS>MOLECULE
frag5-648-27/41815 -- energy: -1.066547
   21    21     1     1     1
SMALL
USER_CHARGES


@<TRIPOS>ATOM
      1 S1         -4.0645    3.3392   -1.6510 S.o2       1 <1>        0.000
      2 O1         -4.8775    4.1924   -0.8012 O.2        1 <1>        0.000
      3 O2         -4.7279    2.3275   -2.4674 O.2        1 <1>        0.000
      4 N1         -3.0905    4.3128   -2.6725 N.am       1 <1>        0.000
      5 C1         -3.4792    4.7007   -3.9272 C.2        1 <1>        0.000
      6 O3         -3.3840    5.8565   -4.2699 O.2        1 <1>        0.000
      7 N2         -3.9974    3.7627   -4.7433 N.am       1 <1>        0.000
      8 C8         -2.8306    2.5569   -0.6861 C.ar       1 <1>        0.000
      9 C9         -1.7592    3.2884   -0.1346 C.ar       1 <1>        0.000
     10 C10        -0.7661    2.6647    0.6105 C.ar       1 <1>        0.000
     11 C11        -0.8183    1.2846    0.8194 C.ar       1 <1>        0.000
     12 C12        -1.8613    0.5352    0.2706 C.ar       1 <1>        0.000
     13 C13        -2.8455    1.1685   -0.4778 C.ar       1 <1>        0.000
     14 H          -2.1793    4.6172   -2.3298 H.spc      1 <1>        0.000
     15 H          -4.3211    4.0203   -5.6756 H.spc      1 <1>        0.000
     16 H          -4.0661    2.7948   -4.4290 H.spc      1 <1>        0.000
     17 H          -1.7088    4.3652   -0.2960 H.spc      1 <1>        0.000
     18 H           0.0513    3.2506    1.0308 H.spc      1 <1>        0.000
     19 H          -0.0456    0.7928    1.4103 H.spc      1 <1>        0.000
     20 H          -1.9029   -0.5424    0.4289 H.spc      1 <1>        0.000
     21 H          -3.6482    0.5736   -0.9135 H.spc      1 <1>        0.000
@<TRIPOS>BOND
     1    5    6 2  
     2   12   13 ar 
     3   10   11 ar 
     4    4    5 am 
     5    5    7 am 
     6    9   10 ar 
     7    8   13 ar 
     8    1    8 1  
     9    8    9 ar 
    10    1    2 2  
    11    1    3 2  
    12    1    4 1  
    13   11   12 ar 
    14    4   14 1  
    15    7   15 1  
    16    7   16 1  
    17    9   17 1  
    18   10   18 1  
    19   11   19 1  
    20   12   20 1  
    21   13   21 1  
# Name:          frag5-648-27/41815 -- energy: -1.806959
# Creation time: Sat Jun  5 12:53:01 2010


@<TRIPOS>MOLECULE
frag5-648-27/41815 -- energy: -1.806959
   21    21     1     1     1
SMALL
USER_CHARGES


@<TRIPOS>ATOM
      1 S1         -4.5527    3.3983   -1.4954 S.o2       1 <1>        0.000
      2 O1         -4.7140    4.7197   -0.9058 O.2        1 <1>        0.000
      3 O2         -5.6441    2.4466   -1.4020 O.2        1 <1>        0.000
      4 N1         -4.0907    3.5757   -3.1506 N.am       1 <1>        0.000
      5 C1         -2.9893    4.3004   -3.5177 C.2        1 <1>        0.000
      6 O3         -1.9202    4.0638   -2.9838 O.2        1 <1>        0.000
      7 N2         -3.1082    5.2748   -4.4314 N.am       1 <1>        0.000
      8 C8         -3.0924    2.6502   -0.8540 C.ar       1 <1>        0.000
      9 C9         -2.0097    3.4216   -0.3972 C.ar       1 <1>        0.000
     10 C10        -0.8509    2.8190    0.0816 C.ar       1 <1>        0.000
     11 C11        -0.7523    1.4256    0.1113 C.ar       1 <1>        0.000
     12 C12        -1.8125    0.6417   -0.3508 C.ar       1 <1>        0.000
     13 C13        -2.9650    1.2525   -0.8347 C.ar       1 <1>        0.000
     14 H          -4.6540    3.1283   -3.8737 H.spc      1 <1>        0.000
     15 H          -2.2948    5.8331   -4.6904 H.spc      1 <1>        0.000
     16 H          -4.0120    5.4577   -4.8673 H.spc      1 <1>        0.000
     17 H          -2.0792    4.5092   -0.4185 H.spc      1 <1>        0.000
     18 H          -0.0214    3.4327    0.4329 H.spc      1 <1>        0.000
     19 H           0.1508    0.9506    0.4946 H.spc      1 <1>        0.000
     20 H          -1.7369   -0.4455   -0.3322 H.spc      1 <1>        0.000
     21 H          -3.7832    0.6350   -1.2053 H.spc      1 <1>        0.000
@<TRIPOS>BOND
     1    5    6 2  
     2   12   13 ar 
     3   10   11 ar 
     4    4    5 am 
     5    5    7 am 
     6    9   10 ar 
     7    8   13 ar 
     8    1    8 1  
     9    8    9 ar 
    10    1    2 2  
    11    1    3 2  
    12    1    4 1  
    13   11   12 ar 
    14    4   14 1  
    15    7   15 1  
    16    7   16 1  
    17    9   17 1  
    18   10   18 1  
    19   11   19 1  
    20   12   20 1  
    21   13   21 1  
# Name:          frag5-648-27/41815 -- energy: -1.793256
# Creation time: Sat Jun  5 12:53:01 2010


@<TRIPOS>MOLECULE
frag5-648-27/41815 -- energy: -1.793256
   21    21     1     1     1
SMALL
USER_CHARGES


@<TRIPOS>ATOM
      1 S1         -4.1313    3.7491   -1.3997 S.o2       1 <1>        0.000
      2 O1         -4.5473    4.8177   -0.5084 O.2        1 <1>        0.000
      3 O2         -5.1297    2.8129   -1.8929 O.2        1 <1>        0.000
      4 N1         -3.2862    4.4292   -2.7489 N.am       1 <1>        0.000
      5 C1         -3.4979    3.9888   -4.0241 C.2        1 <1>        0.000
      6 O3         -3.8622    2.8378   -4.1968 O.2        1 <1>        0.000
      7 N2         -3.3198    4.8231   -5.0592 N.am       1 <1>        0.000
      8 C8         -2.8252    2.8346   -0.6514 C.ar       1 <1>        0.000
      9 C9         -1.7062    2.4231   -1.3978 C.ar       1 <1>        0.000
     10 C10        -0.6813    1.6911   -0.8052 C.ar       1 <1>        0.000
     11 C11        -0.7576    1.3568    0.5494 C.ar       1 <1>        0.000
     12 C12        -1.8668    1.7492    1.3028 C.ar       1 <1>        0.000
     13 C13        -2.8905    2.4765    0.7016 C.ar       1 <1>        0.000
     14 H          -2.6128    5.1781   -2.5872 H.spc      1 <1>        0.000
     15 H          -3.4895    4.4983   -6.0111 H.spc      1 <1>        0.000
     16 H          -3.0147    5.7823   -4.8944 H.spc      1 <1>        0.000
     17 H          -1.6408    2.6810   -2.4548 H.spc      1 <1>        0.000
     18 H           0.1794    1.3792   -1.3968 H.spc      1 <1>        0.000
     19 H           0.0474    0.7905    1.0178 H.spc      1 <1>        0.000
     20 H          -1.9306    1.4866    2.3588 H.spc      1 <1>        0.000
     21 H          -3.7569    2.7722    1.2932 H.spc      1 <1>        0.000
@<TRIPOS>BOND
     1    5    6 2  
     2   12   13 ar 
     3   10   11 ar 
     4    4    5 am 
     5    5    7 am 
     6    9   10 ar 
     7    8   13 ar 
     8    1    8 1  
     9    8    9 ar 
    10    1    2 2  
    11    1    3 2  
    12    1    4 1  
    13   11   12 ar 
    14    4   14 1  
    15    7   15 1  
    16    7   16 1  
    17    9   17 1  
    18   10   18 1  
    19   11   19 1  
    20   12   20 1  
    21   13   21 1  
# Name:          frag5-648-27/41815 -- energy: -1.763026
# Creation time: Sat Jun  5 12:53:01 2010


@<TRIPOS>MOLECULE
frag5-648-27/41815 -- energy: -1.763026
   21    21     1     1     1
SMALL
USER_CHARGES


@<TRIPOS>ATOM
      1 S1         -3.9709    3.5561   -1.5370 S.o2       1 <1>        0.000
      2 O1         -4.3068    4.7932   -0.8501 O.2        1 <1>        0.000
      3 O2         -5.0323    2.6213   -1.8686 O.2        1 <1>        0.000
      4 N1         -3.0809    3.9338   -2.9772 N.am       1 <1>        0.000
      5 C1         -3.7090    4.2355   -4.1470 C.2        1 <1>        0.000
      6 O3         -4.8010    3.7430   -4.3769 O.2        1 <1>        0.000
      7 N2         -3.1327    5.0767   -5.0221 N.am       1 <1>        0.000
      8 C8         -2.7269    2.6999   -0.6272 C.ar       1 <1>        0.000
      9 C9         -1.7947    1.8734   -1.2770 C.ar       1 <1>        0.000
     10 C10        -0.8213    1.1899   -0.5518 C.ar       1 <1>        0.000
     11 C11        -0.7657    1.3231    0.8381 C.ar       1 <1>        0.000
     12 C12        -1.6927    2.1337    1.4983 C.ar       1 <1>        0.000
     13 C13        -2.6669    2.8103    0.7677 C.ar       1 <1>        0.000
     14 H          -2.0614    3.9298   -2.9470 H.spc      1 <1>        0.000
     15 H          -3.6089    5.3115   -5.8930 H.spc      1 <1>        0.000
     16 H          -2.2191    5.4804   -4.8155 H.spc      1 <1>        0.000
     17 H          -1.8336    1.7658   -2.3610 H.spc      1 <1>        0.000
     18 H          -0.1039    0.5519   -1.0679 H.spc      1 <1>        0.000
     19 H          -0.0000    0.7952    1.4066 H.spc      1 <1>        0.000
     20 H          -1.6537    2.2364    2.5827 H.spc      1 <1>        0.000
     21 H          -3.3927    3.4344    1.2890 H.spc      1 <1>        0.000
@<TRIPOS>BOND
     1    5    6 2  
     2   12   13 ar 
     3   10   11 ar 
     4    4    5 am 
     5    5    7 am 
     6    9   10 ar 
     7    8   13 ar 
     8    1    8 1  
     9    8    9 ar 
    10    1    2 2  
    11    1    3 2  
    12    1    4 1  
    13   11   12 ar 
    14    4   14 1  
    15    7   15 1  
    16    7   16 1  
    17    9   17 1  
    18   10   18 1  
    19   11   19 1  
    20   12   20 1  
    21   13   21 1  
# Name:          frag5-648-27/41815 -- energy: -2.001281
# Creation time: Sat Jun  5 12:53:01 2010


@<TRIPOS>MOLECULE
frag5-648-27/41815 -- energy: -2.001281
   21    21     1     1     1
SMALL
USER_CHARGES


@<TRIPOS>ATOM
      1 S1         -4.2511    3.1133   -1.7653 S.o2       1 <1>        0.000
      2 O1         -4.7041    4.3340   -1.1163 O.2        1 <1>        0.000
      3 O2         -5.2173    2.0684   -2.0548 O.2        1 <1>        0.000
      4 N1         -3.4127    3.5273   -3.2239 N.am       1 <1>        0.000
      5 C1         -3.2975    4.8203   -3.6422 C.2        1 <1>        0.000
      6 O3         -3.0579    5.6894   -2.8208 O.2        1 <1>        0.000
      7 N2         -3.4681    5.1218   -4.9395 N.am       1 <1>        0.000
      8 C8         -2.9234    2.4184   -0.8383 C.ar       1 <1>        0.000
      9 C9         -3.1122    1.3111    0.0004 C.ar       1 <1>        0.000
     10 C10        -2.0535    0.7801    0.7336 C.ar       1 <1>        0.000
     11 C11        -0.7825    1.3525    0.6367 C.ar       1 <1>        0.000
     12 C12        -0.5788    2.4622   -0.1873 C.ar       1 <1>        0.000
     13 C13        -1.6427    2.9912   -0.9129 C.ar       1 <1>        0.000
     14 H          -2.9944    2.7847   -3.7843 H.spc      1 <1>        0.000
     15 H          -3.3979    6.0904   -5.2515 H.spc      1 <1>        0.000
     16 H          -3.6679    4.3823   -5.6130 H.spc      1 <1>        0.000
     17 H          -4.1010    0.8594    0.0799 H.spc      1 <1>        0.000
     18 H          -2.2163   -0.0808    1.3821 H.spc      1 <1>        0.000
     19 H           0.0491    0.9337    1.2034 H.spc      1 <1>        0.000
     20 H           0.4109    2.9128   -0.2619 H.spc      1 <1>        0.000
     21 H          -1.4798    3.8621   -1.5478 H.spc      1 <1>        0.000
@<TRIPOS>BOND
     1    5    6 2  
     2   12   13 ar 
     3   10   11 ar 
     4    4    5 am 
     5    5    7 am 
     6    9   10 ar 
     7    8   13 ar 
     8    1    8 1  
     9    8    9 ar 
    10    1    2 2  
    11    1    3 2  
    12    1    4 1  
    13   11   12 ar 
    14    4   14 1  
    15    7   15 1  
    16    7   16 1  
    17    9   17 1  
    18   10   18 1  
    19   11   19 1  
    20   12   20 1  
    21   13   21 1  
