#      Rotatable Fragment
#      Build by yxyuan
#
# Name:          frag4-479-33/48856
# Creation time: Sat Jun  5 12:52:49 2010


@<TRIPOS>MOLECULE
frag4-479-33/48856
   36    40     1     1     1
SMALL
USER_CHARGES


@<TRIPOS>ATOM
      1 N1          3.1569   -1.2272   -2.6434 N.4        1 <1>        0.000
      2 C1          1.8010   -0.7332   -2.2990 C.3        1 <1>        0.000
      3 C2          0.8712   -1.8967   -1.8605 C.3        1 <1>        0.000
      4 C3         -0.5257   -1.3425   -1.5524 C.ar       1 <1>        0.000
      5 C4         -0.6355   -0.0763   -0.9668 C.ar       1 <1>        0.000
      6 C5         -1.9018    0.5009   -0.8126 C.ar       1 <1>        0.000
      7 C6         -3.0514   -0.2304   -1.1238 C.ar       1 <1>        0.000
      8 C7         -2.9393   -1.5265   -1.6335 C.ar       1 <1>        0.000
      9 C15         1.8206    0.3300   -1.1926 C.ar       1 <1>        0.000
     10 C8         -1.6751   -2.0789   -1.8571 C.ar       1 <1>        0.000
     11 C10         0.6100    0.6095   -0.5396 C.ar       1 <1>        0.000
     12 C11         0.6615    1.5344    0.5059 C.ar       1 <1>        0.000
     13 C12         1.8191    2.1954    0.8354 C.ar       1 <1>        0.000
     14 C13         3.0194    1.9595    0.1676 C.ar       1 <1>        0.000
     15 C14         3.0105    0.9930   -0.8480 C.ar       1 <1>        0.000
     16 C16         4.3280    0.6720   -1.5627 C.3        1 <1>        0.000
     17 C17         4.0856   -0.0984   -2.8846 C.3        1 <1>        0.000
     18 O3          1.6526    3.0786    1.8822 O.3        1 <1>        0.000
     19 C18         0.1910    3.0879    1.9130 C.3        1 <1>        0.000
     20 O4         -0.3932    1.8842    1.3245 O.3        1 <1>        0.000
     21 H           3.5111   -1.7827   -1.8647 H.spc      1 <1>        0.000
     22 H           3.0955   -1.7885   -3.4928 H.spc      1 <1>        0.000
     23 H           1.4144   -0.2738   -3.2087 H.spc      1 <1>        0.000
     24 H           1.2791   -2.3730   -0.9689 H.spc      1 <1>        0.000
     25 H           0.8031   -2.6310   -2.6631 H.spc      1 <1>        0.000
     26 H          -1.9913    1.5244   -0.4485 H.spc      1 <1>        0.000
     27 H          -4.0361    0.2106   -0.9688 H.spc      1 <1>        0.000
     28 H          -3.8356   -2.1054   -1.8562 H.spc      1 <1>        0.000
     29 H          -1.5849   -3.0840   -2.2691 H.spc      1 <1>        0.000
     30 H           3.9280    2.5042    0.4244 H.spc      1 <1>        0.000
     31 H           4.8302    1.6104   -1.7978 H.spc      1 <1>        0.000
     32 H           4.9333    0.0474   -0.9057 H.spc      1 <1>        0.000
     33 H           3.6493    0.5767   -3.6208 H.spc      1 <1>        0.000
     34 H           5.0346   -0.4851   -3.2560 H.spc      1 <1>        0.000
     35 H          -0.1215    3.1360    2.9561 H.spc      1 <1>        0.000
     36 H          -0.1506    3.9443    1.3317 H.spc      1 <1>        0.000
@<TRIPOS>BOND
     1    8   10 ar 
     2    6    7 ar 
     3    1   17 1  
     4    5    6 ar 
     5    5   11 1  
     6    4   10 ar 
     7    7    8 ar 
     8    2    3 1  
     9    2    9 1  
    10    4    5 ar 
    11    3    4 1  
    12   19   20 1  
    13   18   19 1  
    14   16   17 1  
    15   15    9 ar 
    16   15   16 1  
    17   14   15 ar 
    18   13   18 1  
    19   13   14 ar 
    20   12   20 1  
    21   12   13 ar 
    22   11    9 ar 
    23   11   12 ar 
    24    1    2 1  
    25    1   21 1  
    26    1   22 1  
    27    2   23 1  
    28    3   24 1  
    29    3   25 1  
    30    6   26 1  
    31    7   27 1  
    32    8   28 1  
    33   10   29 1  
    34   14   30 1  
    35   16   31 1  
    36   16   32 1  
    37   17   33 1  
    38   17   34 1  
    39   19   35 1  
    40   19   36 1  
# Name:          frag4-479-33/48856 -- energy: -4.241596
# Creation time: Sat Jun  5 12:52:49 2010


@<TRIPOS>MOLECULE
frag4-479-33/48856 -- energy: -4.241596
   36    40     1     1     1
SMALL
USER_CHARGES


@<TRIPOS>ATOM
      1 N1          3.1569   -1.2272   -2.6434 N.4        1 <1>        0.000
      2 C1          1.8010   -0.7332   -2.2990 C.3        1 <1>        0.000
      3 C2          0.8712   -1.8967   -1.8605 C.3        1 <1>        0.000
      4 C3         -0.5257   -1.3425   -1.5524 C.ar       1 <1>        0.000
      5 C4         -0.6355   -0.0763   -0.9668 C.ar       1 <1>        0.000
      6 C5         -1.9018    0.5009   -0.8126 C.ar       1 <1>        0.000
      7 C6         -3.0514   -0.2304   -1.1238 C.ar       1 <1>        0.000
      8 C7         -2.9393   -1.5265   -1.6335 C.ar       1 <1>        0.000
      9 C15         1.8206    0.3300   -1.1926 C.ar       1 <1>        0.000
     10 C8         -1.6751   -2.0789   -1.8571 C.ar       1 <1>        0.000
     11 C10         0.6100    0.6095   -0.5396 C.ar       1 <1>        0.000
     12 C11         0.6615    1.5344    0.5059 C.ar       1 <1>        0.000
     13 C12         1.8191    2.1954    0.8354 C.ar       1 <1>        0.000
     14 C13         3.0194    1.9595    0.1676 C.ar       1 <1>        0.000
     15 C14         3.0105    0.9930   -0.8480 C.ar       1 <1>        0.000
     16 C16         4.3280    0.6720   -1.5627 C.3        1 <1>        0.000
     17 C17         4.0856   -0.0984   -2.8846 C.3        1 <1>        0.000
     18 O3          1.6526    3.0786    1.8822 O.3        1 <1>        0.000
     19 C18         0.1910    3.0879    1.9130 C.3        1 <1>        0.000
     20 O4         -0.3932    1.8842    1.3245 O.3        1 <1>        0.000
     21 H           3.5111   -1.7827   -1.8647 H.spc      1 <1>        0.000
     22 H           3.0955   -1.7885   -3.4928 H.spc      1 <1>        0.000
     23 H           1.4144   -0.2738   -3.2087 H.spc      1 <1>        0.000
     24 H           1.2791   -2.3730   -0.9689 H.spc      1 <1>        0.000
     25 H           0.8031   -2.6310   -2.6631 H.spc      1 <1>        0.000
     26 H          -1.9913    1.5244   -0.4485 H.spc      1 <1>        0.000
     27 H          -4.0361    0.2106   -0.9688 H.spc      1 <1>        0.000
     28 H          -3.8356   -2.1054   -1.8562 H.spc      1 <1>        0.000
     29 H          -1.5849   -3.0840   -2.2691 H.spc      1 <1>        0.000
     30 H           3.9280    2.5042    0.4244 H.spc      1 <1>        0.000
     31 H           4.8302    1.6104   -1.7978 H.spc      1 <1>        0.000
     32 H           4.9333    0.0474   -0.9057 H.spc      1 <1>        0.000
     33 H           3.6493    0.5767   -3.6208 H.spc      1 <1>        0.000
     34 H           5.0346   -0.4851   -3.2560 H.spc      1 <1>        0.000
     35 H          -0.1215    3.1360    2.9561 H.spc      1 <1>        0.000
     36 H          -0.1506    3.9443    1.3317 H.spc      1 <1>        0.000
@<TRIPOS>BOND
     1    8   10 ar 
     2    6    7 ar 
     3    1   17 1  
     4    5    6 ar 
     5    5   11 1  
     6    4   10 ar 
     7    7    8 ar 
     8    2    3 1  
     9    2    9 1  
    10    4    5 ar 
    11    3    4 1  
    12   19   20 1  
    13   18   19 1  
    14   16   17 1  
    15   15    9 ar 
    16   15   16 1  
    17   14   15 ar 
    18   13   18 1  
    19   13   14 ar 
    20   12   20 1  
    21   12   13 ar 
    22   11    9 ar 
    23   11   12 ar 
    24    1    2 1  
    25    1   21 1  
    26    1   22 1  
    27    2   23 1  
    28    3   24 1  
    29    3   25 1  
    30    6   26 1  
    31    7   27 1  
    32    8   28 1  
    33   10   29 1  
    34   14   30 1  
    35   16   31 1  
    36   16   32 1  
    37   17   33 1  
    38   17   34 1  
    39   19   35 1  
    40   19   36 1  
