#      Rotatable Fragment
#      Build by yxyuan
#
# Name:          frag2-072-6/319335
# Creation time: Sat Jun  5 12:51:57 2010


@<TRIPOS>MOLECULE
frag2-072-6/319335
   28    31     1     1     1
SMALL
USER_CHARGES


@<TRIPOS>ATOM
      1 C1          0.4993    0.0766    0.0211 C.ar       1 <1>        0.000
      2 C2          1.8910   -0.1066    0.0066 C.ar       1 <1>        0.000
      3 C3         -0.0406    1.3509    0.2521 C.ar       1 <1>        0.000
      4 N1         -0.3348   -0.9666   -0.1859 N.ar       1 <1>        0.000
      5 C4          2.7344    0.9857    0.2234 C.ar       1 <1>        0.000
      6 C5          2.4612   -1.3678   -0.2218 C.ar       1 <1>        0.000
      7 C6         -1.4299    1.5134    0.2625 C.ar       1 <1>        0.000
      8 C7          0.8211    2.4358    0.4675 C.ar       1 <1>        0.000
      9 C15        -3.8777   -1.8317   -0.3969 C.ar       1 <1>        0.000
     10 C8         -1.6816   -0.8448   -0.1819 C.ar       1 <1>        0.000
     11 C9          2.1983    2.2490    0.4523 C.ar       1 <1>        0.000
     12 N2          4.0749    0.8119    0.2100 N.ar       1 <1>        0.000
     13 C10         3.8485   -1.5044   -0.2279 C.ar       1 <1>        0.000
     14 C11        -2.2613    0.4086    0.0445 C.ar       1 <1>        0.000
     15 C12        -2.4925   -1.9591   -0.4016 C.ar       1 <1>        0.000
     16 C13         4.6452   -0.3879   -0.0069 C.ar       1 <1>        0.000
     17 C14        -3.6583    0.5287    0.0475 C.ar       1 <1>        0.000
     18 C17        -4.4587   -0.5895   -0.1727 C.ar       1 <1>        0.000
     19 H           1.8238   -2.2352   -0.3934 H.spc      1 <1>        0.000
     20 H          -1.8638    2.4975    0.4398 H.spc      1 <1>        0.000
     21 H           0.4096    3.4290    0.6475 H.spc      1 <1>        0.000
     22 H          -4.5066   -2.7052   -0.5689 H.spc      1 <1>        0.000
     23 H           2.8621    3.0970    0.6207 H.spc      1 <1>        0.000
     24 H           4.3042   -2.4787   -0.4045 H.spc      1 <1>        0.000
     25 H          -2.0382   -2.9341   -0.5778 H.spc      1 <1>        0.000
     26 H           5.7310   -0.4834   -0.0092 H.spc      1 <1>        0.000
     27 H          -4.1195    1.5007    0.2228 H.spc      1 <1>        0.000
     28 H          -5.5441   -0.4900   -0.1692 H.spc      1 <1>        0.000
@<TRIPOS>BOND
     1   17   18 ar 
     2    4   10 ar 
     3    3    8 ar 
     4    2    5 ar 
     5   15    9 ar 
     6   13   16 ar 
     7    1    4 ar 
     8   14   17 ar 
     9    5   11 ar 
    10    9   18 ar 
    11    1    2 ar 
    12    8   11 ar 
    13    1    3 ar 
    14    5   12 ar 
    15    6   13 ar 
    16    7   14 ar 
    17   10   15 ar 
    18   10   14 ar 
    19    3    7 ar 
    20   12   16 ar 
    21    2    6 ar 
    22    6   19 1  
    23    7   20 1  
    24    8   21 1  
    25    9   22 1  
    26   11   23 1  
    27   13   24 1  
    28   15   25 1  
    29   16   26 1  
    30   17   27 1  
    31   18   28 1  
# Name:          frag2-072-6/319335 -- energy: -0.895906
# Creation time: Sat Jun  5 12:51:57 2010


@<TRIPOS>MOLECULE
frag2-072-6/319335 -- energy: -0.895906
   28    31     1     1     1
SMALL
USER_CHARGES


@<TRIPOS>ATOM
      1 C1          0.4993    0.0766    0.0211 C.ar       1 <1>        0.000
      2 C2          1.8910   -0.1066    0.0066 C.ar       1 <1>        0.000
      3 C3         -0.0406    1.3509    0.2521 C.ar       1 <1>        0.000
      4 N1         -0.3348   -0.9666   -0.1859 N.ar       1 <1>        0.000
      5 C4          2.7344    0.9857    0.2234 C.ar       1 <1>        0.000
      6 C5          2.4612   -1.3678   -0.2218 C.ar       1 <1>        0.000
      7 C6         -1.4299    1.5134    0.2625 C.ar       1 <1>        0.000
      8 C7          0.8211    2.4358    0.4675 C.ar       1 <1>        0.000
      9 C15        -3.8777   -1.8317   -0.3969 C.ar       1 <1>        0.000
     10 C8         -1.6816   -0.8448   -0.1819 C.ar       1 <1>        0.000
     11 C9          2.1983    2.2490    0.4523 C.ar       1 <1>        0.000
     12 N2          4.0749    0.8119    0.2100 N.ar       1 <1>        0.000
     13 C10         3.8485   -1.5044   -0.2279 C.ar       1 <1>        0.000
     14 C11        -2.2613    0.4086    0.0445 C.ar       1 <1>        0.000
     15 C12        -2.4925   -1.9591   -0.4016 C.ar       1 <1>        0.000
     16 C13         4.6452   -0.3879   -0.0069 C.ar       1 <1>        0.000
     17 C14        -3.6583    0.5287    0.0475 C.ar       1 <1>        0.000
     18 C17        -4.4587   -0.5895   -0.1727 C.ar       1 <1>        0.000
     19 H           1.8238   -2.2352   -0.3934 H.spc      1 <1>        0.000
     20 H          -1.8638    2.4975    0.4398 H.spc      1 <1>        0.000
     21 H           0.4096    3.4290    0.6475 H.spc      1 <1>        0.000
     22 H          -4.5066   -2.7052   -0.5689 H.spc      1 <1>        0.000
     23 H           2.8621    3.0970    0.6207 H.spc      1 <1>        0.000
     24 H           4.3042   -2.4787   -0.4045 H.spc      1 <1>        0.000
     25 H          -2.0382   -2.9341   -0.5778 H.spc      1 <1>        0.000
     26 H           5.7310   -0.4834   -0.0092 H.spc      1 <1>        0.000
     27 H          -4.1195    1.5007    0.2228 H.spc      1 <1>        0.000
     28 H          -5.5441   -0.4900   -0.1692 H.spc      1 <1>        0.000
@<TRIPOS>BOND
     1   17   18 ar 
     2    4   10 ar 
     3    3    8 ar 
     4    2    5 ar 
     5   15    9 ar 
     6   13   16 ar 
     7    1    4 ar 
     8   14   17 ar 
     9    5   11 ar 
    10    9   18 ar 
    11    1    2 ar 
    12    8   11 ar 
    13    1    3 ar 
    14    5   12 ar 
    15    6   13 ar 
    16    7   14 ar 
    17   10   15 ar 
    18   10   14 ar 
    19    3    7 ar 
    20   12   16 ar 
    21    2    6 ar 
    22    6   19 1  
    23    7   20 1  
    24    8   21 1  
    25    9   22 1  
    26   11   23 1  
    27   13   24 1  
    28   15   25 1  
    29   16   26 1  
    30   17   27 1  
    31   18   28 1  
