#      Rotatable Fragment
#      Build by yxyuan
#
# Name:          frag4-455-38/48856
# Creation time: Sat Jun  5 12:52:48 2010


@<TRIPOS>MOLECULE
frag4-455-38/48856
   21    21     1     1     1
SMALL
USER_CHARGES


@<TRIPOS>ATOM
      1 C8         -1.5531   -0.1391    2.7942 C.3        1 <1>        0.000
      2 C9         -2.3521   -1.2085    2.0888 C.3        1 <1>        0.000
      3 N5         -3.7971   -1.2151    2.2643 N.4        1 <1>        0.000
      4 C10        -4.3347   -1.6928    3.5233 C.3        1 <1>        0.000
      5 C11        -4.3152   -0.6861    4.6535 C.3        1 <1>        0.000
      6 C12        -3.4203    0.5234    4.5293 C.3        1 <1>        0.000
      7 C13        -1.9525    0.3143    4.1909 C.3        1 <1>        0.000
      8 H          -1.6790    0.7482    2.1738 H.spc      1 <1>        0.000
      9 H          -0.5643   -0.5791    2.9235 H.spc      1 <1>        0.000
     10 H          -2.1923   -1.0323    1.0251 H.spc      1 <1>        0.000
     11 H          -2.0066   -2.1518    2.5119 H.spc      1 <1>        0.000
     12 H          -4.0787   -0.2364    2.2066 H.spc      1 <1>        0.000
     13 H          -4.1499   -1.8623    1.5593 H.spc      1 <1>        0.000
     14 H          -3.7072   -2.5274    3.8358 H.spc      1 <1>        0.000
     15 H          -5.3804   -1.9422    3.3434 H.spc      1 <1>        0.000
     16 H          -5.3284   -0.2865    4.6953 H.spc      1 <1>        0.000
     17 H          -3.9340   -1.2340    5.5152 H.spc      1 <1>        0.000
     18 H          -3.4206    0.9788    5.5196 H.spc      1 <1>        0.000
     19 H          -3.8260    1.0911    3.6919 H.spc      1 <1>        0.000
     20 H          -1.5043    1.3023    4.2961 H.spc      1 <1>        0.000
     21 H          -1.6347   -0.4988    4.8435 H.spc      1 <1>        0.000
@<TRIPOS>BOND
     1    5    6 1  
     2    3    4 1  
     3    2    3 1  
     4    4    5 1  
     5    1    2 1  
     6    1    7 1  
     7    6    7 1  
     8    1    8 1  
     9    1    9 1  
    10    2   10 1  
    11    2   11 1  
    12    3   12 1  
    13    3   13 1  
    14    4   14 1  
    15    4   15 1  
    16    5   16 1  
    17    5   17 1  
    18    6   18 1  
    19    6   19 1  
    20    7   20 1  
    21    7   21 1  
# Name:          frag4-455-38/48856 -- energy: -2.167794
# Creation time: Sat Jun  5 12:52:48 2010


@<TRIPOS>MOLECULE
frag4-455-38/48856 -- energy: -2.167794
   21    21     1     1     1
SMALL
USER_CHARGES


@<TRIPOS>ATOM
      1 C8         -1.5531   -0.1391    2.7942 C.3        1 <1>        0.000
      2 C9         -2.3521   -1.2085    2.0888 C.3        1 <1>        0.000
      3 N5         -3.7971   -1.2151    2.2643 N.4        1 <1>        0.000
      4 C10        -4.3347   -1.6928    3.5233 C.3        1 <1>        0.000
      5 C11        -4.3152   -0.6861    4.6535 C.3        1 <1>        0.000
      6 C12        -3.4203    0.5234    4.5293 C.3        1 <1>        0.000
      7 C13        -1.9525    0.3143    4.1909 C.3        1 <1>        0.000
      8 H          -1.6790    0.7482    2.1738 H.spc      1 <1>        0.000
      9 H          -0.5643   -0.5791    2.9235 H.spc      1 <1>        0.000
     10 H          -2.1923   -1.0323    1.0251 H.spc      1 <1>        0.000
     11 H          -2.0066   -2.1518    2.5119 H.spc      1 <1>        0.000
     12 H          -4.0787   -0.2364    2.2066 H.spc      1 <1>        0.000
     13 H          -4.1499   -1.8623    1.5593 H.spc      1 <1>        0.000
     14 H          -3.7072   -2.5274    3.8358 H.spc      1 <1>        0.000
     15 H          -5.3804   -1.9422    3.3434 H.spc      1 <1>        0.000
     16 H          -5.3284   -0.2865    4.6953 H.spc      1 <1>        0.000
     17 H          -3.9340   -1.2340    5.5152 H.spc      1 <1>        0.000
     18 H          -3.4206    0.9788    5.5196 H.spc      1 <1>        0.000
     19 H          -3.8260    1.0911    3.6919 H.spc      1 <1>        0.000
     20 H          -1.5043    1.3023    4.2961 H.spc      1 <1>        0.000
     21 H          -1.6347   -0.4988    4.8435 H.spc      1 <1>        0.000
@<TRIPOS>BOND
     1    5    6 1  
     2    3    4 1  
     3    2    3 1  
     4    4    5 1  
     5    1    2 1  
     6    1    7 1  
     7    6    7 1  
     8    1    8 1  
     9    1    9 1  
    10    2   10 1  
    11    2   11 1  
    12    3   12 1  
    13    3   13 1  
    14    4   14 1  
    15    4   15 1  
    16    5   16 1  
    17    5   17 1  
    18    6   18 1  
    19    6   19 1  
    20    7   20 1  
    21    7   21 1  
