#      Rotatable Fragment
#      Build by yxyuan
#
# Name:          frag3-188-10/96164
# Creation time: Sat Jun  5 12:53:09 2010


@<TRIPOS>MOLECULE
frag3-188-10/96164
   13    12     1     1     1
SMALL
USER_CHARGES


@<TRIPOS>ATOM
      1 N3          0.9285   -0.4839    0.2998 N.2        1 <1>        0.000
      2 C8          1.9385   -1.2142   -0.1796 C.2        1 <1>        0.000
      3 N4          3.1795   -0.7283   -0.1762 N.am       1 <1>        0.000
      4 N5          1.7039   -2.4423   -0.6214 N.pl3      1 <1>        0.000
      5 C11         4.3987   -1.3754   -0.0313 C.2        1 <1>        0.000
      6 N6          5.4410   -0.5301   -0.0613 N.am       1 <1>        0.000
      7 O3          4.3568   -2.5733    0.1423 O.2        1 <1>        0.000
      8 H          -0.0146   -0.8716    0.3241 H.spc      1 <1>        0.000
      9 H           3.2436    0.2821   -0.3001 H.spc      1 <1>        0.000
     10 H           0.7577   -2.8223   -0.5934 H.spc      1 <1>        0.000
     11 H           2.4696   -3.0069   -0.9892 H.spc      1 <1>        0.000
     12 H           6.3879   -0.8829    0.0774 H.spc      1 <1>        0.000
     13 H           5.2861    0.4650   -0.2228 H.spc      1 <1>        0.000
@<TRIPOS>BOND
     1    1    2 2  
     2    2    3 1  
     3    2    4 1  
     4    3    5 am 
     5    5    6 am 
     6    5    7 2  
     7    1    8 1  
     8    3    9 1  
     9    4   10 1  
    10    4   11 1  
    11    6   12 1  
    12    6   13 1  
# Name:          frag3-188-10/96164
# Creation time: Sat Jun  5 12:53:09 2010


@<TRIPOS>MOLECULE
frag3-188-10/96164
   13    12     1     1     1
SMALL
USER_CHARGES


@<TRIPOS>ATOM
      1 N3          0.9203   -0.4412   -0.3386 N.2        1 <1>        0.000
      2 C8          1.9490   -1.2242   -0.0563 C.2        1 <1>        0.000
      3 N4          3.1757   -0.7362    0.0042 N.am       1 <1>        0.000
      4 N5          1.7111   -2.5029    0.1962 N.pl3      1 <1>        0.000
      5 C11         4.3992   -1.3599   -0.1342 C.2        1 <1>        0.000
      6 N6          5.4015   -0.6569    0.3946 N.am       1 <1>        0.000
      7 O3          4.3900   -2.4261   -0.6936 O.2        1 <1>        0.000
      8 H          -0.0239   -0.8266   -0.3574 H.spc      1 <1>        0.000
      9 H           3.2267    0.2668    0.1826 H.spc      1 <1>        0.000
     10 H           0.7556   -2.8588    0.1698 H.spc      1 <1>        0.000
     11 H           2.4835   -3.1314    0.4170 H.spc      1 <1>        0.000
     12 H           6.3541   -1.0198    0.3577 H.spc      1 <1>        0.000
     13 H           5.2156    0.2437    0.8360 H.spc      1 <1>        0.000
@<TRIPOS>BOND
     1    1    2 2  
     2    2    3 1  
     3    2    4 1  
     4    3    5 am 
     5    5    6 am 
     6    5    7 2  
     7    1    8 1  
     8    3    9 1  
     9    4   10 1  
    10    4   11 1  
    11    6   12 1  
    12    6   13 1  
# Name:          frag3-188-10/96164
# Creation time: Sat Jun  5 12:53:09 2010


@<TRIPOS>MOLECULE
frag3-188-10/96164
   13    12     1     1     1
SMALL
USER_CHARGES


@<TRIPOS>ATOM
      1 N3          1.4860   -1.1414    0.8648 N.2        1 <1>        0.000
      2 C8          1.9568   -1.3465   -0.3560 C.2        1 <1>        0.000
      3 N4          3.2327   -1.1106   -0.6258 N.am       1 <1>        0.000
      4 N5          1.1245   -1.7850   -1.3098 N.pl3      1 <1>        0.000
      5 C11         4.3897   -1.2888    0.1219 C.2        1 <1>        0.000
      6 N6          5.4358   -0.6162   -0.3761 N.am       1 <1>        0.000
      7 O3          4.3214   -2.0590    1.0532 O.2        1 <1>        0.000
      8 H           0.5021   -1.3172    1.0682 H.spc      1 <1>        0.000
      9 H           3.3955   -0.7263   -1.5565 H.spc      1 <1>        0.000
     10 H           0.1431   -1.9562   -1.0910 H.spc      1 <1>        0.000
     11 H           1.4722   -1.9476   -2.2548 H.spc      1 <1>        0.000
     12 H           6.3577   -0.7205    0.0477 H.spc      1 <1>        0.000
     13 H           5.3104    0.0002   -1.1790 H.spc      1 <1>        0.000
@<TRIPOS>BOND
     1    1    2 2  
     2    2    3 1  
     3    2    4 1  
     4    3    5 am 
     5    5    6 am 
     6    5    7 2  
     7    1    8 1  
     8    3    9 1  
     9    4   10 1  
    10    4   11 1  
    11    6   12 1  
    12    6   13 1  
# Name:          frag3-188-10/96164
# Creation time: Sat Jun  5 12:53:09 2010


@<TRIPOS>MOLECULE
frag3-188-10/96164
   13    12     1     1     1
SMALL
USER_CHARGES


@<TRIPOS>ATOM
      1 N3          1.8311   -2.5187   -0.4362 N.2        1 <1>        0.000
      2 C8          1.9435   -1.2216   -0.2001 C.2        1 <1>        0.000
      3 N4          3.1642   -0.7087   -0.0952 N.am       1 <1>        0.000
      4 N5          0.8256   -0.4959   -0.1076 N.pl3      1 <1>        0.000
      5 C11         4.3865   -1.3316    0.0602 C.2        1 <1>        0.000
      6 N6          5.4365   -0.6069   -0.3370 N.am       1 <1>        0.000
      7 O3          4.3594   -2.4641    0.4883 O.2        1 <1>        0.000
      8 H           0.9081   -2.9396   -0.5425 H.spc      1 <1>        0.000
      9 H           3.2052    0.3097   -0.1360 H.spc      1 <1>        0.000
     10 H          -0.0840   -0.9440   -0.2184 H.spc      1 <1>        0.000
     11 H           0.8817    0.5063    0.0738 H.spc      1 <1>        0.000
     12 H           6.3747   -1.0053   -0.2995 H.spc      1 <1>        0.000
     13 H           5.2998    0.3447   -0.6777 H.spc      1 <1>        0.000
@<TRIPOS>BOND
     1    1    2 2  
     2    2    3 1  
     3    2    4 1  
     4    3    5 am 
     5    5    6 am 
     6    5    7 2  
     7    1    8 1  
     8    3    9 1  
     9    4   10 1  
    10    4   11 1  
    11    6   12 1  
    12    6   13 1  
# Name:          frag3-188-10/96164
# Creation time: Sat Jun  5 12:53:09 2010


@<TRIPOS>MOLECULE
frag3-188-10/96164
   13    12     1     1     1
SMALL
USER_CHARGES


@<TRIPOS>ATOM
      1 N3          1.6339   -0.1726    0.3202 N.2        1 <1>        0.000
      2 C8          1.9111   -1.3328   -0.2616 C.2        1 <1>        0.000
      3 N4          3.1383   -1.8047   -0.2494 N.am       1 <1>        0.000
      4 N5          0.9253   -2.0199   -0.8339 N.pl3      1 <1>        0.000
      5 C11         4.4538   -1.4734    0.0591 C.2        1 <1>        0.000
      6 N6          4.6803   -0.1539    0.0226 N.am       1 <1>        0.000
      7 O3          5.2042   -2.3902    0.3154 O.2        1 <1>        0.000
      8 H           0.6768    0.1801    0.3242 H.spc      1 <1>        0.000
      9 H           3.1186   -2.7655   -0.5913 H.spc      1 <1>        0.000
     10 H          -0.0264   -1.6531   -0.8211 H.spc      1 <1>        0.000
     11 H           1.1215   -2.9133   -1.2853 H.spc      1 <1>        0.000
     12 H           5.6096    0.2100    0.2331 H.spc      1 <1>        0.000
     13 H           3.9235    0.4871   -0.2157 H.spc      1 <1>        0.000
@<TRIPOS>BOND
     1    1    2 2  
     2    2    3 1  
     3    2    4 1  
     4    3    5 am 
     5    5    6 am 
     6    5    7 2  
     7    1    8 1  
     8    3    9 1  
     9    4   10 1  
    10    4   11 1  
    11    6   12 1  
    12    6   13 1  
# Name:          frag3-188-10/96164
# Creation time: Sat Jun  5 12:53:09 2010


@<TRIPOS>MOLECULE
frag3-188-10/96164
   13    12     1     1     1
SMALL
USER_CHARGES


@<TRIPOS>ATOM
      1 N3          1.7723   -0.0590   -0.2730 N.2        1 <1>        0.000
      2 C8          1.9196   -1.3792   -0.1531 C.2        1 <1>        0.000
      3 N4          3.1353   -1.8770   -0.2441 N.am       1 <1>        0.000
      4 N5          0.8456   -2.1370    0.0478 N.pl3      1 <1>        0.000
      5 C11         4.4447   -1.4416   -0.0840 C.2        1 <1>        0.000
      6 N6          4.5135   -0.3261    0.6651 N.am       1 <1>        0.000
      7 O3          5.3159   -2.1276   -0.5864 O.2        1 <1>        0.000
      8 H           0.8437    0.3583   -0.2103 H.spc      1 <1>        0.000
      9 H           3.1077   -2.8622   -0.5068 H.spc      1 <1>        0.000
     10 H          -0.0775   -1.7074    0.1086 H.spc      1 <1>        0.000
     11 H           0.9449   -3.1479    0.1411 H.spc      1 <1>        0.000
     12 H           5.4211    0.0779    0.8961 H.spc      1 <1>        0.000
     13 H           3.6580    0.1155    1.0020 H.spc      1 <1>        0.000
@<TRIPOS>BOND
     1    1    2 2  
     2    2    3 1  
     3    2    4 1  
     4    3    5 am 
     5    5    6 am 
     6    5    7 2  
     7    1    8 1  
     8    3    9 1  
     9    4   10 1  
    10    4   11 1  
    11    6   12 1  
    12    6   13 1  
# Name:          frag3-188-10/96164
# Creation time: Sat Jun  5 12:53:09 2010


@<TRIPOS>MOLECULE
frag3-188-10/96164
   13    12     1     1     1
SMALL
USER_CHARGES


@<TRIPOS>ATOM
      1 N3          0.7856   -1.0107    0.4797 N.2        1 <1>        0.000
      2 C8          1.9197   -1.2026   -0.1926 C.2        1 <1>        0.000
      3 N4          3.0937   -1.1650    0.4008 N.am       1 <1>        0.000
      4 N5          1.8511   -1.4382   -1.5018 N.pl3      1 <1>        0.000
      5 C11         4.4366   -1.4221    0.1626 C.2        1 <1>        0.000
      6 N6          4.6647   -2.0341   -1.0106 N.am       1 <1>        0.000
      7 O3          5.1955   -1.0747    1.0343 O.2        1 <1>        0.000
      8 H          -0.1091   -1.0459   -0.0088 H.spc      1 <1>        0.000
      9 H           2.9775   -0.8358    1.3592 H.spc      1 <1>        0.000
     10 H           0.9442   -1.4685   -1.9677 H.spc      1 <1>        0.000
     11 H           2.7054   -1.5883   -2.0384 H.spc      1 <1>        0.000
     12 H           5.6171   -2.2793   -1.2812 H.spc      1 <1>        0.000
     13 H           3.8856   -2.2538   -1.6312 H.spc      1 <1>        0.000
@<TRIPOS>BOND
     1    1    2 2  
     2    2    3 1  
     3    2    4 1  
     4    3    5 am 
     5    5    6 am 
     6    5    7 2  
     7    1    8 1  
     8    3    9 1  
     9    4   10 1  
    10    4   11 1  
    11    6   12 1  
    12    6   13 1  
# Name:          frag3-188-10/96164
# Creation time: Sat Jun  5 12:53:09 2010


@<TRIPOS>MOLECULE
frag3-188-10/96164
   13    12     1     1     1
SMALL
USER_CHARGES


@<TRIPOS>ATOM
      1 N3          0.9198   -0.5200    0.3554 N.2        1 <1>        0.000
      2 C8          1.9447   -1.1709   -0.1679 C.2        1 <1>        0.000
      3 N4          3.0777   -1.3190    0.4844 N.am       1 <1>        0.000
      4 N5          1.8212   -1.6924   -1.3835 N.pl3      1 <1>        0.000
      5 C11         4.4059   -1.5337    0.1587 C.2        1 <1>        0.000
      6 N6          4.7414   -0.8266   -0.9397 N.am       1 <1>        0.000
      7 O3          5.0362   -2.2849    0.8650 O.2        1 <1>        0.000
      8 H           0.0525   -0.4249   -0.1730 H.spc      1 <1>        0.000
      9 H           2.9419   -1.2603    1.4936 H.spc      1 <1>        0.000
     10 H           0.9462   -1.5873   -1.8971 H.spc      1 <1>        0.000
     11 H           2.6014   -2.1979   -1.8033 H.spc      1 <1>        0.000
     12 H           5.6900   -0.8804   -1.3108 H.spc      1 <1>        0.000
     13 H           4.0466   -0.2380   -1.3993 H.spc      1 <1>        0.000
@<TRIPOS>BOND
     1    1    2 2  
     2    2    3 1  
     3    2    4 1  
     4    3    5 am 
     5    5    6 am 
     6    5    7 2  
     7    1    8 1  
     8    3    9 1  
     9    4   10 1  
    10    4   11 1  
    11    6   12 1  
    12    6   13 1  
# Name:          frag3-188-10/96164 -- energy: -0.285148
# Creation time: Sat Jun  5 12:53:09 2010


@<TRIPOS>MOLECULE
frag3-188-10/96164 -- energy: -0.285148
   13    12     1     1     1
SMALL
USER_CHARGES


@<TRIPOS>ATOM
      1 N3          0.9285   -0.4839    0.2998 N.2        1 <1>        0.000
      2 C8          1.9385   -1.2142   -0.1796 C.2        1 <1>        0.000
      3 N4          3.1795   -0.7283   -0.1762 N.am       1 <1>        0.000
      4 N5          1.7039   -2.4423   -0.6214 N.pl3      1 <1>        0.000
      5 C11         4.3987   -1.3754   -0.0313 C.2        1 <1>        0.000
      6 N6          5.4410   -0.5301   -0.0613 N.am       1 <1>        0.000
      7 O3          4.3568   -2.5733    0.1423 O.2        1 <1>        0.000
      8 H          -0.0146   -0.8716    0.3241 H.spc      1 <1>        0.000
      9 H           3.2436    0.2821   -0.3001 H.spc      1 <1>        0.000
     10 H           0.7577   -2.8223   -0.5934 H.spc      1 <1>        0.000
     11 H           2.4696   -3.0069   -0.9892 H.spc      1 <1>        0.000
     12 H           6.3879   -0.8829    0.0774 H.spc      1 <1>        0.000
     13 H           5.2861    0.4650   -0.2228 H.spc      1 <1>        0.000
@<TRIPOS>BOND
     1    1    2 2  
     2    2    3 1  
     3    2    4 1  
     4    3    5 am 
     5    5    6 am 
     6    5    7 2  
     7    1    8 1  
     8    3    9 1  
     9    4   10 1  
    10    4   11 1  
    11    6   12 1  
    12    6   13 1  
# Name:          frag3-188-10/96164 -- energy: -0.480517
# Creation time: Sat Jun  5 12:53:09 2010


@<TRIPOS>MOLECULE
frag3-188-10/96164 -- energy: -0.480517
   13    12     1     1     1
SMALL
USER_CHARGES


@<TRIPOS>ATOM
      1 N3          0.9203   -0.4412   -0.3386 N.2        1 <1>        0.000
      2 C8          1.9490   -1.2242   -0.0563 C.2        1 <1>        0.000
      3 N4          3.1757   -0.7362    0.0042 N.am       1 <1>        0.000
      4 N5          1.7111   -2.5029    0.1962 N.pl3      1 <1>        0.000
      5 C11         4.3992   -1.3599   -0.1342 C.2        1 <1>        0.000
      6 N6          5.4015   -0.6569    0.3946 N.am       1 <1>        0.000
      7 O3          4.3900   -2.4261   -0.6936 O.2        1 <1>        0.000
      8 H          -0.0239   -0.8266   -0.3574 H.spc      1 <1>        0.000
      9 H           3.2267    0.2668    0.1826 H.spc      1 <1>        0.000
     10 H           0.7556   -2.8588    0.1698 H.spc      1 <1>        0.000
     11 H           2.4835   -3.1314    0.4170 H.spc      1 <1>        0.000
     12 H           6.3541   -1.0198    0.3577 H.spc      1 <1>        0.000
     13 H           5.2156    0.2437    0.8360 H.spc      1 <1>        0.000
@<TRIPOS>BOND
     1    1    2 2  
     2    2    3 1  
     3    2    4 1  
     4    3    5 am 
     5    5    6 am 
     6    5    7 2  
     7    1    8 1  
     8    3    9 1  
     9    4   10 1  
    10    4   11 1  
    11    6   12 1  
    12    6   13 1  
# Name:          frag3-188-10/96164 -- energy: -0.707790
# Creation time: Sat Jun  5 12:53:09 2010


@<TRIPOS>MOLECULE
frag3-188-10/96164 -- energy: -0.707790
   13    12     1     1     1
SMALL
USER_CHARGES


@<TRIPOS>ATOM
      1 N3          1.4860   -1.1414    0.8648 N.2        1 <1>        0.000
      2 C8          1.9568   -1.3465   -0.3560 C.2        1 <1>        0.000
      3 N4          3.2327   -1.1106   -0.6258 N.am       1 <1>        0.000
      4 N5          1.1245   -1.7850   -1.3098 N.pl3      1 <1>        0.000
      5 C11         4.3897   -1.2888    0.1219 C.2        1 <1>        0.000
      6 N6          5.4358   -0.6162   -0.3761 N.am       1 <1>        0.000
      7 O3          4.3214   -2.0590    1.0532 O.2        1 <1>        0.000
      8 H           0.5021   -1.3172    1.0682 H.spc      1 <1>        0.000
      9 H           3.3955   -0.7263   -1.5565 H.spc      1 <1>        0.000
     10 H           0.1431   -1.9562   -1.0910 H.spc      1 <1>        0.000
     11 H           1.4722   -1.9476   -2.2548 H.spc      1 <1>        0.000
     12 H           6.3577   -0.7205    0.0477 H.spc      1 <1>        0.000
     13 H           5.3104    0.0002   -1.1790 H.spc      1 <1>        0.000
@<TRIPOS>BOND
     1    1    2 2  
     2    2    3 1  
     3    2    4 1  
     4    3    5 am 
     5    5    6 am 
     6    5    7 2  
     7    1    8 1  
     8    3    9 1  
     9    4   10 1  
    10    4   11 1  
    11    6   12 1  
    12    6   13 1  
# Name:          frag3-188-10/96164 -- energy: -0.558756
# Creation time: Sat Jun  5 12:53:09 2010


@<TRIPOS>MOLECULE
frag3-188-10/96164 -- energy: -0.558756
   13    12     1     1     1
SMALL
USER_CHARGES


@<TRIPOS>ATOM
      1 N3          1.8311   -2.5187   -0.4362 N.2        1 <1>        0.000
      2 C8          1.9435   -1.2216   -0.2001 C.2        1 <1>        0.000
      3 N4          3.1642   -0.7087   -0.0952 N.am       1 <1>        0.000
      4 N5          0.8256   -0.4959   -0.1076 N.pl3      1 <1>        0.000
      5 C11         4.3865   -1.3316    0.0602 C.2        1 <1>        0.000
      6 N6          5.4365   -0.6069   -0.3370 N.am       1 <1>        0.000
      7 O3          4.3594   -2.4641    0.4883 O.2        1 <1>        0.000
      8 H           0.9081   -2.9396   -0.5425 H.spc      1 <1>        0.000
      9 H           3.2052    0.3097   -0.1360 H.spc      1 <1>        0.000
     10 H          -0.0840   -0.9440   -0.2184 H.spc      1 <1>        0.000
     11 H           0.8817    0.5063    0.0738 H.spc      1 <1>        0.000
     12 H           6.3747   -1.0053   -0.2995 H.spc      1 <1>        0.000
     13 H           5.2998    0.3447   -0.6777 H.spc      1 <1>        0.000
@<TRIPOS>BOND
     1    1    2 2  
     2    2    3 1  
     3    2    4 1  
     4    3    5 am 
     5    5    6 am 
     6    5    7 2  
     7    1    8 1  
     8    3    9 1  
     9    4   10 1  
    10    4   11 1  
    11    6   12 1  
    12    6   13 1  
# Name:          frag3-188-10/96164 -- energy: -0.672511
# Creation time: Sat Jun  5 12:53:09 2010


@<TRIPOS>MOLECULE
frag3-188-10/96164 -- energy: -0.672511
   13    12     1     1     1
SMALL
USER_CHARGES


@<TRIPOS>ATOM
      1 N3          1.6339   -0.1726    0.3202 N.2        1 <1>        0.000
      2 C8          1.9111   -1.3328   -0.2616 C.2        1 <1>        0.000
      3 N4          3.1383   -1.8047   -0.2494 N.am       1 <1>        0.000
      4 N5          0.9253   -2.0199   -0.8339 N.pl3      1 <1>        0.000
      5 C11         4.4538   -1.4734    0.0591 C.2        1 <1>        0.000
      6 N6          4.6803   -0.1539    0.0226 N.am       1 <1>        0.000
      7 O3          5.2042   -2.3902    0.3154 O.2        1 <1>        0.000
      8 H           0.6768    0.1801    0.3242 H.spc      1 <1>        0.000
      9 H           3.1186   -2.7655   -0.5913 H.spc      1 <1>        0.000
     10 H          -0.0264   -1.6531   -0.8211 H.spc      1 <1>        0.000
     11 H           1.1215   -2.9133   -1.2853 H.spc      1 <1>        0.000
     12 H           5.6096    0.2100    0.2331 H.spc      1 <1>        0.000
     13 H           3.9235    0.4871   -0.2157 H.spc      1 <1>        0.000
@<TRIPOS>BOND
     1    1    2 2  
     2    2    3 1  
     3    2    4 1  
     4    3    5 am 
     5    5    6 am 
     6    5    7 2  
     7    1    8 1  
     8    3    9 1  
     9    4   10 1  
    10    4   11 1  
    11    6   12 1  
    12    6   13 1  
# Name:          frag3-188-10/96164 -- energy: -0.508268
# Creation time: Sat Jun  5 12:53:09 2010


@<TRIPOS>MOLECULE
frag3-188-10/96164 -- energy: -0.508268
   13    12     1     1     1
SMALL
USER_CHARGES


@<TRIPOS>ATOM
      1 N3          1.7723   -0.0590   -0.2730 N.2        1 <1>        0.000
      2 C8          1.9196   -1.3792   -0.1531 C.2        1 <1>        0.000
      3 N4          3.1353   -1.8770   -0.2441 N.am       1 <1>        0.000
      4 N5          0.8456   -2.1370    0.0478 N.pl3      1 <1>        0.000
      5 C11         4.4447   -1.4416   -0.0840 C.2        1 <1>        0.000
      6 N6          4.5135   -0.3261    0.6651 N.am       1 <1>        0.000
      7 O3          5.3159   -2.1276   -0.5864 O.2        1 <1>        0.000
      8 H           0.8437    0.3583   -0.2103 H.spc      1 <1>        0.000
      9 H           3.1077   -2.8622   -0.5068 H.spc      1 <1>        0.000
     10 H          -0.0775   -1.7074    0.1086 H.spc      1 <1>        0.000
     11 H           0.9449   -3.1479    0.1411 H.spc      1 <1>        0.000
     12 H           5.4211    0.0779    0.8961 H.spc      1 <1>        0.000
     13 H           3.6580    0.1155    1.0020 H.spc      1 <1>        0.000
@<TRIPOS>BOND
     1    1    2 2  
     2    2    3 1  
     3    2    4 1  
     4    3    5 am 
     5    5    6 am 
     6    5    7 2  
     7    1    8 1  
     8    3    9 1  
     9    4   10 1  
    10    4   11 1  
    11    6   12 1  
    12    6   13 1  
# Name:          frag3-188-10/96164 -- energy: -0.972802
# Creation time: Sat Jun  5 12:53:09 2010


@<TRIPOS>MOLECULE
frag3-188-10/96164 -- energy: -0.972802
   13    12     1     1     1
SMALL
USER_CHARGES


@<TRIPOS>ATOM
      1 N3          0.9198   -0.5200    0.3554 N.2        1 <1>        0.000
      2 C8          1.9447   -1.1709   -0.1679 C.2        1 <1>        0.000
      3 N4          3.0777   -1.3190    0.4844 N.am       1 <1>        0.000
      4 N5          1.8212   -1.6924   -1.3835 N.pl3      1 <1>        0.000
      5 C11         4.4059   -1.5337    0.1587 C.2        1 <1>        0.000
      6 N6          4.7414   -0.8266   -0.9397 N.am       1 <1>        0.000
      7 O3          5.0362   -2.2849    0.8650 O.2        1 <1>        0.000
      8 H           0.0525   -0.4249   -0.1730 H.spc      1 <1>        0.000
      9 H           2.9419   -1.2603    1.4936 H.spc      1 <1>        0.000
     10 H           0.9462   -1.5873   -1.8971 H.spc      1 <1>        0.000
     11 H           2.6014   -2.1979   -1.8033 H.spc      1 <1>        0.000
     12 H           5.6900   -0.8804   -1.3108 H.spc      1 <1>        0.000
     13 H           4.0466   -0.2380   -1.3993 H.spc      1 <1>        0.000
@<TRIPOS>BOND
     1    1    2 2  
     2    2    3 1  
     3    2    4 1  
     4    3    5 am 
     5    5    6 am 
     6    5    7 2  
     7    1    8 1  
     8    3    9 1  
     9    4   10 1  
    10    4   11 1  
    11    6   12 1  
    12    6   13 1  
