#      Rotatable Fragment
#      Build by yxyuan
#
# Name:          frag4-345-134/48856
# Creation time: Sat Jun  5 12:53:02 2010


@<TRIPOS>MOLECULE
frag4-345-134/48856
   17    17     1     1     1
SMALL
USER_CHARGES


@<TRIPOS>ATOM
      1 N1          0.9030   -3.3535    0.1059 N.3        1 <1>        0.000
      2 C1          0.5021   -2.0360    0.4680 C.3        1 <1>        0.000
      3 C2         -0.9340   -1.7532    0.0696 C.3        1 <1>        0.000
      4 C3         -1.9219   -2.8976    0.1998 C.3        1 <1>        0.000
      5 C4         -1.2780   -4.1399    0.7519 C.3        1 <1>        0.000
      6 C5          0.0185   -4.4793    0.0583 C.3        1 <1>        0.000
      7 H           1.5457   -3.6058    0.8567 H.spc      1 <1>        0.000
      8 H           1.1471   -1.3272   -0.0513 H.spc      1 <1>        0.000
      9 H           0.5821   -1.9395    1.5508 H.spc      1 <1>        0.000
     10 H          -0.9054   -1.5035   -0.9910 H.spc      1 <1>        0.000
     11 H          -1.2849   -0.9777    0.7504 H.spc      1 <1>        0.000
     12 H          -2.3091   -3.1274   -0.7928 H.spc      1 <1>        0.000
     13 H          -2.7109   -2.5896    0.8859 H.spc      1 <1>        0.000
     14 H          -1.0588   -3.9642    1.8051 H.spc      1 <1>        0.000
     15 H          -1.9671   -4.9706    0.5998 H.spc      1 <1>        0.000
     16 H          -0.1850   -4.7342   -0.9818 H.spc      1 <1>        0.000
     17 H           0.4855   -5.3262    0.5611 H.spc      1 <1>        0.000
@<TRIPOS>BOND
     1    5    6 1  
     2    1    2 1  
     3    1    6 1  
     4    2    3 1  
     5    3    4 1  
     6    4    5 1  
     7    1    7 1  
     8    2    8 1  
     9    2    9 1  
    10    3   10 1  
    11    3   11 1  
    12    4   12 1  
    13    4   13 1  
    14    5   14 1  
    15    5   15 1  
    16    6   16 1  
    17    6   17 1  
# Name:          frag4-345-134/48856
# Creation time: Sat Jun  5 12:53:02 2010


@<TRIPOS>MOLECULE
frag4-345-134/48856
   17    17     1     1     1
SMALL
USER_CHARGES


@<TRIPOS>ATOM
      1 N1          0.9773   -3.2999    0.2061 N.3        1 <1>        0.000
      2 C1          0.0675   -4.3537    0.5892 C.3        1 <1>        0.000
      3 C2         -1.4144   -4.2276    0.1654 C.3        1 <1>        0.000
      4 C3         -1.9274   -2.8161    0.2437 C.3        1 <1>        0.000
      5 C4         -0.8169   -1.8842    0.6628 C.3        1 <1>        0.000
      6 C5          0.4036   -2.0781   -0.2138 C.3        1 <1>        0.000
      7 H           1.4934   -3.6563   -0.5983 H.spc      1 <1>        0.000
      8 H           0.0572   -4.3432    1.6791 H.spc      1 <1>        0.000
      9 H           0.4355   -5.2485    0.0872 H.spc      1 <1>        0.000
     10 H          -2.0086   -4.8361    0.8472 H.spc      1 <1>        0.000
     11 H          -1.4929   -4.5533   -0.8718 H.spc      1 <1>        0.000
     12 H          -2.7317   -2.7677    0.9778 H.spc      1 <1>        0.000
     13 H          -2.2971   -2.5146   -0.7364 H.spc      1 <1>        0.000
     14 H          -1.1632   -0.8555    0.5625 H.spc      1 <1>        0.000
     15 H          -0.5466   -2.1003    1.6964 H.spc      1 <1>        0.000
     16 H           1.1054   -1.2504   -0.1115 H.spc      1 <1>        0.000
     17 H           0.1375   -2.1032   -1.2705 H.spc      1 <1>        0.000
@<TRIPOS>BOND
     1    5    6 1  
     2    1    2 1  
     3    1    6 1  
     4    2    3 1  
     5    3    4 1  
     6    4    5 1  
     7    1    7 1  
     8    2    8 1  
     9    2    9 1  
    10    3   10 1  
    11    3   11 1  
    12    4   12 1  
    13    4   13 1  
    14    5   14 1  
    15    5   15 1  
    16    6   16 1  
    17    6   17 1  
# Name:          frag4-345-134/48856 -- energy: -1.038403
# Creation time: Sat Jun  5 12:53:02 2010


@<TRIPOS>MOLECULE
frag4-345-134/48856 -- energy: -1.038403
   17    17     1     1     1
SMALL
USER_CHARGES


@<TRIPOS>ATOM
      1 N1          0.9030   -3.3535    0.1059 N.3        1 <1>        0.000
      2 C1          0.5021   -2.0360    0.4680 C.3        1 <1>        0.000
      3 C2         -0.9340   -1.7532    0.0696 C.3        1 <1>        0.000
      4 C3         -1.9219   -2.8976    0.1998 C.3        1 <1>        0.000
      5 C4         -1.2780   -4.1399    0.7519 C.3        1 <1>        0.000
      6 C5          0.0185   -4.4793    0.0583 C.3        1 <1>        0.000
      7 H           1.5457   -3.6058    0.8567 H.spc      1 <1>        0.000
      8 H           1.1471   -1.3272   -0.0513 H.spc      1 <1>        0.000
      9 H           0.5821   -1.9395    1.5508 H.spc      1 <1>        0.000
     10 H          -0.9054   -1.5035   -0.9910 H.spc      1 <1>        0.000
     11 H          -1.2849   -0.9777    0.7504 H.spc      1 <1>        0.000
     12 H          -2.3091   -3.1274   -0.7928 H.spc      1 <1>        0.000
     13 H          -2.7109   -2.5896    0.8859 H.spc      1 <1>        0.000
     14 H          -1.0588   -3.9642    1.8051 H.spc      1 <1>        0.000
     15 H          -1.9671   -4.9706    0.5998 H.spc      1 <1>        0.000
     16 H          -0.1850   -4.7342   -0.9818 H.spc      1 <1>        0.000
     17 H           0.4855   -5.3262    0.5611 H.spc      1 <1>        0.000
@<TRIPOS>BOND
     1    5    6 1  
     2    1    2 1  
     3    1    6 1  
     4    2    3 1  
     5    3    4 1  
     6    4    5 1  
     7    1    7 1  
     8    2    8 1  
     9    2    9 1  
    10    3   10 1  
    11    3   11 1  
    12    4   12 1  
    13    4   13 1  
    14    5   14 1  
    15    5   15 1  
    16    6   16 1  
    17    6   17 1  
# Name:          frag4-345-134/48856 -- energy: -0.562367
# Creation time: Sat Jun  5 12:53:02 2010


@<TRIPOS>MOLECULE
frag4-345-134/48856 -- energy: -0.562367
   17    17     1     1     1
SMALL
USER_CHARGES


@<TRIPOS>ATOM
      1 N1          0.9773   -3.2999    0.2061 N.3        1 <1>        0.000
      2 C1          0.0675   -4.3537    0.5892 C.3        1 <1>        0.000
      3 C2         -1.4144   -4.2276    0.1654 C.3        1 <1>        0.000
      4 C3         -1.9274   -2.8161    0.2437 C.3        1 <1>        0.000
      5 C4         -0.8169   -1.8842    0.6628 C.3        1 <1>        0.000
      6 C5          0.4036   -2.0781   -0.2138 C.3        1 <1>        0.000
      7 H           1.4934   -3.6563   -0.5983 H.spc      1 <1>        0.000
      8 H           0.0572   -4.3432    1.6791 H.spc      1 <1>        0.000
      9 H           0.4355   -5.2485    0.0872 H.spc      1 <1>        0.000
     10 H          -2.0086   -4.8361    0.8472 H.spc      1 <1>        0.000
     11 H          -1.4929   -4.5533   -0.8718 H.spc      1 <1>        0.000
     12 H          -2.7317   -2.7677    0.9778 H.spc      1 <1>        0.000
     13 H          -2.2971   -2.5146   -0.7364 H.spc      1 <1>        0.000
     14 H          -1.1632   -0.8555    0.5625 H.spc      1 <1>        0.000
     15 H          -0.5466   -2.1003    1.6964 H.spc      1 <1>        0.000
     16 H           1.1054   -1.2504   -0.1115 H.spc      1 <1>        0.000
     17 H           0.1375   -2.1032   -1.2705 H.spc      1 <1>        0.000
@<TRIPOS>BOND
     1    5    6 1  
     2    1    2 1  
     3    1    6 1  
     4    2    3 1  
     5    3    4 1  
     6    4    5 1  
     7    1    7 1  
     8    2    8 1  
     9    2    9 1  
    10    3   10 1  
    11    3   11 1  
    12    4   12 1  
    13    4   13 1  
    14    5   14 1  
    15    5   15 1  
    16    6   16 1  
    17    6   17 1  
