#      Rotatable Fragment
#      Build by yxyuan
#
# Name:          frag5-551-178/138278
# Creation time: Sat Jun  5 12:53:43 2010


@<TRIPOS>MOLECULE
frag5-551-178/138278
   43    46     1     1     1
SMALL
USER_CHARGES


@<TRIPOS>ATOM
      1 C1         -0.0295   -0.4422    0.0297 C.3        1 <1>        0.000
      2 C2         -1.3426    0.2777   -0.3864 C.3        1 <1>        0.000
      3 C3          1.1820    0.2511   -0.6594 C.3        1 <1>        0.000
      4 C4         -0.1002   -1.9465   -0.3212 C.3        1 <1>        0.000
      5 C5         -2.6223   -0.4556    0.1000 C.3        1 <1>        0.000
      6 C6         -1.3281    1.7691    0.0682 C.3        1 <1>        0.000
      7 C7          1.1387    1.8098   -0.5673 C.3        1 <1>        0.000
      8 C8          2.5711   -0.1632   -0.0990 C.3        1 <1>        0.000
      9 N1         -3.8064   -2.6331    0.3135 N.am       1 <1>        0.000
     10 C9         -1.3207   -2.6174    0.3234 C.3        1 <1>        0.000
     11 C10        -2.6178   -1.9756   -0.1990 C.3        1 <1>        0.000
     12 C11        -3.9134    0.1109   -0.5287 C.3        1 <1>        0.000
     13 C13         0.0735    2.2956    0.4409 C.3        1 <1>        0.000
     14 C14         2.5679    2.2191   -0.1493 C.3        1 <1>        0.000
     15 C16         3.0545    1.0442    0.7103 C.3        1 <1>        0.000
     16 C17        -5.1316   -0.5144    0.1629 C.3        1 <1>        0.000
     17 C19        -4.9222   -1.9345    0.6382 C.2        1 <1>        0.000
     18 O2         -5.7891   -2.4230    1.3509 O.2        1 <1>        0.000
     19 H           0.0999   -0.3682    1.1095 H.spc      1 <1>        0.000
     20 H          -1.3802    0.2513   -1.4754 H.spc      1 <1>        0.000
     21 H           1.0771   -0.0904   -1.6892 H.spc      1 <1>        0.000
     22 H           0.8000   -2.4318    0.0560 H.spc      1 <1>        0.000
     23 H          -0.1834   -2.0451   -1.4035 H.spc      1 <1>        0.000
     24 H          -2.6112   -0.2881    1.1770 H.spc      1 <1>        0.000
     25 H          -1.9496    1.8420    0.9607 H.spc      1 <1>        0.000
     26 H          -1.6866    2.3669   -0.7698 H.spc      1 <1>        0.000
     27 H           0.8500    2.2678   -1.5133 H.spc      1 <1>        0.000
     28 H           3.2677   -0.4164   -0.8982 H.spc      1 <1>        0.000
     29 H           2.5048   -1.0597    0.5174 H.spc      1 <1>        0.000
     30 H          -3.8020   -3.6461    0.4323 H.spc      1 <1>        0.000
     31 H          -1.3202   -3.6776    0.0702 H.spc      1 <1>        0.000
     32 H          -1.2692   -2.4884    1.4045 H.spc      1 <1>        0.000
     33 H          -2.6440   -2.1113   -1.2802 H.spc      1 <1>        0.000
     34 H          -3.9370    1.1931   -0.4005 H.spc      1 <1>        0.000
     35 H          -3.9359   -0.1270   -1.5922 H.spc      1 <1>        0.000
     36 H           0.0513    3.3853    0.4258 H.spc      1 <1>        0.000
     37 H           0.3343    1.9206    1.4306 H.spc      1 <1>        0.000
     38 H           3.2143    2.3978   -1.0085 H.spc      1 <1>        0.000
     39 H           2.5847    3.1636    0.3945 H.spc      1 <1>        0.000
     40 H           2.6670    1.0646    1.7289 H.spc      1 <1>        0.000
     41 H           4.1315    1.0486    0.8780 H.spc      1 <1>        0.000
     42 H          -5.3424    0.0896    1.0454 H.spc      1 <1>        0.000
     43 H          -5.9373   -0.5390   -0.5708 H.spc      1 <1>        0.000
@<TRIPOS>BOND
     1    2    5 1  
     2    2    6 1  
     3    1    4 1  
     4    3    8 1  
     5    1    3 1  
     6    3    7 1  
     7    1    2 1  
     8   17   18 2  
     9   16   17 1  
    10    9   17 am 
    11   14   15 1  
    12   12   16 1  
    13   11    9 1  
    14   10   11 1  
    15    8   15 1  
    16    7   13 1  
    17    7   14 1  
    18    6   13 1  
    19    5   12 1  
    20    5   11 1  
    21    4   10 1  
    22    1   19 1  
    23    2   20 1  
    24    3   21 1  
    25    4   22 1  
    26    4   23 1  
    27    5   24 1  
    28    6   25 1  
    29    6   26 1  
    30    7   27 1  
    31    8   28 1  
    32    8   29 1  
    33    9   30 1  
    34   10   31 1  
    35   10   32 1  
    36   11   33 1  
    37   12   34 1  
    38   12   35 1  
    39   13   36 1  
    40   13   37 1  
    41   14   38 1  
    42   14   39 1  
    43   15   40 1  
    44   15   41 1  
    45   16   42 1  
    46   16   43 1  
# Name:          frag5-551-178/138278 -- energy: -8.126266
# Creation time: Sat Jun  5 12:53:43 2010


@<TRIPOS>MOLECULE
frag5-551-178/138278 -- energy: -8.126266
   43    46     1     1     1
SMALL
USER_CHARGES


@<TRIPOS>ATOM
      1 C1         -0.0295   -0.4422    0.0297 C.3        1 <1>        0.000
      2 C2         -1.3426    0.2777   -0.3864 C.3        1 <1>        0.000
      3 C3          1.1820    0.2511   -0.6594 C.3        1 <1>        0.000
      4 C4         -0.1002   -1.9465   -0.3212 C.3        1 <1>        0.000
      5 C5         -2.6223   -0.4556    0.1000 C.3        1 <1>        0.000
      6 C6         -1.3281    1.7691    0.0682 C.3        1 <1>        0.000
      7 C7          1.1387    1.8098   -0.5673 C.3        1 <1>        0.000
      8 C8          2.5711   -0.1632   -0.0990 C.3        1 <1>        0.000
      9 N1         -3.8064   -2.6331    0.3135 N.am       1 <1>        0.000
     10 C9         -1.3207   -2.6174    0.3234 C.3        1 <1>        0.000
     11 C10        -2.6178   -1.9756   -0.1990 C.3        1 <1>        0.000
     12 C11        -3.9134    0.1109   -0.5287 C.3        1 <1>        0.000
     13 C13         0.0735    2.2956    0.4409 C.3        1 <1>        0.000
     14 C14         2.5679    2.2191   -0.1493 C.3        1 <1>        0.000
     15 C16         3.0545    1.0442    0.7103 C.3        1 <1>        0.000
     16 C17        -5.1316   -0.5144    0.1629 C.3        1 <1>        0.000
     17 C19        -4.9222   -1.9345    0.6382 C.2        1 <1>        0.000
     18 O2         -5.7891   -2.4230    1.3509 O.2        1 <1>        0.000
     19 H           0.0999   -0.3682    1.1095 H.spc      1 <1>        0.000
     20 H          -1.3802    0.2513   -1.4754 H.spc      1 <1>        0.000
     21 H           1.0771   -0.0904   -1.6892 H.spc      1 <1>        0.000
     22 H           0.8000   -2.4318    0.0560 H.spc      1 <1>        0.000
     23 H          -0.1834   -2.0451   -1.4035 H.spc      1 <1>        0.000
     24 H          -2.6112   -0.2881    1.1770 H.spc      1 <1>        0.000
     25 H          -1.9496    1.8420    0.9607 H.spc      1 <1>        0.000
     26 H          -1.6866    2.3669   -0.7698 H.spc      1 <1>        0.000
     27 H           0.8500    2.2678   -1.5133 H.spc      1 <1>        0.000
     28 H           3.2677   -0.4164   -0.8982 H.spc      1 <1>        0.000
     29 H           2.5048   -1.0597    0.5174 H.spc      1 <1>        0.000
     30 H          -3.8020   -3.6461    0.4323 H.spc      1 <1>        0.000
     31 H          -1.3202   -3.6776    0.0702 H.spc      1 <1>        0.000
     32 H          -1.2692   -2.4884    1.4045 H.spc      1 <1>        0.000
     33 H          -2.6440   -2.1113   -1.2802 H.spc      1 <1>        0.000
     34 H          -3.9370    1.1931   -0.4005 H.spc      1 <1>        0.000
     35 H          -3.9359   -0.1270   -1.5922 H.spc      1 <1>        0.000
     36 H           0.0513    3.3853    0.4258 H.spc      1 <1>        0.000
     37 H           0.3343    1.9206    1.4306 H.spc      1 <1>        0.000
     38 H           3.2143    2.3978   -1.0085 H.spc      1 <1>        0.000
     39 H           2.5847    3.1636    0.3945 H.spc      1 <1>        0.000
     40 H           2.6670    1.0646    1.7289 H.spc      1 <1>        0.000
     41 H           4.1315    1.0486    0.8780 H.spc      1 <1>        0.000
     42 H          -5.3424    0.0896    1.0454 H.spc      1 <1>        0.000
     43 H          -5.9373   -0.5390   -0.5708 H.spc      1 <1>        0.000
@<TRIPOS>BOND
     1    2    5 1  
     2    2    6 1  
     3    1    4 1  
     4    3    8 1  
     5    1    3 1  
     6    3    7 1  
     7    1    2 1  
     8   17   18 2  
     9   16   17 1  
    10    9   17 am 
    11   14   15 1  
    12   12   16 1  
    13   11    9 1  
    14   10   11 1  
    15    8   15 1  
    16    7   13 1  
    17    7   14 1  
    18    6   13 1  
    19    5   12 1  
    20    5   11 1  
    21    4   10 1  
    22    1   19 1  
    23    2   20 1  
    24    3   21 1  
    25    4   22 1  
    26    4   23 1  
    27    5   24 1  
    28    6   25 1  
    29    6   26 1  
    30    7   27 1  
    31    8   28 1  
    32    8   29 1  
    33    9   30 1  
    34   10   31 1  
    35   10   32 1  
    36   11   33 1  
    37   12   34 1  
    38   12   35 1  
    39   13   36 1  
    40   13   37 1  
    41   14   38 1  
    42   14   39 1  
    43   15   40 1  
    44   15   41 1  
    45   16   42 1  
    46   16   43 1  
