#      Rotatable Fragment
#      Build by yxyuan
#
# Name:          frag5-506-222/41815
# Creation time: Sat Jun  5 12:52:50 2010


@<TRIPOS>MOLECULE
frag5-506-222/41815
   19    19     1     1     1
SMALL
USER_CHARGES


@<TRIPOS>ATOM
      1 N1          3.3973    1.9904   -2.7325 N.pl3      1 <1>        0.000
      2 C1          2.1760    1.9255   -2.1815 C.2        1 <1>        0.000
      3 C2          1.9035    2.2995   -0.9078 C.2        1 <1>        0.000
      4 C3          3.0270    2.8261   -0.0960 C.3        1 <1>        0.000
      5 C4          4.3528    2.9060   -0.7552 C.2        1 <1>        0.000
      6 C5          4.4378    2.4771   -2.0373 C.2        1 <1>        0.000
      7 C7          5.5283    3.4136   -0.0783 C.2        1 <1>        0.000
      8 O1          6.6414    3.2624   -0.5537 O.2        1 <1>        0.000
      9 O2          5.3654    4.0380    1.0943 O.3        1 <1>        0.000
     10 C17         0.5562    2.1720   -0.3930 C.2        1 <1>        0.000
     11 O5         -0.3717    1.8675   -1.1224 O.2        1 <1>        0.000
     12 O6          0.3548    2.3963    0.9112 O.3        1 <1>        0.000
     13 H           3.5370    1.6666   -3.6896 H.spc      1 <1>        0.000
     14 H           1.3557    1.5504   -2.7934 H.spc      1 <1>        0.000
     15 H           2.7573    3.8517    0.1562 H.spc      1 <1>        0.000
     16 H           3.1480    2.1289    0.7331 H.spc      1 <1>        0.000
     17 H           5.4070    2.5302   -2.5333 H.spc      1 <1>        0.000
     18 H           4.4311    4.0666    1.3133 H.spc      1 <1>        0.000
     19 H           1.1892    2.6227    1.3284 H.spc      1 <1>        0.000
@<TRIPOS>BOND
     1   10   12 1  
     2    5    6 2  
     3    5    7 1  
     4   10   11 2  
     5    7    9 1  
     6    4    5 1  
     7    3   10 1  
     8    7    8 2  
     9    1    2 1  
    10    1    6 1  
    11    2    3 2  
    12    3    4 1  
    13    1   13 1  
    14    2   14 1  
    15    4   15 1  
    16    4   16 1  
    17    6   17 1  
    18    9   18 1  
    19   12   19 1  
# Name:          frag5-506-222/41815
# Creation time: Sat Jun  5 12:52:50 2010


@<TRIPOS>MOLECULE
frag5-506-222/41815
   19    19     1     1     1
SMALL
USER_CHARGES


@<TRIPOS>ATOM
      1 N1          3.3558    2.1136   -2.7620 N.pl3      1 <1>        0.000
      2 C1          2.1494    2.0151   -2.1936 C.2        1 <1>        0.000
      3 C2          1.8970    2.3366   -0.9041 C.2        1 <1>        0.000
      4 C3          3.0348    2.8411   -0.0846 C.3        1 <1>        0.000
      5 C4          4.3572    2.9057   -0.7559 C.2        1 <1>        0.000
      6 C5          4.4168    2.5359   -2.0590 C.2        1 <1>        0.000
      7 C7          5.5549    3.3419   -0.0640 C.2        1 <1>        0.000
      8 O1          6.6246    3.4089   -0.6467 O.2        1 <1>        0.000
      9 O2          5.4569    3.6819    1.2268 O.3        1 <1>        0.000
     10 C17         0.5648    2.1619   -0.3406 C.2        1 <1>        0.000
     11 O5          0.4555    1.7048    0.7816 O.2        1 <1>        0.000
     12 O6         -0.4989    2.5266   -1.0503 O.3        1 <1>        0.000
     13 H           3.4706    1.8640   -3.7443 H.spc      1 <1>        0.000
     14 H           1.3217    1.6550   -2.8046 H.spc      1 <1>        0.000
     15 H           2.7821    3.8669    0.1836 H.spc      1 <1>        0.000
     16 H           3.1488    2.1369    0.7395 H.spc      1 <1>        0.000
     17 H           5.3817    2.5846   -2.5637 H.spc      1 <1>        0.000
     18 H           4.5493    3.5683    1.5184 H.spc      1 <1>        0.000
     19 H          -0.2135    2.8608   -1.9038 H.spc      1 <1>        0.000
@<TRIPOS>BOND
     1   10   12 1  
     2    5    6 2  
     3    5    7 1  
     4   10   11 2  
     5    7    9 1  
     6    4    5 1  
     7    3   10 1  
     8    7    8 2  
     9    1    2 1  
    10    1    6 1  
    11    2    3 2  
    12    3    4 1  
    13    1   13 1  
    14    2   14 1  
    15    4   15 1  
    16    4   16 1  
    17    6   17 1  
    18    9   18 1  
    19   12   19 1  
# Name:          frag5-506-222/41815
# Creation time: Sat Jun  5 12:52:50 2010


@<TRIPOS>MOLECULE
frag5-506-222/41815
   19    19     1     1     1
SMALL
USER_CHARGES


@<TRIPOS>ATOM
      1 N1          3.3907    2.0150   -2.7141 N.pl3      1 <1>        0.000
      2 C1          2.1819    1.9203   -2.1638 C.2        1 <1>        0.000
      3 C2          1.9113    2.2758   -0.8883 C.2        1 <1>        0.000
      4 C3          3.0248    2.8310   -0.0630 C.3        1 <1>        0.000
      5 C4          4.3431    2.9388   -0.7554 C.2        1 <1>        0.000
      6 C5          4.4228    2.5198   -2.0367 C.2        1 <1>        0.000
      7 C7          5.5087    3.4677   -0.0602 C.2        1 <1>        0.000
      8 O1          5.6412    3.2414    1.1299 O.2        1 <1>        0.000
      9 O2          6.4037    4.2036   -0.7234 O.3        1 <1>        0.000
     10 C17         0.5643    2.1272   -0.3412 C.2        1 <1>        0.000
     11 O5          0.1581    2.9528    0.4564 O.2        1 <1>        0.000
     12 O6         -0.1817    1.0806   -0.6923 O.3        1 <1>        0.000
     13 H           3.5301    1.6952   -3.6726 H.spc      1 <1>        0.000
     14 H           1.3661    1.5350   -2.7754 H.spc      1 <1>        0.000
     15 H           2.7334    3.8450    0.2110 H.spc      1 <1>        0.000
     16 H           3.1666    2.1437    0.7710 H.spc      1 <1>        0.000
     17 H           5.3836    2.5985   -2.5454 H.spc      1 <1>        0.000
     18 H           6.1383    4.2759   -1.6432 H.spc      1 <1>        0.000
     19 H           0.3004    0.5434   -1.3253 H.spc      1 <1>        0.000
@<TRIPOS>BOND
     1   10   12 1  
     2    5    6 2  
     3    5    7 1  
     4   10   11 2  
     5    7    9 1  
     6    4    5 1  
     7    3   10 1  
     8    7    8 2  
     9    1    2 1  
    10    1    6 1  
    11    2    3 2  
    12    3    4 1  
    13    1   13 1  
    14    2   14 1  
    15    4   15 1  
    16    4   16 1  
    17    6   17 1  
    18    9   18 1  
    19   12   19 1  
# Name:          frag5-506-222/41815
# Creation time: Sat Jun  5 12:52:50 2010


@<TRIPOS>MOLECULE
frag5-506-222/41815
   19    19     1     1     1
SMALL
USER_CHARGES


@<TRIPOS>ATOM
      1 N1          3.3184    2.3760   -2.8186 N.pl3      1 <1>        0.000
      2 C1          4.3802    2.7495   -2.0887 C.2        1 <1>        0.000
      3 C2          4.3458    2.9278   -0.7470 C.2        1 <1>        0.000
      4 C3          3.0561    2.6588   -0.0555 C.3        1 <1>        0.000
      5 C4          1.9022    2.2776   -0.9059 C.2        1 <1>        0.000
      6 C5          2.1255    2.1575   -2.2386 C.2        1 <1>        0.000
      7 C7          0.5805    2.0348   -0.3662 C.2        1 <1>        0.000
      8 O1         -0.3234    1.6252   -1.0748 O.2        1 <1>        0.000
      9 O2          0.3818    2.2536    0.9389 O.3        1 <1>        0.000
     10 C17         5.5380    3.3496   -0.0299 C.2        1 <1>        0.000
     11 O5          6.0146    2.6129    0.8140 O.2        1 <1>        0.000
     12 O6          6.0492    4.5508   -0.2797 O.3        1 <1>        0.000
     13 H           3.4175    2.2563   -3.8267 H.spc      1 <1>        0.000
     14 H           5.3248    2.9192   -2.6054 H.spc      1 <1>        0.000
     15 H           3.2405    1.8046    0.5959 H.spc      1 <1>        0.000
     16 H           2.7749    3.5961    0.4246 H.spc      1 <1>        0.000
     17 H           1.2899    1.8672   -2.8755 H.spc      1 <1>        0.000
     18 H           1.1957    2.5716    1.3365 H.spc      1 <1>        0.000
     19 H           5.5391    4.9766   -0.9726 H.spc      1 <1>        0.000
@<TRIPOS>BOND
     1   10   12 1  
     2    5    6 2  
     3    5    7 1  
     4   10   11 2  
     5    7    9 1  
     6    4    5 1  
     7    3   10 1  
     8    7    8 2  
     9    1    2 1  
    10    1    6 1  
    11    2    3 2  
    12    3    4 1  
    13    1   13 1  
    14    2   14 1  
    15    4   15 1  
    16    4   16 1  
    17    6   17 1  
    18    9   18 1  
    19   12   19 1  
# Name:          frag5-506-222/41815 -- energy: -0.190554
# Creation time: Sat Jun  5 12:52:50 2010


@<TRIPOS>MOLECULE
frag5-506-222/41815 -- energy: -0.190554
   19    19     1     1     1
SMALL
USER_CHARGES


@<TRIPOS>ATOM
      1 N1          3.3973    1.9904   -2.7325 N.pl3      1 <1>        0.000
      2 C1          2.1760    1.9255   -2.1815 C.2        1 <1>        0.000
      3 C2          1.9035    2.2995   -0.9078 C.2        1 <1>        0.000
      4 C3          3.0270    2.8261   -0.0960 C.3        1 <1>        0.000
      5 C4          4.3528    2.9060   -0.7552 C.2        1 <1>        0.000
      6 C5          4.4378    2.4771   -2.0373 C.2        1 <1>        0.000
      7 C7          5.5283    3.4136   -0.0783 C.2        1 <1>        0.000
      8 O1          6.6414    3.2624   -0.5537 O.2        1 <1>        0.000
      9 O2          5.3654    4.0380    1.0943 O.3        1 <1>        0.000
     10 C17         0.5562    2.1720   -0.3930 C.2        1 <1>        0.000
     11 O5         -0.3717    1.8675   -1.1224 O.2        1 <1>        0.000
     12 O6          0.3548    2.3963    0.9112 O.3        1 <1>        0.000
     13 H           3.5370    1.6666   -3.6896 H.spc      1 <1>        0.000
     14 H           1.3557    1.5504   -2.7934 H.spc      1 <1>        0.000
     15 H           2.7573    3.8517    0.1562 H.spc      1 <1>        0.000
     16 H           3.1480    2.1289    0.7331 H.spc      1 <1>        0.000
     17 H           5.4070    2.5302   -2.5333 H.spc      1 <1>        0.000
     18 H           4.4311    4.0666    1.3133 H.spc      1 <1>        0.000
     19 H           1.1892    2.6227    1.3284 H.spc      1 <1>        0.000
@<TRIPOS>BOND
     1   10   12 1  
     2    5    6 2  
     3    5    7 1  
     4   10   11 2  
     5    7    9 1  
     6    4    5 1  
     7    3   10 1  
     8    7    8 2  
     9    1    2 1  
    10    1    6 1  
    11    2    3 2  
    12    3    4 1  
    13    1   13 1  
    14    2   14 1  
    15    4   15 1  
    16    4   16 1  
    17    6   17 1  
    18    9   18 1  
    19   12   19 1  
# Name:          frag5-506-222/41815 -- energy: -0.702093
# Creation time: Sat Jun  5 12:52:50 2010


@<TRIPOS>MOLECULE
frag5-506-222/41815 -- energy: -0.702093
   19    19     1     1     1
SMALL
USER_CHARGES


@<TRIPOS>ATOM
      1 N1          3.3558    2.1136   -2.7620 N.pl3      1 <1>        0.000
      2 C1          2.1494    2.0151   -2.1936 C.2        1 <1>        0.000
      3 C2          1.8970    2.3366   -0.9041 C.2        1 <1>        0.000
      4 C3          3.0348    2.8411   -0.0846 C.3        1 <1>        0.000
      5 C4          4.3572    2.9057   -0.7559 C.2        1 <1>        0.000
      6 C5          4.4168    2.5359   -2.0590 C.2        1 <1>        0.000
      7 C7          5.5549    3.3419   -0.0640 C.2        1 <1>        0.000
      8 O1          6.6246    3.4089   -0.6467 O.2        1 <1>        0.000
      9 O2          5.4569    3.6819    1.2268 O.3        1 <1>        0.000
     10 C17         0.5648    2.1619   -0.3406 C.2        1 <1>        0.000
     11 O5          0.4555    1.7048    0.7816 O.2        1 <1>        0.000
     12 O6         -0.4989    2.5266   -1.0503 O.3        1 <1>        0.000
     13 H           3.4706    1.8640   -3.7443 H.spc      1 <1>        0.000
     14 H           1.3217    1.6550   -2.8046 H.spc      1 <1>        0.000
     15 H           2.7821    3.8669    0.1836 H.spc      1 <1>        0.000
     16 H           3.1488    2.1369    0.7395 H.spc      1 <1>        0.000
     17 H           5.3817    2.5846   -2.5637 H.spc      1 <1>        0.000
     18 H           4.5493    3.5683    1.5184 H.spc      1 <1>        0.000
     19 H          -0.2135    2.8608   -1.9038 H.spc      1 <1>        0.000
@<TRIPOS>BOND
     1   10   12 1  
     2    5    6 2  
     3    5    7 1  
     4   10   11 2  
     5    7    9 1  
     6    4    5 1  
     7    3   10 1  
     8    7    8 2  
     9    1    2 1  
    10    1    6 1  
    11    2    3 2  
    12    3    4 1  
    13    1   13 1  
    14    2   14 1  
    15    4   15 1  
    16    4   16 1  
    17    6   17 1  
    18    9   18 1  
    19   12   19 1  
# Name:          frag5-506-222/41815 -- energy: -1.012100
# Creation time: Sat Jun  5 12:52:50 2010


@<TRIPOS>MOLECULE
frag5-506-222/41815 -- energy: -1.012100
   19    19     1     1     1
SMALL
USER_CHARGES


@<TRIPOS>ATOM
      1 N1          3.3907    2.0150   -2.7141 N.pl3      1 <1>        0.000
      2 C1          2.1819    1.9203   -2.1638 C.2        1 <1>        0.000
      3 C2          1.9113    2.2758   -0.8883 C.2        1 <1>        0.000
      4 C3          3.0248    2.8310   -0.0630 C.3        1 <1>        0.000
      5 C4          4.3431    2.9388   -0.7554 C.2        1 <1>        0.000
      6 C5          4.4228    2.5198   -2.0367 C.2        1 <1>        0.000
      7 C7          5.5087    3.4677   -0.0602 C.2        1 <1>        0.000
      8 O1          5.6412    3.2414    1.1299 O.2        1 <1>        0.000
      9 O2          6.4037    4.2036   -0.7234 O.3        1 <1>        0.000
     10 C17         0.5643    2.1272   -0.3412 C.2        1 <1>        0.000
     11 O5          0.1581    2.9528    0.4564 O.2        1 <1>        0.000
     12 O6         -0.1817    1.0806   -0.6923 O.3        1 <1>        0.000
     13 H           3.5301    1.6952   -3.6726 H.spc      1 <1>        0.000
     14 H           1.3661    1.5350   -2.7754 H.spc      1 <1>        0.000
     15 H           2.7334    3.8450    0.2110 H.spc      1 <1>        0.000
     16 H           3.1666    2.1437    0.7710 H.spc      1 <1>        0.000
     17 H           5.3836    2.5985   -2.5454 H.spc      1 <1>        0.000
     18 H           6.1383    4.2759   -1.6432 H.spc      1 <1>        0.000
     19 H           0.3004    0.5434   -1.3253 H.spc      1 <1>        0.000
@<TRIPOS>BOND
     1   10   12 1  
     2    5    6 2  
     3    5    7 1  
     4   10   11 2  
     5    7    9 1  
     6    4    5 1  
     7    3   10 1  
     8    7    8 2  
     9    1    2 1  
    10    1    6 1  
    11    2    3 2  
    12    3    4 1  
    13    1   13 1  
    14    2   14 1  
    15    4   15 1  
    16    4   16 1  
    17    6   17 1  
    18    9   18 1  
    19   12   19 1  
# Name:          frag5-506-222/41815 -- energy: -0.866253
# Creation time: Sat Jun  5 12:52:50 2010


@<TRIPOS>MOLECULE
frag5-506-222/41815 -- energy: -0.866253
   19    19     1     1     1
SMALL
USER_CHARGES


@<TRIPOS>ATOM
      1 N1          3.3184    2.3760   -2.8186 N.pl3      1 <1>        0.000
      2 C1          4.3802    2.7495   -2.0887 C.2        1 <1>        0.000
      3 C2          4.3458    2.9278   -0.7470 C.2        1 <1>        0.000
      4 C3          3.0561    2.6588   -0.0555 C.3        1 <1>        0.000
      5 C4          1.9022    2.2776   -0.9059 C.2        1 <1>        0.000
      6 C5          2.1255    2.1575   -2.2386 C.2        1 <1>        0.000
      7 C7          0.5805    2.0348   -0.3662 C.2        1 <1>        0.000
      8 O1         -0.3234    1.6252   -1.0748 O.2        1 <1>        0.000
      9 O2          0.3818    2.2536    0.9389 O.3        1 <1>        0.000
     10 C17         5.5380    3.3496   -0.0299 C.2        1 <1>        0.000
     11 O5          6.0146    2.6129    0.8140 O.2        1 <1>        0.000
     12 O6          6.0492    4.5508   -0.2797 O.3        1 <1>        0.000
     13 H           3.4175    2.2563   -3.8267 H.spc      1 <1>        0.000
     14 H           5.3248    2.9192   -2.6054 H.spc      1 <1>        0.000
     15 H           3.2405    1.8046    0.5959 H.spc      1 <1>        0.000
     16 H           2.7749    3.5961    0.4246 H.spc      1 <1>        0.000
     17 H           1.2899    1.8672   -2.8755 H.spc      1 <1>        0.000
     18 H           1.1957    2.5716    1.3365 H.spc      1 <1>        0.000
     19 H           5.5391    4.9766   -0.9726 H.spc      1 <1>        0.000
@<TRIPOS>BOND
     1   10   12 1  
     2    5    6 2  
     3    5    7 1  
     4   10   11 2  
     5    7    9 1  
     6    4    5 1  
     7    3   10 1  
     8    7    8 2  
     9    1    2 1  
    10    1    6 1  
    11    2    3 2  
    12    3    4 1  
    13    1   13 1  
    14    2   14 1  
    15    4   15 1  
    16    4   16 1  
    17    6   17 1  
    18    9   18 1  
    19   12   19 1  
