#      Rotatable Fragment
#      Build by yxyuan
#
# Name:          frag4-452-113/150395
# Creation time: Sat Jun  5 12:53:37 2010


@<TRIPOS>MOLECULE
frag4-452-113/150395
   18    19     1     1     1
SMALL
USER_CHARGES


@<TRIPOS>ATOM
      1 C1         -2.8017    0.6367   -0.5241 C.3        1 <1>        0.000
      2 C2         -1.6929    1.1955    0.3940 C.3        1 <1>        0.000
      3 O1         -2.0098   -0.2765   -1.2913 O.3        1 <1>        0.000
      4 C3         -3.8800   -0.1686    0.2614 C.3        1 <1>        0.000
      5 C5         -0.8717   -0.0680    0.7370 C.3        1 <1>        0.000
      6 C6         -1.3377   -1.0978   -0.3235 C.3        1 <1>        0.000
      7 C7         -3.6297   -1.6855    0.0697 C.3        1 <1>        0.000
      8 O7         -2.2540   -2.0287    0.2838 O.3        1 <1>        0.000
      9 H          -3.3596    1.4003   -1.0661 H.spc      1 <1>        0.000
     10 H          -2.0847    1.7019    1.2761 H.spc      1 <1>        0.000
     11 H          -1.0976    1.9747   -0.0820 H.spc      1 <1>        0.000
     12 H          -3.8195    0.0794    1.3211 H.spc      1 <1>        0.000
     13 H          -4.8708    0.0873   -0.1140 H.spc      1 <1>        0.000
     14 H           0.2032    0.1095    0.7043 H.spc      1 <1>        0.000
     15 H          -1.0397   -0.4125    1.7574 H.spc      1 <1>        0.000
     16 H          -0.5316   -1.6898   -0.7569 H.spc      1 <1>        0.000
     17 H          -4.2353   -2.2274    0.7961 H.spc      1 <1>        0.000
     18 H          -3.8937   -1.9499   -0.9543 H.spc      1 <1>        0.000
@<TRIPOS>BOND
     1    6    8 1  
     2    5    6 1  
     3    7    8 1  
     4    4    7 1  
     5    1    2 1  
     6    1    3 1  
     7    1    4 1  
     8    2    5 1  
     9    3    6 1  
    10    1    9 1  
    11    2   10 1  
    12    2   11 1  
    13    4   12 1  
    14    4   13 1  
    15    5   14 1  
    16    5   15 1  
    17    6   16 1  
    18    7   17 1  
    19    7   18 1  
# Name:          frag4-452-113/150395 -- energy: -0.964945
# Creation time: Sat Jun  5 12:53:37 2010


@<TRIPOS>MOLECULE
frag4-452-113/150395 -- energy: -0.964945
   18    19     1     1     1
SMALL
USER_CHARGES


@<TRIPOS>ATOM
      1 C1         -2.8017    0.6367   -0.5241 C.3        1 <1>        0.000
      2 C2         -1.6929    1.1955    0.3940 C.3        1 <1>        0.000
      3 O1         -2.0098   -0.2765   -1.2913 O.3        1 <1>        0.000
      4 C3         -3.8800   -0.1686    0.2614 C.3        1 <1>        0.000
      5 C5         -0.8717   -0.0680    0.7370 C.3        1 <1>        0.000
      6 C6         -1.3377   -1.0978   -0.3235 C.3        1 <1>        0.000
      7 C7         -3.6297   -1.6855    0.0697 C.3        1 <1>        0.000
      8 O7         -2.2540   -2.0287    0.2838 O.3        1 <1>        0.000
      9 H          -3.3596    1.4003   -1.0661 H.spc      1 <1>        0.000
     10 H          -2.0847    1.7019    1.2761 H.spc      1 <1>        0.000
     11 H          -1.0976    1.9747   -0.0820 H.spc      1 <1>        0.000
     12 H          -3.8195    0.0794    1.3211 H.spc      1 <1>        0.000
     13 H          -4.8708    0.0873   -0.1140 H.spc      1 <1>        0.000
     14 H           0.2032    0.1095    0.7043 H.spc      1 <1>        0.000
     15 H          -1.0397   -0.4125    1.7574 H.spc      1 <1>        0.000
     16 H          -0.5316   -1.6898   -0.7569 H.spc      1 <1>        0.000
     17 H          -4.2353   -2.2274    0.7961 H.spc      1 <1>        0.000
     18 H          -3.8937   -1.9499   -0.9543 H.spc      1 <1>        0.000
@<TRIPOS>BOND
     1    6    8 1  
     2    5    6 1  
     3    7    8 1  
     4    4    7 1  
     5    1    2 1  
     6    1    3 1  
     7    1    4 1  
     8    2    5 1  
     9    3    6 1  
    10    1    9 1  
    11    2   10 1  
    12    2   11 1  
    13    4   12 1  
    14    4   13 1  
    15    5   14 1  
    16    5   15 1  
    17    6   16 1  
    18    7   17 1  
    19    7   18 1  
