#      Rotatable Fragment
#      Build by yxyuan
#
# Name:          frag2-037-112/92655
# Creation time: Sat Jun  5 12:51:57 2010


@<TRIPOS>MOLECULE
frag2-037-112/92655
   23    25     1     1     1
SMALL
USER_CHARGES


@<TRIPOS>ATOM
      1 N1         -0.0189    1.4128    0.1802 N.ar       1 <1>        0.000
      2 C1         -1.1951    0.7603    0.0612 C.ar       1 <1>        0.000
      3 C2         -1.2022   -0.6279   -0.1169 C.ar       1 <1>        0.000
      4 C3          0.0169   -1.3130   -0.1677 C.ar       1 <1>        0.000
      5 C4          1.2182   -0.6051   -0.0407 C.ar       1 <1>        0.000
      6 C5          1.1747    0.7819    0.1355 C.ar       1 <1>        0.000
      7 C6          2.3597    1.5063    0.2640 C.ar       1 <1>        0.000
      8 C7          3.5893    0.8567    0.2181 C.ar       1 <1>        0.000
      9 C8          3.6393   -0.5232    0.0429 C.ar       1 <1>        0.000
     10 C9          2.4610   -1.2550   -0.0865 C.ar       1 <1>        0.000
     11 C10        -2.4267   -1.2993   -0.2406 C.ar       1 <1>        0.000
     12 C11        -3.6249   -0.5898   -0.1841 C.ar       1 <1>        0.000
     13 C12        -3.6114    0.7906   -0.0066 C.ar       1 <1>        0.000
     14 C13        -2.3987    1.4632    0.1146 C.ar       1 <1>        0.000
     15 H           0.0312   -2.3941   -0.3057 H.spc      1 <1>        0.000
     16 H           2.3223    2.5870    0.4011 H.spc      1 <1>        0.000
     17 H           4.5122    1.4277    0.3192 H.spc      1 <1>        0.000
     18 H           4.6024   -1.0323    0.0069 H.spc      1 <1>        0.000
     19 H           2.5046   -2.3355   -0.2237 H.spc      1 <1>        0.000
     20 H          -2.4417   -2.3801   -0.3815 H.spc      1 <1>        0.000
     21 H          -4.5743   -1.1169   -0.2791 H.spc      1 <1>        0.000
     22 H          -4.5493    1.3443    0.0374 H.spc      1 <1>        0.000
     23 H          -2.3896    2.5445    0.2519 H.spc      1 <1>        0.000
@<TRIPOS>BOND
     1    2   14 ar 
     2    9   10 ar 
     3    1    2 ar 
     4    3    4 ar 
     5    1    6 ar 
     6    3   11 ar 
     7    5   10 ar 
     8    4    5 ar 
     9   12   13 ar 
    10    2    3 ar 
    11    6    7 ar 
    12   11   12 ar 
    13    5    6 ar 
    14    7    8 ar 
    15   13   14 ar 
    16    8    9 ar 
    17    4   15 1  
    18    7   16 1  
    19    8   17 1  
    20    9   18 1  
    21   10   19 1  
    22   11   20 1  
    23   12   21 1  
    24   13   22 1  
    25   14   23 1  
# Name:          frag2-037-112/92655 -- energy: -0.498925
# Creation time: Sat Jun  5 12:51:57 2010


@<TRIPOS>MOLECULE
frag2-037-112/92655 -- energy: -0.498925
   23    25     1     1     1
SMALL
USER_CHARGES


@<TRIPOS>ATOM
      1 N1         -0.0189    1.4128    0.1802 N.ar       1 <1>        0.000
      2 C1         -1.1951    0.7603    0.0612 C.ar       1 <1>        0.000
      3 C2         -1.2022   -0.6279   -0.1169 C.ar       1 <1>        0.000
      4 C3          0.0169   -1.3130   -0.1677 C.ar       1 <1>        0.000
      5 C4          1.2182   -0.6051   -0.0407 C.ar       1 <1>        0.000
      6 C5          1.1747    0.7819    0.1355 C.ar       1 <1>        0.000
      7 C6          2.3597    1.5063    0.2640 C.ar       1 <1>        0.000
      8 C7          3.5893    0.8567    0.2181 C.ar       1 <1>        0.000
      9 C8          3.6393   -0.5232    0.0429 C.ar       1 <1>        0.000
     10 C9          2.4610   -1.2550   -0.0865 C.ar       1 <1>        0.000
     11 C10        -2.4267   -1.2993   -0.2406 C.ar       1 <1>        0.000
     12 C11        -3.6249   -0.5898   -0.1841 C.ar       1 <1>        0.000
     13 C12        -3.6114    0.7906   -0.0066 C.ar       1 <1>        0.000
     14 C13        -2.3987    1.4632    0.1146 C.ar       1 <1>        0.000
     15 H           0.0312   -2.3941   -0.3057 H.spc      1 <1>        0.000
     16 H           2.3223    2.5870    0.4011 H.spc      1 <1>        0.000
     17 H           4.5122    1.4277    0.3192 H.spc      1 <1>        0.000
     18 H           4.6024   -1.0323    0.0069 H.spc      1 <1>        0.000
     19 H           2.5046   -2.3355   -0.2237 H.spc      1 <1>        0.000
     20 H          -2.4417   -2.3801   -0.3815 H.spc      1 <1>        0.000
     21 H          -4.5743   -1.1169   -0.2791 H.spc      1 <1>        0.000
     22 H          -4.5493    1.3443    0.0374 H.spc      1 <1>        0.000
     23 H          -2.3896    2.5445    0.2519 H.spc      1 <1>        0.000
@<TRIPOS>BOND
     1    2   14 ar 
     2    9   10 ar 
     3    1    2 ar 
     4    3    4 ar 
     5    1    6 ar 
     6    3   11 ar 
     7    5   10 ar 
     8    4    5 ar 
     9   12   13 ar 
    10    2    3 ar 
    11    6    7 ar 
    12   11   12 ar 
    13    5    6 ar 
    14    7    8 ar 
    15   13   14 ar 
    16    8    9 ar 
    17    4   15 1  
    18    7   16 1  
    19    8   17 1  
    20    9   18 1  
    21   10   19 1  
    22   11   20 1  
    23   12   21 1  
    24   13   22 1  
    25   14   23 1  
