#      Rotatable Fragment
#      Build by yxyuan
#
# Name:          frag4-329-206/48856
# Creation time: Sat Jun  5 12:52:49 2010


@<TRIPOS>MOLECULE
frag4-329-206/48856
   41    44     1     1     1
SMALL
USER_CHARGES


@<TRIPOS>ATOM
      1 C3         -1.9174   -0.3454    0.3086 C.3        1 <1>        0.000
      2 C4         -2.4718   -0.9278   -1.0076 C.3        1 <1>        0.000
      3 C5         -1.2831   -1.6334   -1.7021 C.3        1 <1>        0.000
      4 C6         -0.0516   -1.2506   -0.8650 C.3        1 <1>        0.000
      5 C7         -0.6428   -1.1600    0.5503 C.3        1 <1>        0.000
      6 C8          0.3961   -0.6014    1.5290 C.3        1 <1>        0.000
      7 C9          1.6485   -1.4957    1.5268 C.3        1 <1>        0.000
      8 C18         4.5552   -2.2925    1.0790 C.2        1 <1>        0.000
      9 C10         2.2573   -1.7032    0.1131 C.3        1 <1>        0.000
     10 C11         1.1691   -2.1884   -0.8959 C.3        1 <1>        0.000
     11 C12         1.7466   -2.3317   -2.3179 C.3        1 <1>        0.000
     12 C13         2.9562   -3.2728   -2.3381 C.3        1 <1>        0.000
     13 C14         3.9612   -2.7810   -1.3367 C.2        1 <1>        0.000
     14 C15         5.2136   -2.4336   -1.7016 C.2        1 <1>        0.000
     15 C16         6.1799   -1.9519   -0.7072 C.3        1 <1>        0.000
     16 C17         5.8023   -1.9465    0.7128 C.2        1 <1>        0.000
     17 C19         3.4796   -2.6688    0.0944 C.3        1 <1>        0.000
     18 H          -1.7232    0.7252    0.2430 H.spc      1 <1>        0.000
     19 H          -2.6268   -0.4247    1.1324 H.spc      1 <1>        0.000
     20 H          -2.8870   -0.1433   -1.6402 H.spc      1 <1>        0.000
     21 H          -3.2859   -1.6267   -0.8158 H.spc      1 <1>        0.000
     22 H          -1.4230   -2.7135   -1.7456 H.spc      1 <1>        0.000
     23 H          -1.1787   -1.3218   -2.7414 H.spc      1 <1>        0.000
     24 H           0.3949   -0.3425   -1.2702 H.spc      1 <1>        0.000
     25 H          -0.9009   -2.0973    1.0433 H.spc      1 <1>        0.000
     26 H          -0.0293   -0.5796    2.5323 H.spc      1 <1>        0.000
     27 H           0.6732    0.4075    1.2232 H.spc      1 <1>        0.000
     28 H           1.3532   -2.4748    1.9038 H.spc      1 <1>        0.000
     29 H           2.4036   -1.0043    2.1404 H.spc      1 <1>        0.000
     30 H           4.3109   -2.3010    2.1412 H.spc      1 <1>        0.000
     31 H           2.6302   -0.7266   -0.1956 H.spc      1 <1>        0.000
     32 H           0.8350   -3.1795   -0.5889 H.spc      1 <1>        0.000
     33 H           0.9740   -2.7471   -2.9650 H.spc      1 <1>        0.000
     34 H           2.0673   -1.3484   -2.6620 H.spc      1 <1>        0.000
     35 H           2.6433   -4.2855   -2.0838 H.spc      1 <1>        0.000
     36 H           3.3998   -3.2864   -3.3337 H.spc      1 <1>        0.000
     37 H           5.5109   -2.5117   -2.7474 H.spc      1 <1>        0.000
     38 H           7.0172   -2.6468   -0.7714 H.spc      1 <1>        0.000
     39 H           6.3402   -0.9033   -0.9580 H.spc      1 <1>        0.000
     40 H           6.5332   -1.6620    1.4698 H.spc      1 <1>        0.000
     41 H           3.1724   -3.6556    0.4409 H.spc      1 <1>        0.000
@<TRIPOS>BOND
     1    5    6 1  
     2    6    7 1  
     3    4   10 1  
     4    4    5 1  
     5    3    4 1  
     6    1    5 1  
     7    1    2 1  
     8    2    3 1  
     9    8   17 1  
    10   16    8 2  
    11   15   16 1  
    12   14   15 1  
    13   13   17 1  
    14   13   14 2  
    15   12   13 1  
    16   11   12 1  
    17   10   11 1  
    18    9   10 1  
    19    9   17 1  
    20    7    9 1  
    21    1   18 1  
    22    1   19 1  
    23    2   20 1  
    24    2   21 1  
    25    3   22 1  
    26    3   23 1  
    27    4   24 1  
    28    5   25 1  
    29    6   26 1  
    30    6   27 1  
    31    7   28 1  
    32    7   29 1  
    33    8   30 1  
    34    9   31 1  
    35   10   32 1  
    36   11   33 1  
    37   11   34 1  
    38   12   35 1  
    39   12   36 1  
    40   14   37 1  
    41   15   38 1  
    42   15   39 1  
    43   16   40 1  
    44   17   41 1  
# Name:          frag4-329-206/48856 -- energy: -7.371158
# Creation time: Sat Jun  5 12:52:49 2010


@<TRIPOS>MOLECULE
frag4-329-206/48856 -- energy: -7.371158
   41    44     1     1     1
SMALL
USER_CHARGES


@<TRIPOS>ATOM
      1 C3         -1.9174   -0.3454    0.3086 C.3        1 <1>        0.000
      2 C4         -2.4718   -0.9278   -1.0076 C.3        1 <1>        0.000
      3 C5         -1.2831   -1.6334   -1.7021 C.3        1 <1>        0.000
      4 C6         -0.0516   -1.2506   -0.8650 C.3        1 <1>        0.000
      5 C7         -0.6428   -1.1600    0.5503 C.3        1 <1>        0.000
      6 C8          0.3961   -0.6014    1.5290 C.3        1 <1>        0.000
      7 C9          1.6485   -1.4957    1.5268 C.3        1 <1>        0.000
      8 C18         4.5552   -2.2925    1.0790 C.2        1 <1>        0.000
      9 C10         2.2573   -1.7032    0.1131 C.3        1 <1>        0.000
     10 C11         1.1691   -2.1884   -0.8959 C.3        1 <1>        0.000
     11 C12         1.7466   -2.3317   -2.3179 C.3        1 <1>        0.000
     12 C13         2.9562   -3.2728   -2.3381 C.3        1 <1>        0.000
     13 C14         3.9612   -2.7810   -1.3367 C.2        1 <1>        0.000
     14 C15         5.2136   -2.4336   -1.7016 C.2        1 <1>        0.000
     15 C16         6.1799   -1.9519   -0.7072 C.3        1 <1>        0.000
     16 C17         5.8023   -1.9465    0.7128 C.2        1 <1>        0.000
     17 C19         3.4796   -2.6688    0.0944 C.3        1 <1>        0.000
     18 H          -1.7232    0.7252    0.2430 H.spc      1 <1>        0.000
     19 H          -2.6268   -0.4247    1.1324 H.spc      1 <1>        0.000
     20 H          -2.8870   -0.1433   -1.6402 H.spc      1 <1>        0.000
     21 H          -3.2859   -1.6267   -0.8158 H.spc      1 <1>        0.000
     22 H          -1.4230   -2.7135   -1.7456 H.spc      1 <1>        0.000
     23 H          -1.1787   -1.3218   -2.7414 H.spc      1 <1>        0.000
     24 H           0.3949   -0.3425   -1.2702 H.spc      1 <1>        0.000
     25 H          -0.9009   -2.0973    1.0433 H.spc      1 <1>        0.000
     26 H          -0.0293   -0.5796    2.5323 H.spc      1 <1>        0.000
     27 H           0.6732    0.4075    1.2232 H.spc      1 <1>        0.000
     28 H           1.3532   -2.4748    1.9038 H.spc      1 <1>        0.000
     29 H           2.4036   -1.0043    2.1404 H.spc      1 <1>        0.000
     30 H           4.3109   -2.3010    2.1412 H.spc      1 <1>        0.000
     31 H           2.6302   -0.7266   -0.1956 H.spc      1 <1>        0.000
     32 H           0.8350   -3.1795   -0.5889 H.spc      1 <1>        0.000
     33 H           0.9740   -2.7471   -2.9650 H.spc      1 <1>        0.000
     34 H           2.0673   -1.3484   -2.6620 H.spc      1 <1>        0.000
     35 H           2.6433   -4.2855   -2.0838 H.spc      1 <1>        0.000
     36 H           3.3998   -3.2864   -3.3337 H.spc      1 <1>        0.000
     37 H           5.5109   -2.5117   -2.7474 H.spc      1 <1>        0.000
     38 H           7.0172   -2.6468   -0.7714 H.spc      1 <1>        0.000
     39 H           6.3402   -0.9033   -0.9580 H.spc      1 <1>        0.000
     40 H           6.5332   -1.6620    1.4698 H.spc      1 <1>        0.000
     41 H           3.1724   -3.6556    0.4409 H.spc      1 <1>        0.000
@<TRIPOS>BOND
     1    5    6 1  
     2    6    7 1  
     3    4   10 1  
     4    4    5 1  
     5    3    4 1  
     6    1    5 1  
     7    1    2 1  
     8    2    3 1  
     9    8   17 1  
    10   16    8 2  
    11   15   16 1  
    12   14   15 1  
    13   13   17 1  
    14   13   14 2  
    15   12   13 1  
    16   11   12 1  
    17   10   11 1  
    18    9   10 1  
    19    9   17 1  
    20    7    9 1  
    21    1   18 1  
    22    1   19 1  
    23    2   20 1  
    24    2   21 1  
    25    3   22 1  
    26    3   23 1  
    27    4   24 1  
    28    5   25 1  
    29    6   26 1  
    30    6   27 1  
    31    7   28 1  
    32    7   29 1  
    33    8   30 1  
    34    9   31 1  
    35   10   32 1  
    36   11   33 1  
    37   11   34 1  
    38   12   35 1  
    39   12   36 1  
    40   14   37 1  
    41   15   38 1  
    42   15   39 1  
    43   16   40 1  
    44   17   41 1  
