#      Rotatable Fragment
#      Build by yxyuan
#
# Name:          frag3-247-5/96164
# Creation time: Sat Jun  5 12:53:17 2010


@<TRIPOS>MOLECULE
frag3-247-5/96164
    8     7     1     1     1
SMALL
USER_CHARGES


@<TRIPOS>ATOM
      1 N3          1.7232    0.3782   -0.3314 N.2        1 <1>        0.000
      2 C11         0.6614   -0.2551    0.0229 C.2        1 <1>        0.000
      3 C15        -0.7228    0.3523    0.0088 C.2        1 <1>        0.000
      4 O3         -1.5977   -0.3096    0.7584 O.3        1 <1>        0.000
      5 O4         -0.8342    1.4173   -0.5549 O.2        1 <1>        0.000
      6 H           1.6587    1.3468   -0.6444 H.spc      1 <1>        0.000
      7 H           0.7655   -1.2889    0.3522 H.spc      1 <1>        0.000
      8 H          -1.2017   -1.1299    1.0614 H.spc      1 <1>        0.000
@<TRIPOS>BOND
     1    1    2 2  
     2    2    3 1  
     3    3    4 1  
     4    3    5 2  
     5    1    6 1  
     6    2    7 1  
     7    4    8 1  
# Name:          frag3-247-5/96164
# Creation time: Sat Jun  5 12:53:17 2010


@<TRIPOS>MOLECULE
frag3-247-5/96164
    8     7     1     1     1
SMALL
USER_CHARGES


@<TRIPOS>ATOM
      1 N3          1.6620   -0.0439    0.2566 N.2        1 <1>        0.000
      2 C11         0.6668    0.0358   -0.5380 C.2        1 <1>        0.000
      3 C15        -0.7283    0.4432   -0.0947 C.2        1 <1>        0.000
      4 O3         -1.1814   -0.2783    0.9156 O.3        1 <1>        0.000
      5 O4         -1.1891    1.4265   -0.6356 O.2        1 <1>        0.000
      6 H           1.5429    0.1716    1.2464 H.spc      1 <1>        0.000
      7 H           0.8258   -0.2008   -1.5901 H.spc      1 <1>        0.000
      8 H          -0.5688   -0.9952    1.0955 H.spc      1 <1>        0.000
@<TRIPOS>BOND
     1    1    2 2  
     2    2    3 1  
     3    3    4 1  
     4    3    5 2  
     5    1    6 1  
     6    2    7 1  
     7    4    8 1  
# Name:          frag3-247-5/96164 -- energy: 0.050739
# Creation time: Sat Jun  5 12:53:17 2010


@<TRIPOS>MOLECULE
frag3-247-5/96164 -- energy: 0.050739
    8     7     1     1     1
SMALL
USER_CHARGES


@<TRIPOS>ATOM
      1 N3          1.7232    0.3782   -0.3314 N.2        1 <1>        0.000
      2 C11         0.6614   -0.2551    0.0229 C.2        1 <1>        0.000
      3 C15        -0.7228    0.3523    0.0088 C.2        1 <1>        0.000
      4 O3         -1.5977   -0.3096    0.7584 O.3        1 <1>        0.000
      5 O4         -0.8342    1.4173   -0.5549 O.2        1 <1>        0.000
      6 H           1.6587    1.3468   -0.6444 H.spc      1 <1>        0.000
      7 H           0.7655   -1.2889    0.3522 H.spc      1 <1>        0.000
      8 H          -1.2017   -1.1299    1.0614 H.spc      1 <1>        0.000
@<TRIPOS>BOND
     1    1    2 2  
     2    2    3 1  
     3    3    4 1  
     4    3    5 2  
     5    1    6 1  
     6    2    7 1  
     7    4    8 1  
# Name:          frag3-247-5/96164 -- energy: -0.111787
# Creation time: Sat Jun  5 12:53:17 2010


@<TRIPOS>MOLECULE
frag3-247-5/96164 -- energy: -0.111787
    8     7     1     1     1
SMALL
USER_CHARGES


@<TRIPOS>ATOM
      1 N3          1.6620   -0.0439    0.2566 N.2        1 <1>        0.000
      2 C11         0.6668    0.0358   -0.5380 C.2        1 <1>        0.000
      3 C15        -0.7283    0.4432   -0.0947 C.2        1 <1>        0.000
      4 O3         -1.1814   -0.2783    0.9156 O.3        1 <1>        0.000
      5 O4         -1.1891    1.4265   -0.6356 O.2        1 <1>        0.000
      6 H           1.5429    0.1716    1.2464 H.spc      1 <1>        0.000
      7 H           0.8258   -0.2008   -1.5901 H.spc      1 <1>        0.000
      8 H          -0.5688   -0.9952    1.0955 H.spc      1 <1>        0.000
@<TRIPOS>BOND
     1    1    2 2  
     2    2    3 1  
     3    3    4 1  
     4    3    5 2  
     5    1    6 1  
     6    2    7 1  
     7    4    8 1  
