#      Rotatable Fragment
#      Build by yxyuan
#
# Name:          frag5-616-33/41815
# Creation time: Sat Jun  5 12:52:59 2010


@<TRIPOS>MOLECULE
frag5-616-33/41815
   23    24     1     1     1
SMALL
USER_CHARGES


@<TRIPOS>ATOM
      1 C1         -0.4855   -1.3112    0.7141 C.3        1 <1>        0.000
      2 C2          0.1800   -0.5345    1.8571 C.3        1 <1>        0.000
      3 C3          1.6271   -0.8696    2.1593 C.ar       1 <1>        0.000
      4 C4          2.4496   -1.5435    1.2206 C.ar       1 <1>        0.000
      5 C5          3.7909   -1.8536    1.5261 C.ar       1 <1>        0.000
      6 C6          4.2970   -1.4604    2.7752 C.ar       1 <1>        0.000
      7 C7          3.5075   -0.7960    3.7020 C.ar       1 <1>        0.000
      8 C8          2.1870   -0.5082    3.3901 C.ar       1 <1>        0.000
      9 O1          4.5547   -2.5226    0.6047 O.3        1 <1>        0.000
     10 C9          1.8975   -1.9708   -0.1268 C.3        1 <1>        0.000
     11 C10         0.4608   -2.4046    0.2042 C.3        1 <1>        0.000
     12 H          -0.7136   -0.6248   -0.1013 H.spc      1 <1>        0.000
     13 H          -1.4030   -1.7723    1.0798 H.spc      1 <1>        0.000
     14 H          -0.3802   -0.7880    2.7571 H.spc      1 <1>        0.000
     15 H           0.1725    0.5119    1.5520 H.spc      1 <1>        0.000
     16 H           5.3351   -1.6825    3.0225 H.spc      1 <1>        0.000
     17 H           3.9211   -0.5026    4.6669 H.spc      1 <1>        0.000
     18 H           1.5697    0.0126    4.1221 H.spc      1 <1>        0.000
     19 H           4.0280   -2.6992   -0.1782 H.spc      1 <1>        0.000
     20 H           1.9356   -1.1734   -0.8689 H.spc      1 <1>        0.000
     21 H           2.4818   -2.7675   -0.5872 H.spc      1 <1>        0.000
     22 H           0.5442   -3.1316    1.0121 H.spc      1 <1>        0.000
     23 H           0.0311   -2.7626   -0.7314 H.spc      1 <1>        0.000
@<TRIPOS>BOND
     1    7    8 ar 
     2    1    2 1  
     3    5    6 ar 
     4    2    3 1  
     5   10   11 1  
     6    4    5 ar 
     7    3    8 ar 
     8    3    4 ar 
     9    4   10 1  
    10    1   11 1  
    11    5    9 1  
    12    6    7 ar 
    13    1   12 1  
    14    1   13 1  
    15    2   14 1  
    16    2   15 1  
    17    6   16 1  
    18    7   17 1  
    19    8   18 1  
    20    9   19 1  
    21   10   20 1  
    22   10   21 1  
    23   11   22 1  
    24   11   23 1  
