#      Rotatable Fragment
#      Build by yxyuan
#
# Name:          frag4-410-179/150395
# Creation time: Sat Jun  5 12:53:34 2010


@<TRIPOS>MOLECULE
frag4-410-179/150395
   44    47     1     1     1
SMALL
USER_CHARGES


@<TRIPOS>ATOM
      1 C1         -0.0895   -0.4875   -0.0054 C.3        1 <1>        0.000
      2 C2         -1.3665    0.3003   -0.2923 C.3        1 <1>        0.000
      3 C3          1.1381    0.2317   -0.5503 C.3        1 <1>        0.000
      4 C4         -0.1585   -1.9677   -0.3345 C.3        1 <1>        0.000
      5 C5         -2.6173   -0.4234    0.1669 C.3        1 <1>        0.000
      6 C6         -1.2988    1.7530    0.1948 C.3        1 <1>        0.000
      7 C7          1.0982    1.7672   -0.4591 C.3        1 <1>        0.000
      8 C8          2.4329   -0.2091    0.0830 C.3        1 <1>        0.000
      9 N1         -3.7597   -2.4974    0.6555 N.3        1 <1>        0.000
     10 C9         -1.3685   -2.6545    0.2338 C.3        1 <1>        0.000
     11 C10        -2.6622   -1.9433   -0.0754 C.3        1 <1>        0.000
     12 C11        -3.9454    0.2223   -0.2043 C.3        1 <1>        0.000
     13 C13         0.0672    2.2700    0.5161 C.3        1 <1>        0.000
     14 C14         2.4963    2.2324   -0.1836 C.3        1 <1>        0.000
     15 C16         3.2708    1.0239    0.2598 C.3        1 <1>        0.000
     16 C17        -5.0834   -0.2920    0.6270 C.3        1 <1>        0.000
     17 C19        -4.9134   -1.7333    0.9690 C.3        1 <1>        0.000
     18 H           0.0181   -0.5054    1.0791 H.spc      1 <1>        0.000
     19 H          -1.4406    0.3618   -1.3780 H.spc      1 <1>        0.000
     20 H           1.1038   -0.0609   -1.5997 H.spc      1 <1>        0.000
     21 H           0.7211   -2.4409    0.1019 H.spc      1 <1>        0.000
     22 H          -0.2101   -2.0593   -1.4194 H.spc      1 <1>        0.000
     23 H          -2.5005   -0.2923    1.2427 H.spc      1 <1>        0.000
     24 H          -1.8687    1.7928    1.1231 H.spc      1 <1>        0.000
     25 H          -1.6764    2.3688   -0.6215 H.spc      1 <1>        0.000
     26 H           0.7637    2.1991   -1.4023 H.spc      1 <1>        0.000
     27 H           2.9437   -0.9380   -0.5462 H.spc      1 <1>        0.000
     28 H           2.2500   -0.6943    1.0418 H.spc      1 <1>        0.000
     29 H          -4.1152   -3.2279    0.0388 H.spc      1 <1>        0.000
     30 H          -1.4239   -3.6465   -0.2146 H.spc      1 <1>        0.000
     31 H          -1.2558   -2.6746    1.3178 H.spc      1 <1>        0.000
     32 H          -2.8085   -2.1002   -1.1441 H.spc      1 <1>        0.000
     33 H          -3.8590    1.2950   -0.0310 H.spc      1 <1>        0.000
     34 H          -4.1557   -0.0145   -1.2473 H.spc      1 <1>        0.000
     35 H           0.0439    3.3583    0.4597 H.spc      1 <1>        0.000
     36 H           0.3397    1.9225    1.5127 H.spc      1 <1>        0.000
     37 H           2.9420    2.6753   -1.0743 H.spc      1 <1>        0.000
     38 H           2.5053    3.0046    0.5857 H.spc      1 <1>        0.000
     39 H           3.5365    1.1317    1.3114 H.spc      1 <1>        0.000
     40 H           4.1754    0.9346   -0.3417 H.spc      1 <1>        0.000
     41 H          -5.1145    0.2787    1.5552 H.spc      1 <1>        0.000
     42 H          -6.0034   -0.1827    0.0528 H.spc      1 <1>        0.000
     43 H          -5.6873   -2.2133    0.3700 H.spc      1 <1>        0.000
     44 H          -4.9016   -1.7199    2.0589 H.spc      1 <1>        0.000
@<TRIPOS>BOND
     1    2    6 1  
     2    1    2 1  
     3    1    3 1  
     4    1    4 1  
     5    3    8 1  
     6    3    7 1  
     7    2    5 1  
     8   16   17 1  
     9    9   17 1  
    10   14   15 1  
    11   12   16 1  
    12   11    9 1  
    13   10   11 1  
    14    8   15 1  
    15    7   13 1  
    16    7   14 1  
    17    6   13 1  
    18    5   12 1  
    19    5   11 1  
    20    4   10 1  
    21    1   18 1  
    22    2   19 1  
    23    3   20 1  
    24    4   21 1  
    25    4   22 1  
    26    5   23 1  
    27    6   24 1  
    28    6   25 1  
    29    7   26 1  
    30    8   27 1  
    31    8   28 1  
    32    9   29 1  
    33   10   30 1  
    34   10   31 1  
    35   11   32 1  
    36   12   33 1  
    37   12   34 1  
    38   13   35 1  
    39   13   36 1  
    40   14   37 1  
    41   14   38 1  
    42   15   39 1  
    43   15   40 1  
    44   16   41 1  
    45   16   42 1  
    46   17   43 1  
    47   17   44 1  
# Name:          frag4-410-179/150395 -- energy: -7.812213
# Creation time: Sat Jun  5 12:53:34 2010


@<TRIPOS>MOLECULE
frag4-410-179/150395 -- energy: -7.812213
   44    47     1     1     1
SMALL
USER_CHARGES


@<TRIPOS>ATOM
      1 C1         -0.0895   -0.4875   -0.0054 C.3        1 <1>        0.000
      2 C2         -1.3665    0.3003   -0.2923 C.3        1 <1>        0.000
      3 C3          1.1381    0.2317   -0.5503 C.3        1 <1>        0.000
      4 C4         -0.1585   -1.9677   -0.3345 C.3        1 <1>        0.000
      5 C5         -2.6173   -0.4234    0.1669 C.3        1 <1>        0.000
      6 C6         -1.2988    1.7530    0.1948 C.3        1 <1>        0.000
      7 C7          1.0982    1.7672   -0.4591 C.3        1 <1>        0.000
      8 C8          2.4329   -0.2091    0.0830 C.3        1 <1>        0.000
      9 N1         -3.7597   -2.4974    0.6555 N.3        1 <1>        0.000
     10 C9         -1.3685   -2.6545    0.2338 C.3        1 <1>        0.000
     11 C10        -2.6622   -1.9433   -0.0754 C.3        1 <1>        0.000
     12 C11        -3.9454    0.2223   -0.2043 C.3        1 <1>        0.000
     13 C13         0.0672    2.2700    0.5161 C.3        1 <1>        0.000
     14 C14         2.4963    2.2324   -0.1836 C.3        1 <1>        0.000
     15 C16         3.2708    1.0239    0.2598 C.3        1 <1>        0.000
     16 C17        -5.0834   -0.2920    0.6270 C.3        1 <1>        0.000
     17 C19        -4.9134   -1.7333    0.9690 C.3        1 <1>        0.000
     18 H           0.0181   -0.5054    1.0791 H.spc      1 <1>        0.000
     19 H          -1.4406    0.3618   -1.3780 H.spc      1 <1>        0.000
     20 H           1.1038   -0.0609   -1.5997 H.spc      1 <1>        0.000
     21 H           0.7211   -2.4409    0.1019 H.spc      1 <1>        0.000
     22 H          -0.2101   -2.0593   -1.4194 H.spc      1 <1>        0.000
     23 H          -2.5005   -0.2923    1.2427 H.spc      1 <1>        0.000
     24 H          -1.8687    1.7928    1.1231 H.spc      1 <1>        0.000
     25 H          -1.6764    2.3688   -0.6215 H.spc      1 <1>        0.000
     26 H           0.7637    2.1991   -1.4023 H.spc      1 <1>        0.000
     27 H           2.9437   -0.9380   -0.5462 H.spc      1 <1>        0.000
     28 H           2.2500   -0.6943    1.0418 H.spc      1 <1>        0.000
     29 H          -4.1152   -3.2279    0.0388 H.spc      1 <1>        0.000
     30 H          -1.4239   -3.6465   -0.2146 H.spc      1 <1>        0.000
     31 H          -1.2558   -2.6746    1.3178 H.spc      1 <1>        0.000
     32 H          -2.8085   -2.1002   -1.1441 H.spc      1 <1>        0.000
     33 H          -3.8590    1.2950   -0.0310 H.spc      1 <1>        0.000
     34 H          -4.1557   -0.0145   -1.2473 H.spc      1 <1>        0.000
     35 H           0.0439    3.3583    0.4597 H.spc      1 <1>        0.000
     36 H           0.3397    1.9225    1.5127 H.spc      1 <1>        0.000
     37 H           2.9420    2.6753   -1.0743 H.spc      1 <1>        0.000
     38 H           2.5053    3.0046    0.5857 H.spc      1 <1>        0.000
     39 H           3.5365    1.1317    1.3114 H.spc      1 <1>        0.000
     40 H           4.1754    0.9346   -0.3417 H.spc      1 <1>        0.000
     41 H          -5.1145    0.2787    1.5552 H.spc      1 <1>        0.000
     42 H          -6.0034   -0.1827    0.0528 H.spc      1 <1>        0.000
     43 H          -5.6873   -2.2133    0.3700 H.spc      1 <1>        0.000
     44 H          -4.9016   -1.7199    2.0589 H.spc      1 <1>        0.000
@<TRIPOS>BOND
     1    2    6 1  
     2    1    2 1  
     3    1    3 1  
     4    1    4 1  
     5    3    8 1  
     6    3    7 1  
     7    2    5 1  
     8   16   17 1  
     9    9   17 1  
    10   14   15 1  
    11   12   16 1  
    12   11    9 1  
    13   10   11 1  
    14    8   15 1  
    15    7   13 1  
    16    7   14 1  
    17    6   13 1  
    18    5   12 1  
    19    5   11 1  
    20    4   10 1  
    21    1   18 1  
    22    2   19 1  
    23    3   20 1  
    24    4   21 1  
    25    4   22 1  
    26    5   23 1  
    27    6   24 1  
    28    6   25 1  
    29    7   26 1  
    30    8   27 1  
    31    8   28 1  
    32    9   29 1  
    33   10   30 1  
    34   10   31 1  
    35   11   32 1  
    36   12   33 1  
    37   12   34 1  
    38   13   35 1  
    39   13   36 1  
    40   14   37 1  
    41   14   38 1  
    42   15   39 1  
    43   15   40 1  
    44   16   41 1  
    45   16   42 1  
    46   17   43 1  
    47   17   44 1  
