#      Rotatable Fragment
#      Build by yxyuan
#
# Name:          frag5-678-62/138278
# Creation time: Sat Jun  5 12:51:55 2010


@<TRIPOS>MOLECULE
frag5-678-62/138278
   18    18     1     1     1
SMALL
USER_CHARGES


@<TRIPOS>ATOM
      1 C1          3.5098    1.0390    0.4149 C.ar       1 <1>        0.000
      2 C2          3.4419   -0.3485    0.2283 C.ar       1 <1>        0.000
      3 C3          2.3313    1.7356    0.7172 C.ar       1 <1>        0.000
      4 C4          4.8033    1.7987    0.3063 C.2        1 <1>        0.000
      5 C5          2.2150   -0.9967    0.2519 C.ar       1 <1>        0.000
      6 C6          1.1108    1.0746    0.7511 C.ar       1 <1>        0.000
      7 N1          5.9032    1.3387    0.8809 N.pl3      1 <1>        0.000
      8 N2          4.7934    2.8843   -0.3633 N.2        1 <1>        0.000
      9 C7          1.0077   -0.3053    0.4811 C.ar       1 <1>        0.000
     10 O1         -0.1842   -0.9546    0.4453 O.3        1 <1>        0.000
     11 H           4.3554   -0.9201    0.0642 H.spc      1 <1>        0.000
     12 H           2.3735    2.8043    0.9272 H.spc      1 <1>        0.000
     13 H           2.1837   -2.0739    0.0881 H.spc      1 <1>        0.000
     14 H           0.2090    1.6371    0.9927 H.spc      1 <1>        0.000
     15 H           6.7780    1.8561    0.7952 H.spc      1 <1>        0.000
     16 H           5.8761    0.4667    1.4094 H.spc      1 <1>        0.000
     17 H           5.6510    3.4264   -0.4687 H.spc      1 <1>        0.000
     18 H          -0.8924   -0.3312    0.6226 H.spc      1 <1>        0.000
@<TRIPOS>BOND
     1    5    9 ar 
     2    9   10 1  
     3    4    8 2  
     4    6    9 ar 
     5    1    2 ar 
     6    1    4 1  
     7    1    3 ar 
     8    2    5 ar 
     9    3    6 ar 
    10    4    7 1  
    11    2   11 1  
    12    3   12 1  
    13    5   13 1  
    14    6   14 1  
    15    7   15 1  
    16    7   16 1  
    17    8   17 1  
    18   10   18 1  
# Name:          frag5-678-62/138278
# Creation time: Sat Jun  5 12:51:55 2010


@<TRIPOS>MOLECULE
frag5-678-62/138278
   18    18     1     1     1
SMALL
USER_CHARGES


@<TRIPOS>ATOM
      1 C1          3.5046    1.0489    0.4209 C.ar       1 <1>        0.000
      2 C2          3.4505   -0.3270    0.6820 C.ar       1 <1>        0.000
      3 C3          2.3008    1.7522    0.2705 C.ar       1 <1>        0.000
      4 C4          4.8060    1.7948    0.3157 C.2        1 <1>        0.000
      5 C5          2.2301   -0.9873    0.6959 C.ar       1 <1>        0.000
      6 C6          1.0856    1.0826    0.2954 C.ar       1 <1>        0.000
      7 N1          5.8831    1.1993   -0.1724 N.pl3      1 <1>        0.000
      8 N2          4.8225    3.0102    0.7030 N.2        1 <1>        0.000
      9 C7          1.0118   -0.3149    0.4685 C.ar       1 <1>        0.000
     10 O1         -0.1627   -0.9931    0.4339 O.3        1 <1>        0.000
     11 H           4.3698   -0.8801    0.8747 H.spc      1 <1>        0.000
     12 H           2.3197    2.8333    0.1330 H.spc      1 <1>        0.000
     13 H           2.2127   -2.0600    0.8888 H.spc      1 <1>        0.000
     14 H           0.1636    1.6520    0.1780 H.spc      1 <1>        0.000
     15 H           6.7605    1.7140   -0.2477 H.spc      1 <1>        0.000
     16 H           5.8355    0.2258   -0.4732 H.spc      1 <1>        0.000
     17 H           5.6836    3.5534    0.6414 H.spc      1 <1>        0.000
     18 H          -0.8813   -0.3781    0.2694 H.spc      1 <1>        0.000
@<TRIPOS>BOND
     1    5    9 ar 
     2    9   10 1  
     3    4    8 2  
     4    6    9 ar 
     5    1    2 ar 
     6    1    4 1  
     7    1    3 ar 
     8    2    5 ar 
     9    3    6 ar 
    10    4    7 1  
    11    2   11 1  
    12    3   12 1  
    13    5   13 1  
    14    6   14 1  
    15    7   15 1  
    16    7   16 1  
    17    8   17 1  
    18   10   18 1  
# Name:          frag5-678-62/138278 -- energy: -0.950454
# Creation time: Sat Jun  5 12:51:55 2010


@<TRIPOS>MOLECULE
frag5-678-62/138278 -- energy: -0.950454
   18    18     1     1     1
SMALL
USER_CHARGES


@<TRIPOS>ATOM
      1 C1          3.5098    1.0390    0.4149 C.ar       1 <1>        0.000
      2 C2          3.4419   -0.3485    0.2283 C.ar       1 <1>        0.000
      3 C3          2.3313    1.7356    0.7172 C.ar       1 <1>        0.000
      4 C4          4.8033    1.7987    0.3063 C.2        1 <1>        0.000
      5 C5          2.2150   -0.9967    0.2519 C.ar       1 <1>        0.000
      6 C6          1.1108    1.0746    0.7511 C.ar       1 <1>        0.000
      7 N1          5.9032    1.3387    0.8809 N.pl3      1 <1>        0.000
      8 N2          4.7934    2.8843   -0.3633 N.2        1 <1>        0.000
      9 C7          1.0077   -0.3053    0.4811 C.ar       1 <1>        0.000
     10 O1         -0.1842   -0.9546    0.4453 O.3        1 <1>        0.000
     11 H           4.3554   -0.9201    0.0642 H.spc      1 <1>        0.000
     12 H           2.3735    2.8043    0.9272 H.spc      1 <1>        0.000
     13 H           2.1837   -2.0739    0.0881 H.spc      1 <1>        0.000
     14 H           0.2090    1.6371    0.9927 H.spc      1 <1>        0.000
     15 H           6.7780    1.8561    0.7952 H.spc      1 <1>        0.000
     16 H           5.8761    0.4667    1.4094 H.spc      1 <1>        0.000
     17 H           5.6510    3.4264   -0.4687 H.spc      1 <1>        0.000
     18 H          -0.8924   -0.3312    0.6226 H.spc      1 <1>        0.000
@<TRIPOS>BOND
     1    5    9 ar 
     2    9   10 1  
     3    4    8 2  
     4    6    9 ar 
     5    1    2 ar 
     6    1    4 1  
     7    1    3 ar 
     8    2    5 ar 
     9    3    6 ar 
    10    4    7 1  
    11    2   11 1  
    12    3   12 1  
    13    5   13 1  
    14    6   14 1  
    15    7   15 1  
    16    7   16 1  
    17    8   17 1  
    18   10   18 1  
# Name:          frag5-678-62/138278 -- energy: -0.870552
# Creation time: Sat Jun  5 12:51:55 2010


@<TRIPOS>MOLECULE
frag5-678-62/138278 -- energy: -0.870552
   18    18     1     1     1
SMALL
USER_CHARGES


@<TRIPOS>ATOM
      1 C1          3.5046    1.0489    0.4209 C.ar       1 <1>        0.000
      2 C2          3.4505   -0.3270    0.6820 C.ar       1 <1>        0.000
      3 C3          2.3008    1.7522    0.2705 C.ar       1 <1>        0.000
      4 C4          4.8060    1.7948    0.3157 C.2        1 <1>        0.000
      5 C5          2.2301   -0.9873    0.6959 C.ar       1 <1>        0.000
      6 C6          1.0856    1.0826    0.2954 C.ar       1 <1>        0.000
      7 N1          5.8831    1.1993   -0.1724 N.pl3      1 <1>        0.000
      8 N2          4.8225    3.0102    0.7030 N.2        1 <1>        0.000
      9 C7          1.0118   -0.3149    0.4685 C.ar       1 <1>        0.000
     10 O1         -0.1627   -0.9931    0.4339 O.3        1 <1>        0.000
     11 H           4.3698   -0.8801    0.8747 H.spc      1 <1>        0.000
     12 H           2.3197    2.8333    0.1330 H.spc      1 <1>        0.000
     13 H           2.2127   -2.0600    0.8888 H.spc      1 <1>        0.000
     14 H           0.1636    1.6520    0.1780 H.spc      1 <1>        0.000
     15 H           6.7605    1.7140   -0.2477 H.spc      1 <1>        0.000
     16 H           5.8355    0.2258   -0.4732 H.spc      1 <1>        0.000
     17 H           5.6836    3.5534    0.6414 H.spc      1 <1>        0.000
     18 H          -0.8813   -0.3781    0.2694 H.spc      1 <1>        0.000
@<TRIPOS>BOND
     1    5    9 ar 
     2    9   10 1  
     3    4    8 2  
     4    6    9 ar 
     5    1    2 ar 
     6    1    4 1  
     7    1    3 ar 
     8    2    5 ar 
     9    3    6 ar 
    10    4    7 1  
    11    2   11 1  
    12    3   12 1  
    13    5   13 1  
    14    6   14 1  
    15    7   15 1  
    16    7   16 1  
    17    8   17 1  
    18   10   18 1  
