#      Rotatable Fragment
#      Build by yxyuan
#
# Name:          frag3-245-3/31924
# Creation time: Sat Jun  5 12:52:38 2010


@<TRIPOS>MOLECULE
frag3-245-3/31924
    9     8     1     1     1
SMALL
USER_CHARGES


@<TRIPOS>ATOM
      1 N5          1.5611    0.2967   -0.0887 N.am       1 <1>        0.000
      2 C14         0.4014   -0.4022   -0.3416 C.2        1 <1>        0.000
      3 O4         -0.7390   -0.0542   -0.1262 O.2        1 <1>        0.000
      4 C15         0.5750   -1.7557   -1.0405 C.2        1 <1>        0.000
      5 O5          1.6250   -2.3515   -0.8737 O.2        1 <1>        0.000
      6 O6         -0.4309   -2.0131   -1.8894 O.3        1 <1>        0.000
      7 H           1.5157    1.2256    0.3301 H.spc      1 <1>        0.000
      8 H           2.4653   -0.1147   -0.3202 H.spc      1 <1>        0.000
      9 H          -1.1201   -1.3545   -1.7762 H.spc      1 <1>        0.000
@<TRIPOS>BOND
     1    1    2 am 
     2    2    3 2  
     3    2    4 1  
     4    4    5 2  
     5    4    6 1  
     6    1    7 1  
     7    1    8 1  
     8    6    9 1  
# Name:          frag3-245-3/31924
# Creation time: Sat Jun  5 12:52:38 2010


@<TRIPOS>MOLECULE
frag3-245-3/31924
    9     8     1     1     1
SMALL
USER_CHARGES


@<TRIPOS>ATOM
      1 N5          0.8079   -0.3367    0.9013 N.am       1 <1>        0.000
      2 C14         0.4339   -0.3550   -0.4129 C.2        1 <1>        0.000
      3 O4          0.0060    0.5340   -1.1142 O.2        1 <1>        0.000
      4 C15         0.5687   -1.7008   -1.1165 C.2        1 <1>        0.000
      5 O5          1.3340   -1.7594   -2.0576 O.2        1 <1>        0.000
      6 O6         -0.1579   -2.6620   -0.5602 O.3        1 <1>        0.000
      7 H           0.7428    0.5282    1.4381 H.spc      1 <1>        0.000
      8 H           1.1521   -1.1879    1.3455 H.spc      1 <1>        0.000
      9 H          -0.6637   -2.2975    0.1698 H.spc      1 <1>        0.000
@<TRIPOS>BOND
     1    1    2 am 
     2    2    3 2  
     3    2    4 1  
     4    4    5 2  
     5    4    6 1  
     6    1    7 1  
     7    1    8 1  
     8    6    9 1  
# Name:          frag3-245-3/31924
# Creation time: Sat Jun  5 12:52:38 2010


@<TRIPOS>MOLECULE
frag3-245-3/31924
    9     8     1     1     1
SMALL
USER_CHARGES


@<TRIPOS>ATOM
      1 N5          1.3733   -0.0324    0.5433 N.am       1 <1>        0.000
      2 C14         0.4126   -0.3814   -0.3775 C.2        1 <1>        0.000
      3 O4         -0.5346    0.2768   -0.7540 O.2        1 <1>        0.000
      4 C15         0.5986   -1.7430   -1.0592 C.2        1 <1>        0.000
      5 O5          1.7080   -2.0158   -1.4866 O.2        1 <1>        0.000
      6 O6         -0.5652   -2.3841   -1.2261 O.3        1 <1>        0.000
      7 H           1.3361    0.8797    0.9984 H.spc      1 <1>        0.000
      8 H           2.1228   -0.6857    0.7709 H.spc      1 <1>        0.000
      9 H          -1.2589   -1.9125   -0.7591 H.spc      1 <1>        0.000
@<TRIPOS>BOND
     1    1    2 am 
     2    2    3 2  
     3    2    4 1  
     4    4    5 2  
     5    4    6 1  
     6    1    7 1  
     7    1    8 1  
     8    6    9 1  
# Name:          frag3-245-3/31924
# Creation time: Sat Jun  5 12:52:38 2010


@<TRIPOS>MOLECULE
frag3-245-3/31924
    9     8     1     1     1
SMALL
USER_CHARGES


@<TRIPOS>ATOM
      1 N5          1.0369    0.6557   -0.9140 N.am       1 <1>        0.000
      2 C14         0.4164   -0.4144   -0.3142 C.2        1 <1>        0.000
      3 O4         -0.2548   -0.4199    0.6980 O.2        1 <1>        0.000
      4 C15         0.5319   -1.7563   -1.0527 C.2        1 <1>        0.000
      5 O5          0.8309   -2.7395   -0.3984 O.2        1 <1>        0.000
      6 O6          0.4313   -1.6057   -2.3788 O.3        1 <1>        0.000
      7 H           0.9593    1.5861   -0.5033 H.spc      1 <1>        0.000
      8 H           1.5749    0.5193   -1.7698 H.spc      1 <1>        0.000
      9 H           0.1746   -0.7025   -2.5786 H.spc      1 <1>        0.000
@<TRIPOS>BOND
     1    1    2 am 
     2    2    3 2  
     3    2    4 1  
     4    4    5 2  
     5    4    6 1  
     6    1    7 1  
     7    1    8 1  
     8    6    9 1  
# Name:          frag3-245-3/31924 -- energy: 0.699598
# Creation time: Sat Jun  5 12:52:38 2010


@<TRIPOS>MOLECULE
frag3-245-3/31924 -- energy: 0.699598
    9     8     1     1     1
SMALL
USER_CHARGES


@<TRIPOS>ATOM
      1 N5          1.5611    0.2967   -0.0887 N.am       1 <1>        0.000
      2 C14         0.4014   -0.4022   -0.3416 C.2        1 <1>        0.000
      3 O4         -0.7390   -0.0542   -0.1262 O.2        1 <1>        0.000
      4 C15         0.5750   -1.7557   -1.0405 C.2        1 <1>        0.000
      5 O5          1.6250   -2.3515   -0.8737 O.2        1 <1>        0.000
      6 O6         -0.4309   -2.0131   -1.8894 O.3        1 <1>        0.000
      7 H           1.5157    1.2256    0.3301 H.spc      1 <1>        0.000
      8 H           2.4653   -0.1147   -0.3202 H.spc      1 <1>        0.000
      9 H          -1.1201   -1.3545   -1.7762 H.spc      1 <1>        0.000
@<TRIPOS>BOND
     1    1    2 am 
     2    2    3 2  
     3    2    4 1  
     4    4    5 2  
     5    4    6 1  
     6    1    7 1  
     7    1    8 1  
     8    6    9 1  
# Name:          frag3-245-3/31924 -- energy: -0.286441
# Creation time: Sat Jun  5 12:52:38 2010


@<TRIPOS>MOLECULE
frag3-245-3/31924 -- energy: -0.286441
    9     8     1     1     1
SMALL
USER_CHARGES


@<TRIPOS>ATOM
      1 N5          0.8079   -0.3367    0.9013 N.am       1 <1>        0.000
      2 C14         0.4339   -0.3550   -0.4129 C.2        1 <1>        0.000
      3 O4          0.0060    0.5340   -1.1142 O.2        1 <1>        0.000
      4 C15         0.5687   -1.7008   -1.1165 C.2        1 <1>        0.000
      5 O5          1.3340   -1.7594   -2.0576 O.2        1 <1>        0.000
      6 O6         -0.1579   -2.6620   -0.5602 O.3        1 <1>        0.000
      7 H           0.7428    0.5282    1.4381 H.spc      1 <1>        0.000
      8 H           1.1521   -1.1879    1.3455 H.spc      1 <1>        0.000
      9 H          -0.6637   -2.2975    0.1698 H.spc      1 <1>        0.000
@<TRIPOS>BOND
     1    1    2 am 
     2    2    3 2  
     3    2    4 1  
     4    4    5 2  
     5    4    6 1  
     6    1    7 1  
     7    1    8 1  
     8    6    9 1  
# Name:          frag3-245-3/31924 -- energy: 0.032720
# Creation time: Sat Jun  5 12:52:38 2010


@<TRIPOS>MOLECULE
frag3-245-3/31924 -- energy: 0.032720
    9     8     1     1     1
SMALL
USER_CHARGES


@<TRIPOS>ATOM
      1 N5          1.3733   -0.0324    0.5433 N.am       1 <1>        0.000
      2 C14         0.4126   -0.3814   -0.3775 C.2        1 <1>        0.000
      3 O4         -0.5346    0.2768   -0.7540 O.2        1 <1>        0.000
      4 C15         0.5986   -1.7430   -1.0592 C.2        1 <1>        0.000
      5 O5          1.7080   -2.0158   -1.4866 O.2        1 <1>        0.000
      6 O6         -0.5652   -2.3841   -1.2261 O.3        1 <1>        0.000
      7 H           1.3361    0.8797    0.9984 H.spc      1 <1>        0.000
      8 H           2.1228   -0.6857    0.7709 H.spc      1 <1>        0.000
      9 H          -1.2589   -1.9125   -0.7591 H.spc      1 <1>        0.000
@<TRIPOS>BOND
     1    1    2 am 
     2    2    3 2  
     3    2    4 1  
     4    4    5 2  
     5    4    6 1  
     6    1    7 1  
     7    1    8 1  
     8    6    9 1  
# Name:          frag3-245-3/31924 -- energy: 0.143543
# Creation time: Sat Jun  5 12:52:38 2010


@<TRIPOS>MOLECULE
frag3-245-3/31924 -- energy: 0.143543
    9     8     1     1     1
SMALL
USER_CHARGES


@<TRIPOS>ATOM
      1 N5          1.0369    0.6557   -0.9140 N.am       1 <1>        0.000
      2 C14         0.4164   -0.4144   -0.3142 C.2        1 <1>        0.000
      3 O4         -0.2548   -0.4199    0.6980 O.2        1 <1>        0.000
      4 C15         0.5319   -1.7563   -1.0527 C.2        1 <1>        0.000
      5 O5          0.8309   -2.7395   -0.3984 O.2        1 <1>        0.000
      6 O6          0.4313   -1.6057   -2.3788 O.3        1 <1>        0.000
      7 H           0.9593    1.5861   -0.5033 H.spc      1 <1>        0.000
      8 H           1.5749    0.5193   -1.7698 H.spc      1 <1>        0.000
      9 H           0.1746   -0.7025   -2.5786 H.spc      1 <1>        0.000
@<TRIPOS>BOND
     1    1    2 am 
     2    2    3 2  
     3    2    4 1  
     4    4    5 2  
     5    4    6 1  
     6    1    7 1  
     7    1    8 1  
     8    6    9 1  
