#      Rotatable Fragment
#      Build by yxyuan
#
# Name:          frag5-648-76/138278
# Creation time: Sat Jun  5 12:53:50 2010


@<TRIPOS>MOLECULE
frag5-648-76/138278
   40    41     1     1     1
SMALL
USER_CHARGES


@<TRIPOS>ATOM
      1 C1         -1.7671   -0.0297   -0.3913 C.3        1 <1>        0.000
      2 C2         -2.0036   -1.2953    0.3607 C.3        1 <1>        0.000
      3 N1         -3.1077    0.2050   -0.8153 N.am       1 <1>        0.000
      4 C3         -1.1863    1.1447    0.3676 C.3        1 <1>        0.000
      5 C4         -1.0221   -1.7848    1.3749 C.3        1 <1>        0.000
      6 O1         -3.3032   -1.1048    0.9301 O.3        1 <1>        0.000
      7 C6         -3.9691   -0.1876    0.1707 C.2        1 <1>        0.000
      8 C13         0.5163   -3.0401    0.1808 C.2        1 <1>        0.000
      9 C8         -0.6482    2.2893   -0.4571 C.2        1 <1>        0.000
     10 O2          0.3151   -1.9935    0.9910 O.3        1 <1>        0.000
     11 O3         -5.1118    0.2079    0.3754 O.2        1 <1>        0.000
     12 C12         0.5906    3.0416   -0.0382 C.3        1 <1>        0.000
     13 O4         -1.2431    2.6351   -1.4806 O.2        1 <1>        0.000
     14 C16         1.7281    2.1728    0.4441 C.3        1 <1>        0.000
     15 C18         1.8390   -3.0673   -0.4375 C.3        1 <1>        0.000
     16 O5         -0.3209   -3.8892   -0.0981 O.2        1 <1>        0.000
     17 C20         2.0130    0.9401   -0.3840 C.3        1 <1>        0.000
     18 C21         2.2998   -1.9580   -1.2915 C.2        1 <1>        0.000
     19 C24         3.1434    0.0314    0.0251 C.3        1 <1>        0.000
     20 C26         3.4678   -1.0991   -0.9239 C.3        1 <1>        0.000
     21 O7          1.6255   -1.6718   -2.2857 O.2        1 <1>        0.000
     22 H          -0.9956   -0.1284   -1.1549 H.spc      1 <1>        0.000
     23 H          -1.8887   -2.1111   -0.3530 H.spc      1 <1>        0.000
     24 H          -3.3812    0.6034   -1.7136 H.spc      1 <1>        0.000
     25 H          -0.3356    0.7506    0.9235 H.spc      1 <1>        0.000
     26 H          -2.0074    1.5580    0.9534 H.spc      1 <1>        0.000
     27 H          -0.9773   -0.9944    2.1241 H.spc      1 <1>        0.000
     28 H          -1.3868   -2.7707    1.6632 H.spc      1 <1>        0.000
     29 H           0.3048    3.6806    0.7973 H.spc      1 <1>        0.000
     30 H           0.9505    3.5731   -0.9191 H.spc      1 <1>        0.000
     31 H           2.6263    2.7886    0.3978 H.spc      1 <1>        0.000
     32 H           1.4454    1.8186    1.4354 H.spc      1 <1>        0.000
     33 H           2.5267   -3.0535    0.4081 H.spc      1 <1>        0.000
     34 H           1.7978   -3.9218   -1.1130 H.spc      1 <1>        0.000
     35 H           1.1149    0.3287   -0.2961 H.spc      1 <1>        0.000
     36 H           2.2988    1.3202   -1.3648 H.spc      1 <1>        0.000
     37 H           4.0353    0.6564    0.0700 H.spc      1 <1>        0.000
     38 H           2.8352   -0.4355    0.9606 H.spc      1 <1>        0.000
     39 H           4.1887   -1.7417   -0.4185 H.spc      1 <1>        0.000
     40 H           3.8321   -0.6459   -1.8459 H.spc      1 <1>        0.000
@<TRIPOS>BOND
     1    5   10 1  
     2    1    2 1  
     3    9   12 1  
     4    6    7 1  
     5    2    6 1  
     6    3    7 am 
     7    1    4 1  
     8    1    3 1  
     9    7   11 2  
    10    9   13 2  
    11    2    5 1  
    12    4    9 1  
    13   19   20 1  
    14   18   21 2  
    15   18   20 1  
    16   17   19 1  
    17   15   18 1  
    18   14   17 1  
    19    8   16 2  
    20    8   15 1  
    21   12   14 1  
    22   10    8 1  
    23    1   22 1  
    24    2   23 1  
    25    3   24 1  
    26    4   25 1  
    27    4   26 1  
    28    5   27 1  
    29    5   28 1  
    30   12   29 1  
    31   12   30 1  
    32   14   31 1  
    33   14   32 1  
    34   15   33 1  
    35   15   34 1  
    36   17   35 1  
    37   17   36 1  
    38   19   37 1  
    39   19   38 1  
    40   20   39 1  
    41   20   40 1  
# Name:          frag5-648-76/138278
# Creation time: Sat Jun  5 12:53:50 2010


@<TRIPOS>MOLECULE
frag5-648-76/138278
   40    41     1     1     1
SMALL
USER_CHARGES


@<TRIPOS>ATOM
      1 C1         -1.6298    0.0685   -0.1983 C.3        1 <1>        0.000
      2 C2         -2.0066   -1.3144    0.3057 C.3        1 <1>        0.000
      3 N1         -2.8342    0.4447   -0.8596 N.am       1 <1>        0.000
      4 C3         -1.0827    1.0793    0.7860 C.3        1 <1>        0.000
      5 C4         -1.2508   -1.9255    1.4878 C.3        1 <1>        0.000
      6 O1         -3.4222   -1.2640    0.3969 O.3        1 <1>        0.000
      7 C6         -3.9276   -0.2792   -0.4378 C.2        1 <1>        0.000
      8 C13         0.6136   -3.1648    0.6817 C.2        1 <1>        0.000
      9 C8         -0.4790    2.3454    0.2125 C.2        1 <1>        0.000
     10 O2          0.1457   -2.0781    1.3565 O.3        1 <1>        0.000
     11 O3         -5.1046   -0.0773   -0.7177 O.2        1 <1>        0.000
     12 C12         0.9265    2.7738    0.5849 C.3        1 <1>        0.000
     13 O4         -1.1425    3.0475   -0.5609 O.2        1 <1>        0.000
     14 C16         1.9919    1.7953    0.1444 C.3        1 <1>        0.000
     15 C18         1.8964   -2.9214   -0.0220 C.3        1 <1>        0.000
     16 O5          0.0416   -4.2503    0.5759 O.2        1 <1>        0.000
     17 C20         1.9450    1.3430   -1.3056 C.3        1 <1>        0.000
     18 C21         1.9961   -1.8290   -1.0226 C.2        1 <1>        0.000
     19 C24         2.9414    0.3404   -1.8715 C.3        1 <1>        0.000
     20 C26         3.2332   -0.9732   -1.1765 C.3        1 <1>        0.000
     21 O7          1.0043   -1.6141   -1.7428 O.2        1 <1>        0.000
     22 H          -0.7403    0.0419   -0.8278 H.spc      1 <1>        0.000
     23 H          -1.6527   -2.0715   -0.3940 H.spc      1 <1>        0.000
     24 H          -2.8819    1.1740   -1.5711 H.spc      1 <1>        0.000
     25 H          -0.2707    0.5742    1.3092 H.spc      1 <1>        0.000
     26 H          -1.9348    1.4018    1.3843 H.spc      1 <1>        0.000
     27 H          -1.3945   -1.2340    2.3180 H.spc      1 <1>        0.000
     28 H          -1.6477   -2.9344    1.6009 H.spc      1 <1>        0.000
     29 H           0.9717    2.8399    1.6720 H.spc      1 <1>        0.000
     30 H           1.1240    3.7211    0.0832 H.spc      1 <1>        0.000
     31 H           2.9437    2.3121    0.2672 H.spc      1 <1>        0.000
     32 H           1.8417    0.8976    0.7441 H.spc      1 <1>        0.000
     33 H           2.5907   -2.6332    0.7673 H.spc      1 <1>        0.000
     34 H           2.0716   -3.8327   -0.5939 H.spc      1 <1>        0.000
     35 H           0.9892    0.8244   -1.3811 H.spc      1 <1>        0.000
     36 H           2.1538    2.2549   -1.8650 H.spc      1 <1>        0.000
     37 H           2.4934    0.0376   -2.8179 H.spc      1 <1>        0.000
     38 H           3.8927    0.8709   -1.8304 H.spc      1 <1>        0.000
     39 H           3.6163   -0.7508   -0.1806 H.spc      1 <1>        0.000
     40 H           3.9519   -1.5241   -1.7832 H.spc      1 <1>        0.000
@<TRIPOS>BOND
     1    5   10 1  
     2    1    2 1  
     3    9   12 1  
     4    6    7 1  
     5    2    6 1  
     6    3    7 am 
     7    1    4 1  
     8    1    3 1  
     9    7   11 2  
    10    9   13 2  
    11    2    5 1  
    12    4    9 1  
    13   19   20 1  
    14   18   21 2  
    15   18   20 1  
    16   17   19 1  
    17   15   18 1  
    18   14   17 1  
    19    8   16 2  
    20    8   15 1  
    21   12   14 1  
    22   10    8 1  
    23    1   22 1  
    24    2   23 1  
    25    3   24 1  
    26    4   25 1  
    27    4   26 1  
    28    5   27 1  
    29    5   28 1  
    30   12   29 1  
    31   12   30 1  
    32   14   31 1  
    33   14   32 1  
    34   15   33 1  
    35   15   34 1  
    36   17   35 1  
    37   17   36 1  
    38   19   37 1  
    39   19   38 1  
    40   20   39 1  
    41   20   40 1  
# Name:          frag5-648-76/138278
# Creation time: Sat Jun  5 12:53:50 2010


@<TRIPOS>MOLECULE
frag5-648-76/138278
   40    41     1     1     1
SMALL
USER_CHARGES


@<TRIPOS>ATOM
      1 C1         -1.9965    0.1159   -0.2551 C.3        1 <1>        0.000
      2 C2         -2.2582   -1.2815    0.2325 C.3        1 <1>        0.000
      3 N1         -3.3265    0.6057   -0.3071 N.am       1 <1>        0.000
      4 C3         -1.0473    1.0036    0.5163 C.3        1 <1>        0.000
      5 C4         -1.1125   -2.0675    0.8407 C.3        1 <1>        0.000
      6 O1         -3.4678   -1.1582    1.0079 O.3        1 <1>        0.000
      7 C6         -4.1612   -0.0372    0.5771 C.2        1 <1>        0.000
      8 C13         0.5209   -2.6489   -0.8869 C.2        1 <1>        0.000
      9 C8         -0.7224    2.2950   -0.1992 C.2        1 <1>        0.000
     10 O2          0.1688   -2.0669    0.2699 O.3        1 <1>        0.000
     11 O3         -5.2767    0.2896    0.9399 O.2        1 <1>        0.000
     12 C12         0.7133    2.6759   -0.4462 C.3        1 <1>        0.000
     13 O4         -1.6249    3.0391   -0.5724 O.2        1 <1>        0.000
     14 C16         1.3426    1.9700   -1.6190 C.3        1 <1>        0.000
     15 C18         1.9917   -2.8247   -1.0257 C.3        1 <1>        0.000
     16 O5         -0.2520   -3.0150   -1.7703 O.2        1 <1>        0.000
     17 C20         1.9837    0.6056   -1.4045 C.3        1 <1>        0.000
     18 C21         2.9093   -2.3076    0.0118 C.2        1 <1>        0.000
     19 C24         2.8177    0.2709   -0.1751 C.3        1 <1>        0.000
     20 C26         3.6340   -1.0014   -0.1927 C.3        1 <1>        0.000
     21 O7          3.0196   -2.9160    1.0751 O.2        1 <1>        0.000
     22 H          -1.4315    0.1124   -1.1872 H.spc      1 <1>        0.000
     23 H          -2.3825   -1.9626   -0.6093 H.spc      1 <1>        0.000
     24 H          -3.6306    1.3526   -0.9316 H.spc      1 <1>        0.000
     25 H          -0.1145    0.4548    0.6458 H.spc      1 <1>        0.000
     26 H          -1.5298    1.2615    1.4591 H.spc      1 <1>        0.000
     27 H          -0.9626   -1.5955    1.8117 H.spc      1 <1>        0.000
     28 H          -1.4347   -3.1049    0.7504 H.spc      1 <1>        0.000
     29 H           1.2794    2.3946    0.4418 H.spc      1 <1>        0.000
     30 H           0.7312    3.7437   -0.6644 H.spc      1 <1>        0.000
     31 H           0.5199    1.7874   -2.3103 H.spc      1 <1>        0.000
     32 H           2.1617    2.6186   -1.9297 H.spc      1 <1>        0.000
     33 H           2.1370   -3.9046   -0.9990 H.spc      1 <1>        0.000
     34 H           2.2474   -2.2548   -1.9190 H.spc      1 <1>        0.000
     35 H           1.1267   -0.0620   -1.3146 H.spc      1 <1>        0.000
     36 H           2.7026    0.5360   -2.2208 H.spc      1 <1>        0.000
     37 H           3.5448    1.0786   -0.0915 H.spc      1 <1>        0.000
     38 H           2.0990    0.1410    0.6340 H.spc      1 <1>        0.000
     39 H           4.3215   -0.9164    0.6488 H.spc      1 <1>        0.000
     40 H           4.0590   -1.0594   -1.1948 H.spc      1 <1>        0.000
@<TRIPOS>BOND
     1    5   10 1  
     2    1    2 1  
     3    9   12 1  
     4    6    7 1  
     5    2    6 1  
     6    3    7 am 
     7    1    4 1  
     8    1    3 1  
     9    7   11 2  
    10    9   13 2  
    11    2    5 1  
    12    4    9 1  
    13   19   20 1  
    14   18   21 2  
    15   18   20 1  
    16   17   19 1  
    17   15   18 1  
    18   14   17 1  
    19    8   16 2  
    20    8   15 1  
    21   12   14 1  
    22   10    8 1  
    23    1   22 1  
    24    2   23 1  
    25    3   24 1  
    26    4   25 1  
    27    4   26 1  
    28    5   27 1  
    29    5   28 1  
    30   12   29 1  
    31   12   30 1  
    32   14   31 1  
    33   14   32 1  
    34   15   33 1  
    35   15   34 1  
    36   17   35 1  
    37   17   36 1  
    38   19   37 1  
    39   19   38 1  
    40   20   39 1  
    41   20   40 1  
# Name:          frag5-648-76/138278
# Creation time: Sat Jun  5 12:53:50 2010


@<TRIPOS>MOLECULE
frag5-648-76/138278
   40    41     1     1     1
SMALL
USER_CHARGES


@<TRIPOS>ATOM
      1 C1         -1.7538   -0.1085   -0.2147 C.3        1 <1>        0.000
      2 C2         -2.2116   -1.4152    0.3845 C.3        1 <1>        0.000
      3 N1         -3.0124    0.3865   -0.6367 N.am       1 <1>        0.000
      4 C3         -0.9714    0.9114    0.5853 C.3        1 <1>        0.000
      5 C4         -1.3203   -2.1854    1.3469 C.3        1 <1>        0.000
      6 O1         -3.5437   -1.1445    0.8132 O.3        1 <1>        0.000
      7 C6         -4.0584   -0.0953    0.0947 C.2        1 <1>        0.000
      8 C13         0.3297   -3.2380   -0.0474 C.2        1 <1>        0.000
      9 C8         -0.5234    2.1102   -0.2395 C.2        1 <1>        0.000
     10 O2          0.0174   -2.4431    0.9931 O.3        1 <1>        0.000
     11 O3         -5.2075    0.3220    0.1322 O.2        1 <1>        0.000
     12 C12         0.6861    2.9183    0.1466 C.3        1 <1>        0.000
     13 O4         -1.1563    2.4421   -1.2513 O.2        1 <1>        0.000
     14 C16         1.9648    2.1230    0.0756 C.3        1 <1>        0.000
     15 C18         1.7082   -3.0826   -0.5320 C.3        1 <1>        0.000
     16 O5         -0.4518   -4.0044   -0.6025 O.2        1 <1>        0.000
     17 C20         2.3979    1.6749   -1.3080 C.3        1 <1>        0.000
     18 C21         2.4039   -1.7731   -0.4786 C.2        1 <1>        0.000
     19 C24         3.2134    0.4205   -1.5438 C.3        1 <1>        0.000
     20 C26         2.5274   -0.9160   -1.7124 C.3        1 <1>        0.000
     21 O7          2.8174   -1.3562    0.6120 O.2        1 <1>        0.000
     22 H          -0.9669   -0.2914   -0.9464 H.spc      1 <1>        0.000
     23 H          -2.1476   -2.1941   -0.3753 H.spc      1 <1>        0.000
     24 H          -3.1255    1.0396   -1.4120 H.spc      1 <1>        0.000
     25 H          -0.0755    0.4175    0.9615 H.spc      1 <1>        0.000
     26 H          -1.6248    1.2813    1.3755 H.spc      1 <1>        0.000
     27 H          -1.2564   -1.5532    2.2325 H.spc      1 <1>        0.000
     28 H          -1.7815   -3.1700    1.4249 H.spc      1 <1>        0.000
     29 H           0.5535    3.2471    1.1773 H.spc      1 <1>        0.000
     30 H           0.7701    3.7498   -0.5532 H.spc      1 <1>        0.000
     31 H           2.7530    2.7797    0.4439 H.spc      1 <1>        0.000
     32 H           1.7901    1.2131    0.6498 H.spc      1 <1>        0.000
     33 H           2.2924   -3.7158    0.1357 H.spc      1 <1>        0.000
     34 H           1.6355   -3.2961   -1.5984 H.spc      1 <1>        0.000
     35 H           1.4540    1.4579   -1.8080 H.spc      1 <1>        0.000
     36 H           3.0660    2.4728   -1.6321 H.spc      1 <1>        0.000
     37 H           3.7045    0.5942   -2.5012 H.spc      1 <1>        0.000
     38 H           3.8038    0.3078   -0.6345 H.spc      1 <1>        0.000
     39 H           3.1417   -1.4830   -2.4119 H.spc      1 <1>        0.000
     40 H           1.5078   -0.6929   -2.0266 H.spc      1 <1>        0.000
@<TRIPOS>BOND
     1    5   10 1  
     2    1    2 1  
     3    9   12 1  
     4    6    7 1  
     5    2    6 1  
     6    3    7 am 
     7    1    4 1  
     8    1    3 1  
     9    7   11 2  
    10    9   13 2  
    11    2    5 1  
    12    4    9 1  
    13   19   20 1  
    14   18   21 2  
    15   18   20 1  
    16   17   19 1  
    17   15   18 1  
    18   14   17 1  
    19    8   16 2  
    20    8   15 1  
    21   12   14 1  
    22   10    8 1  
    23    1   22 1  
    24    2   23 1  
    25    3   24 1  
    26    4   25 1  
    27    4   26 1  
    28    5   27 1  
    29    5   28 1  
    30   12   29 1  
    31   12   30 1  
    32   14   31 1  
    33   14   32 1  
    34   15   33 1  
    35   15   34 1  
    36   17   35 1  
    37   17   36 1  
    38   19   37 1  
    39   19   38 1  
    40   20   39 1  
    41   20   40 1  
# Name:          frag5-648-76/138278
# Creation time: Sat Jun  5 12:53:50 2010


@<TRIPOS>MOLECULE
frag5-648-76/138278
   40    41     1     1     1
SMALL
USER_CHARGES


@<TRIPOS>ATOM
      1 C1         -2.0107    0.2076   -0.4646 C.3        1 <1>        0.000
      2 C2         -2.2551   -1.2240    0.0029 C.3        1 <1>        0.000
      3 N1         -3.3460    0.5693   -0.8725 N.am       1 <1>        0.000
      4 C3         -1.3649    1.0755    0.6040 C.3        1 <1>        0.000
      5 C4         -1.3019   -1.8719    0.9974 C.3        1 <1>        0.000
      6 O1         -3.6276   -1.2184    0.4211 O.3        1 <1>        0.000
      7 C6         -4.2963   -0.1751   -0.1959 C.2        1 <1>        0.000
      8 C13         0.8405   -2.9016    0.7476 C.2        1 <1>        0.000
      9 C8         -0.4812    2.2618    0.2709 C.2        1 <1>        0.000
     10 O2          0.0622   -1.8179    0.6291 O.3        1 <1>        0.000
     11 O3         -5.4782    0.1168   -0.1528 O.2        1 <1>        0.000
     12 C12         0.9196    2.3095    0.8548 C.3        1 <1>        0.000
     13 O4         -0.9252    3.1872   -0.4170 O.2        1 <1>        0.000
     14 C16         1.8791    1.2992    0.2685 C.3        1 <1>        0.000
     15 C18         2.1578   -2.7937    0.1047 C.3        1 <1>        0.000
     16 O5          0.5379   -3.9326    1.3423 O.2        1 <1>        0.000
     17 C20         2.0245    1.2582   -1.2313 C.3        1 <1>        0.000
     18 C21         2.3899   -2.0035   -1.1150 C.2        1 <1>        0.000
     19 C24         3.0228    0.3237   -1.8865 C.3        1 <1>        0.000
     20 C26         3.4540   -0.9436   -1.1965 C.3        1 <1>        0.000
     21 O7          1.6546   -2.1802   -2.0941 O.2        1 <1>        0.000
     22 H          -1.2820    0.3363   -1.2650 H.spc      1 <1>        0.000
     23 H          -2.0339   -1.8954   -0.8267 H.spc      1 <1>        0.000
     24 H          -3.5620    1.2818   -1.5697 H.spc      1 <1>        0.000
     25 H          -0.6840    0.3889    1.1071 H.spc      1 <1>        0.000
     26 H          -2.2181    1.5314    1.1063 H.spc      1 <1>        0.000
     27 H          -1.3997   -1.3234    1.9343 H.spc      1 <1>        0.000
     28 H          -1.5732   -2.9259    1.0565 H.spc      1 <1>        0.000
     29 H           0.8297    2.0841    1.9174 H.spc      1 <1>        0.000
     30 H           1.3233    3.2976    0.6341 H.spc      1 <1>        0.000
     31 H           2.8623    1.5760    0.6491 H.spc      1 <1>        0.000
     32 H           1.4827    0.3235    0.5496 H.spc      1 <1>        0.000
     33 H           2.7588   -2.2779    0.8536 H.spc      1 <1>        0.000
     34 H           2.3619   -3.8148   -0.2176 H.spc      1 <1>        0.000
     35 H           1.0559    0.9038   -1.5838 H.spc      1 <1>        0.000
     36 H           2.3806    2.2548   -1.4923 H.spc      1 <1>        0.000
     37 H           2.5149   -0.0215   -2.7871 H.spc      1 <1>        0.000
     38 H           3.9362    0.9144   -1.9563 H.spc      1 <1>        0.000
     39 H           3.7162   -0.6758   -0.1729 H.spc      1 <1>        0.000
     40 H           4.2751   -1.3605   -1.7797 H.spc      1 <1>        0.000
@<TRIPOS>BOND
     1    5   10 1  
     2    1    2 1  
     3    9   12 1  
     4    6    7 1  
     5    2    6 1  
     6    3    7 am 
     7    1    4 1  
     8    1    3 1  
     9    7   11 2  
    10    9   13 2  
    11    2    5 1  
    12    4    9 1  
    13   19   20 1  
    14   18   21 2  
    15   18   20 1  
    16   17   19 1  
    17   15   18 1  
    18   14   17 1  
    19    8   16 2  
    20    8   15 1  
    21   12   14 1  
    22   10    8 1  
    23    1   22 1  
    24    2   23 1  
    25    3   24 1  
    26    4   25 1  
    27    4   26 1  
    28    5   27 1  
    29    5   28 1  
    30   12   29 1  
    31   12   30 1  
    32   14   31 1  
    33   14   32 1  
    34   15   33 1  
    35   15   34 1  
    36   17   35 1  
    37   17   36 1  
    38   19   37 1  
    39   19   38 1  
    40   20   39 1  
    41   20   40 1  
# Name:          frag5-648-76/138278
# Creation time: Sat Jun  5 12:53:50 2010


@<TRIPOS>MOLECULE
frag5-648-76/138278
   40    41     1     1     1
SMALL
USER_CHARGES


@<TRIPOS>ATOM
      1 C1         -1.9564   -0.0120   -0.4212 C.3        1 <1>        0.000
      2 C2         -2.1873   -1.3350    0.3054 C.3        1 <1>        0.000
      3 N1         -3.3023    0.3096   -0.7595 N.am       1 <1>        0.000
      4 C3         -1.2085    1.0587    0.3530 C.3        1 <1>        0.000
      5 C4         -1.1768   -1.8674    1.3214 C.3        1 <1>        0.000
      6 O1         -3.5195   -1.2279    0.8015 O.3        1 <1>        0.000
      7 C6         -4.2119   -0.2875    0.0767 C.2        1 <1>        0.000
      8 C13         0.5087   -3.2020    0.2964 C.2        1 <1>        0.000
      9 C8         -0.4712    2.1725   -0.3624 C.2        1 <1>        0.000
     10 O2          0.1506   -2.0599    0.9204 O.3        1 <1>        0.000
     11 O3         -5.4010   -0.0309    0.1728 O.2        1 <1>        0.000
     12 C12         0.8365    2.7135    0.1992 C.3        1 <1>        0.000
     13 O4         -0.9702    2.6986   -1.3662 O.2        1 <1>        0.000
     14 C16         1.9953    1.7463    0.3168 C.3        1 <1>        0.000
     15 C18         1.6186   -3.0105   -0.6467 C.3        1 <1>        0.000
     16 O5         -0.0291   -4.2898    0.4410 O.2        1 <1>        0.000
     17 C20         2.9038    1.5358   -0.8792 C.3        1 <1>        0.000
     18 C21         2.0425   -1.6374   -0.9838 C.2        1 <1>        0.000
     19 C24         3.6817    0.2468   -1.0952 C.3        1 <1>        0.000
     20 C26         3.2769   -1.0217   -0.3953 C.3        1 <1>        0.000
     21 O7          1.2753   -0.9534   -1.6780 O.2        1 <1>        0.000
     22 H          -1.2737   -0.0850   -1.2678 H.spc      1 <1>        0.000
     23 H          -2.0227   -2.1340   -0.4175 H.spc      1 <1>        0.000
     24 H          -3.5613    0.9166   -1.5373 H.spc      1 <1>        0.000
     25 H          -0.4200    0.5092    0.8672 H.spc      1 <1>        0.000
     26 H          -1.9904    1.5757    0.9092 H.spc      1 <1>        0.000
     27 H          -1.1281   -1.1027    2.0966 H.spc      1 <1>        0.000
     28 H          -1.5385   -2.8619    1.5829 H.spc      1 <1>        0.000
     29 H           0.6116    3.0294    1.2179 H.spc      1 <1>        0.000
     30 H           1.1633    3.4813   -0.5021 H.spc      1 <1>        0.000
     31 H           2.6391    2.1726    1.0861 H.spc      1 <1>        0.000
     32 H           1.5328    0.7749    0.4917 H.spc      1 <1>        0.000
     33 H           2.4832   -3.4591   -0.1576 H.spc      1 <1>        0.000
     34 H           1.2645   -3.4337   -1.5867 H.spc      1 <1>        0.000
     35 H           2.2176    1.5619   -1.7257 H.spc      1 <1>        0.000
     36 H           3.6854    2.2822   -0.7375 H.spc      1 <1>        0.000
     37 H           3.5405    0.0243   -2.1529 H.spc      1 <1>        0.000
     38 H           4.6737    0.4647   -0.6995 H.spc      1 <1>        0.000
     39 H           3.0658   -0.7773    0.6458 H.spc      1 <1>        0.000
     40 H           4.0918   -1.7377   -0.5015 H.spc      1 <1>        0.000
@<TRIPOS>BOND
     1    5   10 1  
     2    1    2 1  
     3    9   12 1  
     4    6    7 1  
     5    2    6 1  
     6    3    7 am 
     7    1    4 1  
     8    1    3 1  
     9    7   11 2  
    10    9   13 2  
    11    2    5 1  
    12    4    9 1  
    13   19   20 1  
    14   18   21 2  
    15   18   20 1  
    16   17   19 1  
    17   15   18 1  
    18   14   17 1  
    19    8   16 2  
    20    8   15 1  
    21   12   14 1  
    22   10    8 1  
    23    1   22 1  
    24    2   23 1  
    25    3   24 1  
    26    4   25 1  
    27    4   26 1  
    28    5   27 1  
    29    5   28 1  
    30   12   29 1  
    31   12   30 1  
    32   14   31 1  
    33   14   32 1  
    34   15   33 1  
    35   15   34 1  
    36   17   35 1  
    37   17   36 1  
    38   19   37 1  
    39   19   38 1  
    40   20   39 1  
    41   20   40 1  
# Name:          frag5-648-76/138278
# Creation time: Sat Jun  5 12:53:50 2010


@<TRIPOS>MOLECULE
frag5-648-76/138278
   40    41     1     1     1
SMALL
USER_CHARGES


@<TRIPOS>ATOM
      1 C1         -2.6748    0.5824   -0.1290 C.3        1 <1>        0.000
      2 C2         -2.8253   -0.7456   -0.8491 C.3        1 <1>        0.000
      3 N1         -3.7430    0.4789    0.8099 N.am       1 <1>        0.000
      4 C3         -1.3476    1.0135    0.4898 C.3        1 <1>        0.000
      5 C4         -1.5991   -1.3832   -1.4529 C.3        1 <1>        0.000
      6 O1         -3.5382   -1.5664    0.0719 O.3        1 <1>        0.000
      7 C6         -4.1721   -0.8081    1.0170 C.2        1 <1>        0.000
      8 C13        -0.0143   -2.4391    0.0545 C.2        1 <1>        0.000
      9 C8         -0.1874    1.4914   -0.3632 C.2        1 <1>        0.000
     10 O2         -0.4508   -1.3834   -0.6521 O.3        1 <1>        0.000
     11 O3         -4.9392   -1.1976    1.8729 O.2        1 <1>        0.000
     12 C12         1.1473    1.8197    0.2963 C.3        1 <1>        0.000
     13 O4         -0.3434    1.6508   -1.5792 O.2        1 <1>        0.000
     14 C16         2.3480    2.2417   -0.5262 C.3        1 <1>        0.000
     15 C18         1.3187   -2.1639    0.6257 C.3        1 <1>        0.000
     16 O5         -0.5997   -3.4974    0.2108 O.2        1 <1>        0.000
     17 C20         3.2110    1.2698   -1.3048 C.3        1 <1>        0.000
     18 C21         2.3708   -1.5550   -0.2245 C.2        1 <1>        0.000
     19 C24         4.0887    0.2165   -0.6435 C.3        1 <1>        0.000
     20 C26         3.5291   -0.7846    0.3381 C.3        1 <1>        0.000
     21 O7          2.2771   -1.6941   -1.4453 O.2        1 <1>        0.000
     22 H          -2.7008    1.3978   -0.8519 H.spc      1 <1>        0.000
     23 H          -3.3603   -0.5844   -1.7850 H.spc      1 <1>        0.000
     24 H          -4.1500    1.2856    1.2831 H.spc      1 <1>        0.000
     25 H          -0.9699    0.1016    0.9523 H.spc      1 <1>        0.000
     26 H          -1.6111    1.8899    1.0819 H.spc      1 <1>        0.000
     27 H          -1.8517   -2.4292   -1.6265 H.spc      1 <1>        0.000
     28 H          -1.3544   -0.7978   -2.3392 H.spc      1 <1>        0.000
     29 H           1.4564    0.8764    0.7466 H.spc      1 <1>        0.000
     30 H           0.9289    2.6942    0.9092 H.spc      1 <1>        0.000
     31 H           1.9039    2.8559   -1.3096 H.spc      1 <1>        0.000
     32 H           3.0349    2.6303    0.2257 H.spc      1 <1>        0.000
     33 H           1.1361   -1.4268    1.4076 H.spc      1 <1>        0.000
     34 H           1.7126   -3.1452    0.8903 H.spc      1 <1>        0.000
     35 H           2.4792    0.6732   -1.8495 H.spc      1 <1>        0.000
     36 H           3.9352    1.9214   -1.7938 H.spc      1 <1>        0.000
     37 H           4.4235   -0.4002   -1.4776 H.spc      1 <1>        0.000
     38 H           4.7865    0.8018   -0.0447 H.spc      1 <1>        0.000
     39 H           3.1763   -0.2374    1.2123 H.spc      1 <1>        0.000
     40 H           4.3192   -1.4950    0.5813 H.spc      1 <1>        0.000
@<TRIPOS>BOND
     1    5   10 1  
     2    1    2 1  
     3    9   12 1  
     4    6    7 1  
     5    2    6 1  
     6    3    7 am 
     7    1    4 1  
     8    1    3 1  
     9    7   11 2  
    10    9   13 2  
    11    2    5 1  
    12    4    9 1  
    13   19   20 1  
    14   18   21 2  
    15   18   20 1  
    16   17   19 1  
    17   15   18 1  
    18   14   17 1  
    19    8   16 2  
    20    8   15 1  
    21   12   14 1  
    22   10    8 1  
    23    1   22 1  
    24    2   23 1  
    25    3   24 1  
    26    4   25 1  
    27    4   26 1  
    28    5   27 1  
    29    5   28 1  
    30   12   29 1  
    31   12   30 1  
    32   14   31 1  
    33   14   32 1  
    34   15   33 1  
    35   15   34 1  
    36   17   35 1  
    37   17   36 1  
    38   19   37 1  
    39   19   38 1  
    40   20   39 1  
    41   20   40 1  
# Name:          frag5-648-76/138278
# Creation time: Sat Jun  5 12:53:50 2010


@<TRIPOS>MOLECULE
frag5-648-76/138278
   40    41     1     1     1
SMALL
USER_CHARGES


@<TRIPOS>ATOM
      1 C1         -1.8774    0.1840   -0.2412 C.3        1 <1>        0.000
      2 C2         -2.2009   -1.2208    0.1885 C.3        1 <1>        0.000
      3 N1         -3.1761    0.6504   -0.5847 N.am       1 <1>        0.000
      4 C3         -1.1455    1.0753    0.7305 C.3        1 <1>        0.000
      5 C4         -1.2171   -1.9457    1.0951 C.3        1 <1>        0.000
      6 O1         -3.5425   -1.1497    0.6356 O.3        1 <1>        0.000
      7 C6         -4.1602   -0.0558    0.0738 C.2        1 <1>        0.000
      8 C13         0.6367   -3.1308    0.1756 C.2        1 <1>        0.000
      9 C8         -0.6746    2.3675    0.1188 C.2        1 <1>        0.000
     10 O2          0.1532   -1.9991    0.7325 O.3        1 <1>        0.000
     11 O3         -5.3500    0.2366    0.1411 O.2        1 <1>        0.000
     12 C12         0.7443    2.8361    0.3430 C.3        1 <1>        0.000
     13 O4         -1.4356    3.0321   -0.5736 O.2        1 <1>        0.000
     14 C16         1.7912    2.3696   -0.6468 C.3        1 <1>        0.000
     15 C18         2.1042   -3.1620    0.0153 C.3        1 <1>        0.000
     16 O5         -0.0544   -4.0755   -0.1845 O.2        1 <1>        0.000
     17 C20         2.2651    0.9214   -0.6879 C.3        1 <1>        0.000
     18 C21         2.8802   -2.1307   -0.6991 C.2        1 <1>        0.000
     19 C24         1.8128    0.0056   -1.7946 C.3        1 <1>        0.000
     20 C26         2.2851   -1.4341   -1.9082 C.3        1 <1>        0.000
     21 O7          4.0174   -1.8282   -0.3122 O.2        1 <1>        0.000
     22 H          -1.1335    0.2012   -1.0377 H.spc      1 <1>        0.000
     23 H          -2.0854   -1.9036   -0.6533 H.spc      1 <1>        0.000
     24 H          -3.3572    1.4130   -1.2374 H.spc      1 <1>        0.000
     25 H          -0.2639    0.5336    1.0731 H.spc      1 <1>        0.000
     26 H          -1.8391    1.3255    1.5332 H.spc      1 <1>        0.000
     27 H          -1.2355   -1.3851    2.0297 H.spc      1 <1>        0.000
     28 H          -1.5469   -2.9846    1.0886 H.spc      1 <1>        0.000
     29 H           1.0435    2.4240    1.3067 H.spc      1 <1>        0.000
     30 H           0.7152    3.9220    0.2534 H.spc      1 <1>        0.000
     31 H           1.3132    2.5131   -1.6159 H.spc      1 <1>        0.000
     32 H           2.6838    2.9259   -0.3608 H.spc      1 <1>        0.000
     33 H           2.4593   -3.0613    1.0409 H.spc      1 <1>        0.000
     34 H           2.2590   -4.0478   -0.6008 H.spc      1 <1>        0.000
     35 H           3.3445    0.9940   -0.8214 H.spc      1 <1>        0.000
     36 H           1.8520    0.4761    0.2172 H.spc      1 <1>        0.000
     37 H           0.7419   -0.0938   -1.6175 H.spc      1 <1>        0.000
     38 H           2.2175    0.4750   -2.6912 H.spc      1 <1>        0.000
     39 H           3.0991   -1.3990   -2.6323 H.spc      1 <1>        0.000
     40 H           1.3823   -2.0015   -2.1344 H.spc      1 <1>        0.000
@<TRIPOS>BOND
     1    5   10 1  
     2    1    2 1  
     3    9   12 1  
     4    6    7 1  
     5    2    6 1  
     6    3    7 am 
     7    1    4 1  
     8    1    3 1  
     9    7   11 2  
    10    9   13 2  
    11    2    5 1  
    12    4    9 1  
    13   19   20 1  
    14   18   21 2  
    15   18   20 1  
    16   17   19 1  
    17   15   18 1  
    18   14   17 1  
    19    8   16 2  
    20    8   15 1  
    21   12   14 1  
    22   10    8 1  
    23    1   22 1  
    24    2   23 1  
    25    3   24 1  
    26    4   25 1  
    27    4   26 1  
    28    5   27 1  
    29    5   28 1  
    30   12   29 1  
    31   12   30 1  
    32   14   31 1  
    33   14   32 1  
    34   15   33 1  
    35   15   34 1  
    36   17   35 1  
    37   17   36 1  
    38   19   37 1  
    39   19   38 1  
    40   20   39 1  
    41   20   40 1  
# Name:          frag5-648-76/138278
# Creation time: Sat Jun  5 12:53:50 2010


@<TRIPOS>MOLECULE
frag5-648-76/138278
   40    41     1     1     1
SMALL
USER_CHARGES


@<TRIPOS>ATOM
      1 C1         -2.0163    0.1062   -0.4050 C.3        1 <1>        0.000
      2 C2         -2.1478   -1.2184    0.3101 C.3        1 <1>        0.000
      3 N1         -3.3780    0.3854   -0.5528 N.am       1 <1>        0.000
      4 C3         -1.2795    1.1992    0.3398 C.3        1 <1>        0.000
      5 C4         -0.9550   -1.7787    1.0510 C.3        1 <1>        0.000
      6 O1         -3.3267   -1.0537    1.1009 O.3        1 <1>        0.000
      7 C6         -4.0959   -0.0755    0.5264 C.2        1 <1>        0.000
      8 C13         0.3715   -2.9146   -0.4920 C.2        1 <1>        0.000
      9 C8         -0.8468    2.4044   -0.4667 C.2        1 <1>        0.000
     10 O2          0.2693   -1.8936    0.3745 O.3        1 <1>        0.000
     11 O3         -5.1679    0.2878    0.9610 O.2        1 <1>        0.000
     12 C12         0.4484    3.1238   -0.1626 C.3        1 <1>        0.000
     13 O4         -1.5823    2.8253   -1.3647 O.2        1 <1>        0.000
     14 C16         1.5679    2.2220    0.2618 C.3        1 <1>        0.000
     15 C18         1.7081   -3.1692   -1.0409 C.3        1 <1>        0.000
     16 O5         -0.5718   -3.6324   -0.8240 O.2        1 <1>        0.000
     17 C20         2.0194    1.1784   -0.7314 C.3        1 <1>        0.000
     18 C21         2.9629   -2.4399   -0.7648 C.2        1 <1>        0.000
     19 C24         2.8115    0.0085   -0.2102 C.3        1 <1>        0.000
     20 C26         3.2389   -1.0299   -1.2147 C.3        1 <1>        0.000
     21 O7          3.8260   -2.9885   -0.0788 O.2        1 <1>        0.000
     22 H          -1.4111    0.0588   -1.3103 H.spc      1 <1>        0.000
     23 H          -2.2137   -2.0200   -0.4256 H.spc      1 <1>        0.000
     24 H          -3.7853    0.8670   -1.3544 H.spc      1 <1>        0.000
     25 H          -0.3617    0.7422    0.7098 H.spc      1 <1>        0.000
     26 H          -1.9785    1.5751    1.0869 H.spc      1 <1>        0.000
     27 H          -0.7661   -1.0707    1.8579 H.spc      1 <1>        0.000
     28 H          -1.2348   -2.8014    1.3036 H.spc      1 <1>        0.000
     29 H           0.2515    3.8036    0.6664 H.spc      1 <1>        0.000
     30 H           0.7647    3.6183   -1.0811 H.spc      1 <1>        0.000
     31 H           2.4284    2.8711    0.4241 H.spc      1 <1>        0.000
     32 H           1.1956    1.6706    1.1252 H.spc      1 <1>        0.000
     33 H           1.9316   -4.1415   -0.6019 H.spc      1 <1>        0.000
     34 H           1.5518   -2.9241   -2.0914 H.spc      1 <1>        0.000
     35 H           1.1039    0.7507   -1.1400 H.spc      1 <1>        0.000
     36 H           2.6875    1.6995   -1.4171 H.spc      1 <1>        0.000
     37 H           3.7326    0.4289    0.1935 H.spc      1 <1>        0.000
     38 H           2.1546   -0.5074    0.4900 H.spc      1 <1>        0.000
     39 H           4.3157   -0.9322   -1.3527 H.spc      1 <1>        0.000
     40 H           2.6711   -0.8580   -2.1291 H.spc      1 <1>        0.000
@<TRIPOS>BOND
     1    5   10 1  
     2    1    2 1  
     3    9   12 1  
     4    6    7 1  
     5    2    6 1  
     6    3    7 am 
     7    1    4 1  
     8    1    3 1  
     9    7   11 2  
    10    9   13 2  
    11    2    5 1  
    12    4    9 1  
    13   19   20 1  
    14   18   21 2  
    15   18   20 1  
    16   17   19 1  
    17   15   18 1  
    18   14   17 1  
    19    8   16 2  
    20    8   15 1  
    21   12   14 1  
    22   10    8 1  
    23    1   22 1  
    24    2   23 1  
    25    3   24 1  
    26    4   25 1  
    27    4   26 1  
    28    5   27 1  
    29    5   28 1  
    30   12   29 1  
    31   12   30 1  
    32   14   31 1  
    33   14   32 1  
    34   15   33 1  
    35   15   34 1  
    36   17   35 1  
    37   17   36 1  
    38   19   37 1  
    39   19   38 1  
    40   20   39 1  
    41   20   40 1  
# Name:          frag5-648-76/138278
# Creation time: Sat Jun  5 12:53:50 2010


@<TRIPOS>MOLECULE
frag5-648-76/138278
   40    41     1     1     1
SMALL
USER_CHARGES


@<TRIPOS>ATOM
      1 C1         -2.0597    0.1822   -0.3911 C.3        1 <1>        0.000
      2 C2         -2.4167   -1.2594   -0.2253 C.3        1 <1>        0.000
      3 N1         -3.3691    0.7582   -0.4896 N.am       1 <1>        0.000
      4 C3         -1.1766    0.8362    0.6578 C.3        1 <1>        0.000
      5 C4         -1.4756   -2.2771    0.3350 C.3        1 <1>        0.000
      6 O1         -3.6931   -1.1988    0.4546 O.3        1 <1>        0.000
      7 C6         -4.2968    0.0076    0.1762 C.2        1 <1>        0.000
      8 C13         0.8405   -2.5655    0.4942 C.2        1 <1>        0.000
      9 C8         -0.6610    2.1983    0.2833 C.2        1 <1>        0.000
     10 O2         -0.2570   -2.5065   -0.2823 O.3        1 <1>        0.000
     11 O3         -5.4363    0.3247    0.4780 O.2        1 <1>        0.000
     12 C12         0.7881    2.5490    0.4345 C.3        1 <1>        0.000
     13 O4         -1.4198    3.0453   -0.1977 O.2        1 <1>        0.000
     14 C16         1.5342    2.1030   -0.8076 C.3        1 <1>        0.000
     15 C18         2.0336   -3.1166   -0.1580 C.3        1 <1>        0.000
     16 O5          0.9201   -2.1541    1.6517 O.2        1 <1>        0.000
     17 C20         1.7921    0.6196   -1.0115 C.3        1 <1>        0.000
     18 C21         2.7797   -2.3447   -1.1695 C.2        1 <1>        0.000
     19 C24         3.1417    0.1577   -0.5209 C.3        1 <1>        0.000
     20 C26         3.6856   -1.2356   -0.7275 C.3        1 <1>        0.000
     21 O7          2.6017   -2.5773   -2.3671 O.2        1 <1>        0.000
     22 H          -1.3966    0.3361   -1.2424 H.spc      1 <1>        0.000
     23 H          -2.3984   -1.7019   -1.2213 H.spc      1 <1>        0.000
     24 H          -3.5813    1.6195   -0.9931 H.spc      1 <1>        0.000
     25 H          -0.3069    0.1920    0.7872 H.spc      1 <1>        0.000
     26 H          -1.7864    0.9624    1.5524 H.spc      1 <1>        0.000
     27 H          -1.2139   -1.8930    1.3210 H.spc      1 <1>        0.000
     28 H          -2.0101   -3.2226    0.2433 H.spc      1 <1>        0.000
     29 H           1.1988    2.0474    1.3107 H.spc      1 <1>        0.000
     30 H           0.8949    3.6263    0.5613 H.spc      1 <1>        0.000
     31 H           0.8966    2.3967   -1.6415 H.spc      1 <1>        0.000
     32 H           2.5232    2.5529   -0.7205 H.spc      1 <1>        0.000
     33 H           2.7463   -3.2364    0.6580 H.spc      1 <1>        0.000
     34 H           1.6560   -3.9766   -0.7111 H.spc      1 <1>        0.000
     35 H           1.0380    0.0789   -0.4395 H.spc      1 <1>        0.000
     36 H           1.7560    0.4298   -2.0842 H.spc      1 <1>        0.000
     37 H           3.8305    0.7722   -1.1005 H.spc      1 <1>        0.000
     38 H           3.0354    0.2152    0.5624 H.spc      1 <1>        0.000
     39 H           4.0240   -1.5423    0.2622 H.spc      1 <1>        0.000
     40 H           4.3986   -1.1281   -1.5449 H.spc      1 <1>        0.000
@<TRIPOS>BOND
     1    5   10 1  
     2    1    2 1  
     3    9   12 1  
     4    6    7 1  
     5    2    6 1  
     6    3    7 am 
     7    1    4 1  
     8    1    3 1  
     9    7   11 2  
    10    9   13 2  
    11    2    5 1  
    12    4    9 1  
    13   19   20 1  
    14   18   21 2  
    15   18   20 1  
    16   17   19 1  
    17   15   18 1  
    18   14   17 1  
    19    8   16 2  
    20    8   15 1  
    21   12   14 1  
    22   10    8 1  
    23    1   22 1  
    24    2   23 1  
    25    3   24 1  
    26    4   25 1  
    27    4   26 1  
    28    5   27 1  
    29    5   28 1  
    30   12   29 1  
    31   12   30 1  
    32   14   31 1  
    33   14   32 1  
    34   15   33 1  
    35   15   34 1  
    36   17   35 1  
    37   17   36 1  
    38   19   37 1  
    39   19   38 1  
    40   20   39 1  
    41   20   40 1  
# Name:          frag5-648-76/138278
# Creation time: Sat Jun  5 12:53:50 2010


@<TRIPOS>MOLECULE
frag5-648-76/138278
   40    41     1     1     1
SMALL
USER_CHARGES


@<TRIPOS>ATOM
      1 C1         -1.9540    0.1177   -0.3648 C.3        1 <1>        0.000
      2 C2         -2.1718   -1.2643    0.2274 C.3        1 <1>        0.000
      3 N1         -3.3143    0.4302   -0.6395 N.am       1 <1>        0.000
      4 C3         -1.2105    1.0867    0.5517 C.3        1 <1>        0.000
      5 C4         -1.0623   -1.9076    1.0273 C.3        1 <1>        0.000
      6 O1         -3.4316   -1.1588    0.8789 O.3        1 <1>        0.000
      7 C6         -4.1749   -0.1840    0.2483 C.2        1 <1>        0.000
      8 C13         0.4288   -3.0842   -0.4107 C.2        1 <1>        0.000
      9 C8         -0.6269    2.4152    0.0998 C.2        1 <1>        0.000
     10 O2          0.1863   -2.0511    0.4216 O.3        1 <1>        0.000
     11 O3         -5.3454    0.0706    0.4600 O.2        1 <1>        0.000
     12 C12         0.8742    2.6749    0.0534 C.3        1 <1>        0.000
     13 O4         -1.3913    3.3332   -0.2179 O.2        1 <1>        0.000
     14 C16         1.5249    2.4964   -1.2958 C.3        1 <1>        0.000
     15 C18         1.8445   -3.1863   -0.7948 C.3        1 <1>        0.000
     16 O5         -0.4113   -3.8626   -0.8269 O.2        1 <1>        0.000
     17 C20         2.5003    1.3703   -1.5651 C.3        1 <1>        0.000
     18 C21         2.8534   -2.2700   -0.2128 C.2        1 <1>        0.000
     19 C24         2.2212    0.0105   -0.9867 C.3        1 <1>        0.000
     20 C26         3.2856   -1.0559   -0.9828 C.3        1 <1>        0.000
     21 O7          3.2306   -2.4344    0.9465 O.2        1 <1>        0.000
     22 H          -1.2906    0.1777   -1.2276 H.spc      1 <1>        0.000
     23 H          -2.1606   -2.0084   -0.5690 H.spc      1 <1>        0.000
     24 H          -3.6178    1.0361   -1.4018 H.spc      1 <1>        0.000
     25 H          -0.3225    0.5185    0.8287 H.spc      1 <1>        0.000
     26 H          -1.9863    1.3938    1.2530 H.spc      1 <1>        0.000
     27 H          -0.8965   -1.2439    1.8759 H.spc      1 <1>        0.000
     28 H          -1.4035   -2.9230    1.2287 H.spc      1 <1>        0.000
     29 H           1.3354    1.9449    0.7186 H.spc      1 <1>        0.000
     30 H           1.0164    3.7196    0.3299 H.spc      1 <1>        0.000
     31 H           0.6884    2.2787   -1.9599 H.spc      1 <1>        0.000
     32 H           2.1293    3.3959   -1.4127 H.spc      1 <1>        0.000
     33 H           2.1460   -4.1732   -0.4437 H.spc      1 <1>        0.000
     34 H           1.8504   -2.9490   -1.8586 H.spc      1 <1>        0.000
     35 H           2.4728    1.2271   -2.6453 H.spc      1 <1>        0.000
     36 H           3.4324    1.6883   -1.0980 H.spc      1 <1>        0.000
     37 H           2.0322    0.2031    0.0694 H.spc      1 <1>        0.000
     38 H           1.4379   -0.3962   -1.6264 H.spc      1 <1>        0.000
     39 H           4.1781   -0.6482   -0.5081 H.spc      1 <1>        0.000
     40 H           3.4769   -1.3535   -2.0138 H.spc      1 <1>        0.000
@<TRIPOS>BOND
     1    5   10 1  
     2    1    2 1  
     3    9   12 1  
     4    6    7 1  
     5    2    6 1  
     6    3    7 am 
     7    1    4 1  
     8    1    3 1  
     9    7   11 2  
    10    9   13 2  
    11    2    5 1  
    12    4    9 1  
    13   19   20 1  
    14   18   21 2  
    15   18   20 1  
    16   17   19 1  
    17   15   18 1  
    18   14   17 1  
    19    8   16 2  
    20    8   15 1  
    21   12   14 1  
    22   10    8 1  
    23    1   22 1  
    24    2   23 1  
    25    3   24 1  
    26    4   25 1  
    27    4   26 1  
    28    5   27 1  
    29    5   28 1  
    30   12   29 1  
    31   12   30 1  
    32   14   31 1  
    33   14   32 1  
    34   15   33 1  
    35   15   34 1  
    36   17   35 1  
    37   17   36 1  
    38   19   37 1  
    39   19   38 1  
    40   20   39 1  
    41   20   40 1  
# Name:          frag5-648-76/138278
# Creation time: Sat Jun  5 12:53:50 2010


@<TRIPOS>MOLECULE
frag5-648-76/138278
   40    41     1     1     1
SMALL
USER_CHARGES


@<TRIPOS>ATOM
      1 C1         -1.7987    0.1505   -0.4405 C.3        1 <1>        0.000
      2 C2         -2.1190   -1.1436    0.2807 C.3        1 <1>        0.000
      3 N1         -3.0026    0.2544   -1.2014 N.am       1 <1>        0.000
      4 C3         -1.4571    1.3395    0.4605 C.3        1 <1>        0.000
      5 C4         -1.3360   -1.5332    1.5321 C.3        1 <1>        0.000
      6 O1         -3.5432   -1.1149    0.3993 O.3        1 <1>        0.000
      7 C6         -4.0744   -0.3844   -0.6302 C.2        1 <1>        0.000
      8 C13         0.5284   -2.7471    0.7388 C.2        1 <1>        0.000
      9 C8         -0.0198    1.6091    0.8578 C.2        1 <1>        0.000
     10 O2          0.0543   -1.7134    1.4476 O.3        1 <1>        0.000
     11 O3         -5.2464   -0.3287   -0.9416 O.2        1 <1>        0.000
     12 C12         0.7799    2.7563    0.2701 C.3        1 <1>        0.000
     13 O4          0.5401    0.8708    1.6770 O.2        1 <1>        0.000
     14 C16         2.0684    2.2789   -0.3601 C.3        1 <1>        0.000
     15 C18         1.8459   -2.5258    0.1186 C.3        1 <1>        0.000
     16 O5         -0.1046   -3.7752    0.5126 O.2        1 <1>        0.000
     17 C20         1.8217    1.3715   -1.5378 C.3        1 <1>        0.000
     18 C21         1.9583   -1.6955   -1.0987 C.2        1 <1>        0.000
     19 C24         2.8112    0.4203   -2.1612 C.3        1 <1>        0.000
     20 C26         3.1671   -0.8651   -1.4412 C.3        1 <1>        0.000
     21 O7          0.9822   -1.6779   -1.8652 O.2        1 <1>        0.000
     22 H          -0.8805    0.1550   -1.0278 H.spc      1 <1>        0.000
     23 H          -1.7479   -1.9872   -0.3013 H.spc      1 <1>        0.000
     24 H          -3.0605    0.7568   -2.0872 H.spc      1 <1>        0.000
     25 H          -1.9607    1.1187    1.4017 H.spc      1 <1>        0.000
     26 H          -1.7441    2.2132   -0.1247 H.spc      1 <1>        0.000
     27 H          -1.4658   -0.6923    2.2134 H.spc      1 <1>        0.000
     28 H          -1.7262   -2.5124    1.8098 H.spc      1 <1>        0.000
     29 H           1.0283    3.4480    1.0750 H.spc      1 <1>        0.000
     30 H           0.1771    3.2332   -0.5027 H.spc      1 <1>        0.000
     31 H           2.6180    3.1516   -0.7127 H.spc      1 <1>        0.000
     32 H           2.6263    1.7182    0.3899 H.spc      1 <1>        0.000
     33 H           2.4148   -1.9824    0.8730 H.spc      1 <1>        0.000
     34 H           2.1691   -3.5178   -0.1969 H.spc      1 <1>        0.000
     35 H           1.0789    0.6835   -1.1341 H.spc      1 <1>        0.000
     36 H           1.6706    2.0910   -2.3425 H.spc      1 <1>        0.000
     37 H           2.3370    0.0961   -3.0876 H.spc      1 <1>        0.000
     38 H           3.7449    0.9811   -2.2034 H.spc      1 <1>        0.000
     39 H           3.6645   -0.5988   -0.5086 H.spc      1 <1>        0.000
     40 H           3.8005   -1.4548   -2.1039 H.spc      1 <1>        0.000
@<TRIPOS>BOND
     1    5   10 1  
     2    1    2 1  
     3    9   12 1  
     4    6    7 1  
     5    2    6 1  
     6    3    7 am 
     7    1    4 1  
     8    1    3 1  
     9    7   11 2  
    10    9   13 2  
    11    2    5 1  
    12    4    9 1  
    13   19   20 1  
    14   18   21 2  
    15   18   20 1  
    16   17   19 1  
    17   15   18 1  
    18   14   17 1  
    19    8   16 2  
    20    8   15 1  
    21   12   14 1  
    22   10    8 1  
    23    1   22 1  
    24    2   23 1  
    25    3   24 1  
    26    4   25 1  
    27    4   26 1  
    28    5   27 1  
    29    5   28 1  
    30   12   29 1  
    31   12   30 1  
    32   14   31 1  
    33   14   32 1  
    34   15   33 1  
    35   15   34 1  
    36   17   35 1  
    37   17   36 1  
    38   19   37 1  
    39   19   38 1  
    40   20   39 1  
    41   20   40 1  
# Name:          frag5-648-76/138278
# Creation time: Sat Jun  5 12:53:50 2010


@<TRIPOS>MOLECULE
frag5-648-76/138278
   40    41     1     1     1
SMALL
USER_CHARGES


@<TRIPOS>ATOM
      1 C1         -1.7547    0.0610   -0.2253 C.3        1 <1>        0.000
      2 C2         -2.0482   -1.2754    0.4181 C.3        1 <1>        0.000
      3 N1         -3.0629    0.3974   -0.6491 N.am       1 <1>        0.000
      4 C3         -1.1358    1.1439    0.6407 C.3        1 <1>        0.000
      5 C4         -1.0310   -1.9258    1.3459 C.3        1 <1>        0.000
      6 O1         -3.3643   -1.1050    0.9342 O.3        1 <1>        0.000
      7 C6         -3.9812   -0.0823    0.2478 C.2        1 <1>        0.000
      8 C13         0.4874   -3.0907   -0.0266 C.2        1 <1>        0.000
      9 C8         -0.7304    2.3870   -0.1174 C.2        1 <1>        0.000
     10 O2          0.2860   -2.1260    0.8930 O.3        1 <1>        0.000
     11 O3         -5.1119    0.3623    0.4110 O.2        1 <1>        0.000
     12 C12         0.6500    2.9447    0.0259 C.3        1 <1>        0.000
     13 O4         -1.5049    2.9210   -0.9064 O.2        1 <1>        0.000
     14 C16         1.5579    2.2917   -0.9836 C.3        1 <1>        0.000
     15 C18         1.8420   -3.2023   -0.5807 C.3        1 <1>        0.000
     16 O5         -0.3944   -3.8478   -0.4093 O.2        1 <1>        0.000
     17 C20         1.8515    0.8147   -1.0652 C.3        1 <1>        0.000
     18 C21         2.7109   -2.1152   -1.0733 C.2        1 <1>        0.000
     19 C24         2.3793    0.0911    0.1413 C.3        1 <1>        0.000
     20 C26         3.2720   -1.0873   -0.1202 C.3        1 <1>        0.000
     21 O7          2.9384   -2.0106   -2.2836 O.2        1 <1>        0.000
     22 H          -0.9780   -0.0121   -0.9866 H.spc      1 <1>        0.000
     23 H          -1.9632   -2.0642   -0.3294 H.spc      1 <1>        0.000
     24 H          -3.2884    0.9192   -1.4960 H.spc      1 <1>        0.000
     25 H          -0.2303    0.7257    1.0805 H.spc      1 <1>        0.000
     26 H          -1.8893    1.4429    1.3693 H.spc      1 <1>        0.000
     27 H          -0.9351   -1.2335    2.1823 H.spc      1 <1>        0.000
     28 H          -1.4190   -2.9286    1.5245 H.spc      1 <1>        0.000
     29 H           1.0208    2.7473    1.0317 H.spc      1 <1>        0.000
     30 H           0.6284    4.0210   -0.1451 H.spc      1 <1>        0.000
     31 H           1.0294    2.4731   -1.9195 H.spc      1 <1>        0.000
     32 H           2.5311    2.7053   -0.7191 H.spc      1 <1>        0.000
     33 H           2.4001   -3.5388    0.2930 H.spc      1 <1>        0.000
     34 H           1.6483   -3.7513   -1.5022 H.spc      1 <1>        0.000
     35 H           0.8836    0.3529   -1.2604 H.spc      1 <1>        0.000
     36 H           2.6487    0.7338   -1.8041 H.spc      1 <1>        0.000
     37 H           2.9868    0.8147    0.6849 H.spc      1 <1>        0.000
     38 H           1.5065   -0.3018    0.6628 H.spc      1 <1>        0.000
     39 H           3.4161   -1.5907    0.8358 H.spc      1 <1>        0.000
     40 H           4.1811   -0.6974   -0.5780 H.spc      1 <1>        0.000
@<TRIPOS>BOND
     1    5   10 1  
     2    1    2 1  
     3    9   12 1  
     4    6    7 1  
     5    2    6 1  
     6    3    7 am 
     7    1    4 1  
     8    1    3 1  
     9    7   11 2  
    10    9   13 2  
    11    2    5 1  
    12    4    9 1  
    13   19   20 1  
    14   18   21 2  
    15   18   20 1  
    16   17   19 1  
    17   15   18 1  
    18   14   17 1  
    19    8   16 2  
    20    8   15 1  
    21   12   14 1  
    22   10    8 1  
    23    1   22 1  
    24    2   23 1  
    25    3   24 1  
    26    4   25 1  
    27    4   26 1  
    28    5   27 1  
    29    5   28 1  
    30   12   29 1  
    31   12   30 1  
    32   14   31 1  
    33   14   32 1  
    34   15   33 1  
    35   15   34 1  
    36   17   35 1  
    37   17   36 1  
    38   19   37 1  
    39   19   38 1  
    40   20   39 1  
    41   20   40 1  
# Name:          frag5-648-76/138278
# Creation time: Sat Jun  5 12:53:50 2010


@<TRIPOS>MOLECULE
frag5-648-76/138278
   40    41     1     1     1
SMALL
USER_CHARGES


@<TRIPOS>ATOM
      1 C1         -2.1394    0.2141   -0.3142 C.3        1 <1>        0.000
      2 C2         -2.2837   -1.1732    0.2682 C.3        1 <1>        0.000
      3 N1         -3.5057    0.5399   -0.5139 N.am       1 <1>        0.000
      4 C3         -1.3831    1.1912    0.5606 C.3        1 <1>        0.000
      5 C4         -1.1069   -1.7672    1.0305 C.3        1 <1>        0.000
      6 O1         -3.5362   -1.1176    0.9457 O.3        1 <1>        0.000
      7 C6         -4.3265   -0.1315    0.3705 C.2        1 <1>        0.000
      8 C13         0.5437   -2.7210   -0.3535 C.2        1 <1>        0.000
      9 C8         -0.6606    2.3127   -0.1290 C.2        1 <1>        0.000
     10 O2          0.1968   -1.7336    0.4903 O.3        1 <1>        0.000
     11 O3         -5.4948    0.1145    0.6018 O.2        1 <1>        0.000
     12 C12         0.7818    2.5676    0.2293 C.3        1 <1>        0.000
     13 O4         -1.2372    3.0046   -0.9720 O.2        1 <1>        0.000
     14 C16         1.7121    1.4357   -0.1334 C.3        1 <1>        0.000
     15 C18         1.9780   -2.9554   -0.5819 C.3        1 <1>        0.000
     16 O5         -0.2805   -3.4370   -0.9188 O.2        1 <1>        0.000
     17 C20         1.6264    0.8551   -1.5281 C.3        1 <1>        0.000
     18 C21         3.1294   -2.0947   -0.2156 C.2        1 <1>        0.000
     19 C24         2.5148   -0.2868   -1.9693 C.3        1 <1>        0.000
     20 C26         3.5343   -0.8964   -1.0410 C.3        1 <1>        0.000
     21 O7          3.7929   -2.3746    0.7910 O.2        1 <1>        0.000
     22 H          -1.5273    0.2610   -1.2149 H.spc      1 <1>        0.000
     23 H          -2.2696   -1.9278   -0.5182 H.spc      1 <1>        0.000
     24 H          -3.8408    1.1907   -1.2242 H.spc      1 <1>        0.000
     25 H          -0.6117    0.6053    1.0603 H.spc      1 <1>        0.000
     26 H          -2.1344    1.6666    1.1912 H.spc      1 <1>        0.000
     27 H          -1.0374   -1.1556    1.9301 H.spc      1 <1>        0.000
     28 H          -1.3408   -2.8299    1.0937 H.spc      1 <1>        0.000
     29 H           0.8297    2.6922    1.3111 H.spc      1 <1>        0.000
     30 H           1.1047    3.4447   -0.3316 H.spc      1 <1>        0.000
     31 H           2.7156    1.8545   -0.0586 H.spc      1 <1>        0.000
     32 H           1.4421    0.6177    0.5345 H.spc      1 <1>        0.000
     33 H           2.1503   -3.8137    0.0676 H.spc      1 <1>        0.000
     34 H           2.0224   -2.9032   -1.6697 H.spc      1 <1>        0.000
     35 H           0.6222    0.4334   -1.5715 H.spc      1 <1>        0.000
     36 H           1.9286    1.6815   -2.1714 H.spc      1 <1>        0.000
     37 H           1.8160   -1.1015   -2.1592 H.spc      1 <1>        0.000
     38 H           3.1167    0.1458   -2.7685 H.spc      1 <1>        0.000
     39 H           3.7641   -0.1151   -0.3165 H.spc      1 <1>        0.000
     40 H           4.3339   -1.2537   -1.6900 H.spc      1 <1>        0.000
@<TRIPOS>BOND
     1    5   10 1  
     2    1    2 1  
     3    9   12 1  
     4    6    7 1  
     5    2    6 1  
     6    3    7 am 
     7    1    4 1  
     8    1    3 1  
     9    7   11 2  
    10    9   13 2  
    11    2    5 1  
    12    4    9 1  
    13   19   20 1  
    14   18   21 2  
    15   18   20 1  
    16   17   19 1  
    17   15   18 1  
    18   14   17 1  
    19    8   16 2  
    20    8   15 1  
    21   12   14 1  
    22   10    8 1  
    23    1   22 1  
    24    2   23 1  
    25    3   24 1  
    26    4   25 1  
    27    4   26 1  
    28    5   27 1  
    29    5   28 1  
    30   12   29 1  
    31   12   30 1  
    32   14   31 1  
    33   14   32 1  
    34   15   33 1  
    35   15   34 1  
    36   17   35 1  
    37   17   36 1  
    38   19   37 1  
    39   19   38 1  
    40   20   39 1  
    41   20   40 1  
# Name:          frag5-648-76/138278
# Creation time: Sat Jun  5 12:53:50 2010


@<TRIPOS>MOLECULE
frag5-648-76/138278
   40    41     1     1     1
SMALL
USER_CHARGES


@<TRIPOS>ATOM
      1 C1         -2.1325    0.0651   -0.2962 C.3        1 <1>        0.000
      2 C2         -2.2470   -1.2854    0.3751 C.3        1 <1>        0.000
      3 N1         -3.4931    0.4360   -0.3148 N.am       1 <1>        0.000
      4 C3         -1.1918    1.0708    0.3334 C.3        1 <1>        0.000
      5 C4         -1.0663   -1.8930    1.1025 C.3        1 <1>        0.000
      6 O1         -3.4259   -1.1800    1.1682 O.3        1 <1>        0.000
      7 C6         -4.2440   -0.1949    0.6441 C.2        1 <1>        0.000
      8 C13         0.4331   -2.3600   -0.7988 C.2        1 <1>        0.000
      9 C8         -0.8001    2.2348   -0.5432 C.2        1 <1>        0.000
     10 O2          0.1386   -2.3198    0.5142 O.3        1 <1>        0.000
     11 O3         -5.3806    0.0735    0.9939 O.2        1 <1>        0.000
     12 C12         0.4975    3.0006   -0.3597 C.3        1 <1>        0.000
     13 O4         -1.5990    2.6317   -1.3978 O.2        1 <1>        0.000
     14 C16         1.7726    2.2565   -0.0555 C.3        1 <1>        0.000
     15 C18         1.7016   -3.0489   -1.0832 C.3        1 <1>        0.000
     16 O5         -0.2358   -1.8515   -1.6951 O.2        1 <1>        0.000
     17 C20         2.2949    1.1045   -0.9065 C.3        1 <1>        0.000
     18 C21         2.9567   -2.5946   -0.4620 C.2        1 <1>        0.000
     19 C24         2.8623   -0.0807   -0.1459 C.3        1 <1>        0.000
     20 C26         3.5029   -1.2444   -0.8613 C.3        1 <1>        0.000
     21 O7          3.5117   -3.2738    0.4056 O.2        1 <1>        0.000
     22 H          -1.6491    0.0256   -1.2724 H.spc      1 <1>        0.000
     23 H          -2.2843   -2.0371   -0.4134 H.spc      1 <1>        0.000
     24 H          -3.8810    1.1080   -0.9769 H.spc      1 <1>        0.000
     25 H          -0.2720    0.5328    0.5628 H.spc      1 <1>        0.000
     26 H          -1.7174    1.4919    1.1905 H.spc      1 <1>        0.000
     27 H          -0.7312   -1.0603    1.7209 H.spc      1 <1>        0.000
     28 H          -1.4847   -2.8325    1.4635 H.spc      1 <1>        0.000
     29 H           0.3266    3.6211    0.5200 H.spc      1 <1>        0.000
     30 H           0.6782    3.4681   -1.3276 H.spc      1 <1>        0.000
     31 H           2.5388    3.0214   -0.1815 H.spc      1 <1>        0.000
     32 H           1.5550    1.7772    0.8990 H.spc      1 <1>        0.000
     33 H           1.5552   -4.0537   -0.6868 H.spc      1 <1>        0.000
     34 H           1.8586   -2.8909   -2.1502 H.spc      1 <1>        0.000
     35 H           1.4405    0.7271   -1.4684 H.spc      1 <1>        0.000
     36 H           3.1154    1.5091   -1.4991 H.spc      1 <1>        0.000
     37 H           3.6790    0.3494    0.4338 H.spc      1 <1>        0.000
     38 H           1.9901   -0.5210    0.3373 H.spc      1 <1>        0.000
     39 H           4.5617   -1.2370   -0.6027 H.spc      1 <1>        0.000
     40 H           3.3011   -1.1180   -1.9250 H.spc      1 <1>        0.000
@<TRIPOS>BOND
     1    5   10 1  
     2    1    2 1  
     3    9   12 1  
     4    6    7 1  
     5    2    6 1  
     6    3    7 am 
     7    1    4 1  
     8    1    3 1  
     9    7   11 2  
    10    9   13 2  
    11    2    5 1  
    12    4    9 1  
    13   19   20 1  
    14   18   21 2  
    15   18   20 1  
    16   17   19 1  
    17   15   18 1  
    18   14   17 1  
    19    8   16 2  
    20    8   15 1  
    21   12   14 1  
    22   10    8 1  
    23    1   22 1  
    24    2   23 1  
    25    3   24 1  
    26    4   25 1  
    27    4   26 1  
    28    5   27 1  
    29    5   28 1  
    30   12   29 1  
    31   12   30 1  
    32   14   31 1  
    33   14   32 1  
    34   15   33 1  
    35   15   34 1  
    36   17   35 1  
    37   17   36 1  
    38   19   37 1  
    39   19   38 1  
    40   20   39 1  
    41   20   40 1  
# Name:          frag5-648-76/138278
# Creation time: Sat Jun  5 12:53:50 2010


@<TRIPOS>MOLECULE
frag5-648-76/138278
   40    41     1     1     1
SMALL
USER_CHARGES


@<TRIPOS>ATOM
      1 C1         -1.9390    0.1799   -0.4852 C.3        1 <1>        0.000
      2 C2         -2.2234   -1.2071   -0.0037 C.3        1 <1>        0.000
      3 N1         -3.2696    0.5265   -0.7762 N.am       1 <1>        0.000
      4 C3         -1.2758    1.1566    0.4801 C.3        1 <1>        0.000
      5 C4         -1.2075   -1.9234    0.8310 C.3        1 <1>        0.000
      6 O1         -3.4973   -1.0404    0.6572 O.3        1 <1>        0.000
      7 C6         -4.1322    0.0297    0.1377 C.2        1 <1>        0.000
      8 C13         0.8236   -3.1146    0.3976 C.2        1 <1>        0.000
      9 C8         -0.7201    2.4312   -0.1242 C.2        1 <1>        0.000
     10 O2          0.1129   -1.9700    0.3733 O.3        1 <1>        0.000
     11 O3         -5.2154    0.3697    0.5333 O.2        1 <1>        0.000
     12 C12         0.5672    3.0522    0.3655 C.3        1 <1>        0.000
     13 O4         -1.3516    2.9987   -1.0286 O.2        1 <1>        0.000
     14 C16         1.7256    2.1054    0.5605 C.3        1 <1>        0.000
     15 C18         2.2249   -2.9103   -0.0013 C.3        1 <1>        0.000
     16 O5          0.3909   -4.2177    0.7046 O.2        1 <1>        0.000
     17 C20         2.0108    1.1681   -0.5927 C.3        1 <1>        0.000
     18 C21         2.5231   -2.2854   -1.3126 C.2        1 <1>        0.000
     19 C24         2.9545    0.0288   -0.3092 C.3        1 <1>        0.000
     20 C26         3.1791   -0.9417   -1.4503 C.3        1 <1>        0.000
     21 O7          2.1750   -2.8898   -2.3398 O.2        1 <1>        0.000
     22 H          -1.1936    0.2228   -1.2793 H.spc      1 <1>        0.000
     23 H          -2.2075   -1.8954   -0.8487 H.spc      1 <1>        0.000
     24 H          -3.5507    1.0863   -1.5812 H.spc      1 <1>        0.000
     25 H          -0.4235    0.6279    0.9069 H.spc      1 <1>        0.000
     26 H          -2.0536    1.4670    1.1778 H.spc      1 <1>        0.000
     27 H          -1.1662   -1.3704    1.7694 H.spc      1 <1>        0.000
     28 H          -1.5386   -2.9616    0.8571 H.spc      1 <1>        0.000
     29 H           0.3494    3.4756    1.3460 H.spc      1 <1>        0.000
     30 H           0.8769    3.7609   -0.4026 H.spc      1 <1>        0.000
     31 H           2.6138    2.7259    0.6799 H.spc      1 <1>        0.000
     32 H           1.4689    1.4761    1.4126 H.spc      1 <1>        0.000
     33 H           2.6252   -2.2143    0.7359 H.spc      1 <1>        0.000
     34 H           2.6436   -3.9143   -0.0701 H.spc      1 <1>        0.000
     35 H           1.0563    0.7129   -0.8570 H.spc      1 <1>        0.000
     36 H           2.4878    1.7725   -1.3642 H.spc      1 <1>        0.000
     37 H           3.9235    0.4787   -0.0928 H.spc      1 <1>        0.000
     38 H           2.5068   -0.5471    0.5007 H.spc      1 <1>        0.000
     39 H           4.2525   -1.1280   -1.4861 H.spc      1 <1>        0.000
     40 H           2.7435   -0.4784   -2.3356 H.spc      1 <1>        0.000
@<TRIPOS>BOND
     1    5   10 1  
     2    1    2 1  
     3    9   12 1  
     4    6    7 1  
     5    2    6 1  
     6    3    7 am 
     7    1    4 1  
     8    1    3 1  
     9    7   11 2  
    10    9   13 2  
    11    2    5 1  
    12    4    9 1  
    13   19   20 1  
    14   18   21 2  
    15   18   20 1  
    16   17   19 1  
    17   15   18 1  
    18   14   17 1  
    19    8   16 2  
    20    8   15 1  
    21   12   14 1  
    22   10    8 1  
    23    1   22 1  
    24    2   23 1  
    25    3   24 1  
    26    4   25 1  
    27    4   26 1  
    28    5   27 1  
    29    5   28 1  
    30   12   29 1  
    31   12   30 1  
    32   14   31 1  
    33   14   32 1  
    34   15   33 1  
    35   15   34 1  
    36   17   35 1  
    37   17   36 1  
    38   19   37 1  
    39   19   38 1  
    40   20   39 1  
    41   20   40 1  
# Name:          frag5-648-76/138278
# Creation time: Sat Jun  5 12:53:50 2010


@<TRIPOS>MOLECULE
frag5-648-76/138278
   40    41     1     1     1
SMALL
USER_CHARGES


@<TRIPOS>ATOM
      1 C1         -1.8664    0.0816   -0.2569 C.3        1 <1>        0.000
      2 C2         -2.3281   -1.3280    0.0588 C.3        1 <1>        0.000
      3 N1         -3.1174    0.6619   -0.5772 N.am       1 <1>        0.000
      4 C3         -1.0454    0.7987    0.7982 C.3        1 <1>        0.000
      5 C4         -1.3943   -2.2134    0.8612 C.3        1 <1>        0.000
      6 O1         -3.6646   -1.1676    0.5147 O.3        1 <1>        0.000
      7 C6         -4.1781   -0.0009   -0.0169 C.2        1 <1>        0.000
      8 C13         0.6639   -3.2406    0.1366 C.2        1 <1>        0.000
      9 C8         -0.2999    2.0407    0.3593 C.2        1 <1>        0.000
     10 O2         -0.0402   -2.1568    0.4913 O.3        1 <1>        0.000
     11 O3         -5.3447    0.3567    0.0102 O.2        1 <1>        0.000
     12 C12         1.2044    2.0244    0.1708 C.3        1 <1>        0.000
     13 O4         -0.9206    3.0807    0.1638 O.2        1 <1>        0.000
     14 C16         1.7266    2.3506   -1.2042 C.3        1 <1>        0.000
     15 C18         2.0981   -2.9765   -0.0655 C.3        1 <1>        0.000
     16 O5          0.1930   -4.3631   -0.0116 O.2        1 <1>        0.000
     17 C20         1.8528    1.3059   -2.2988 C.3        1 <1>        0.000
     18 C21         2.6871   -1.6102   -0.0864 C.2        1 <1>        0.000
     19 C24         1.7910   -0.1827   -2.0226 C.3        1 <1>        0.000
     20 C26         2.9610   -0.8868   -1.3818 C.3        1 <1>        0.000
     21 O7          2.8776   -1.0281    0.9740 O.2        1 <1>        0.000
     22 H          -1.1146    0.1361   -1.0442 H.spc      1 <1>        0.000
     23 H          -2.3002   -1.9615   -0.8278 H.spc      1 <1>        0.000
     24 H          -3.2190    1.4892   -1.1652 H.spc      1 <1>        0.000
     25 H          -0.2815    0.0887    1.1152 H.spc      1 <1>        0.000
     26 H          -1.7563    1.1295    1.5554 H.spc      1 <1>        0.000
     27 H          -1.4488   -1.8670    1.8933 H.spc      1 <1>        0.000
     28 H          -1.7193   -3.2401    0.6929 H.spc      1 <1>        0.000
     29 H           1.5179    1.0001    0.3723 H.spc      1 <1>        0.000
     30 H           1.5946    2.8010    0.8286 H.spc      1 <1>        0.000
     31 H           0.9814    3.0409   -1.5995 H.spc      1 <1>        0.000
     32 H           2.7591    2.6463   -1.0180 H.spc      1 <1>        0.000
     33 H           2.5556   -3.4260    0.8159 H.spc      1 <1>        0.000
     34 H           2.2710   -3.3323   -1.0812 H.spc      1 <1>        0.000
     35 H           0.9718    1.4825   -2.9159 H.spc      1 <1>        0.000
     36 H           2.8688    1.4501   -2.6662 H.spc      1 <1>        0.000
     37 H           0.9823   -0.2900   -1.2997 H.spc      1 <1>        0.000
     38 H           1.7098   -0.6375   -3.0099 H.spc      1 <1>        0.000
     39 H           3.6871   -0.1092   -1.1446 H.spc      1 <1>        0.000
     40 H           3.2783   -1.6506   -2.0918 H.spc      1 <1>        0.000
@<TRIPOS>BOND
     1    5   10 1  
     2    1    2 1  
     3    9   12 1  
     4    6    7 1  
     5    2    6 1  
     6    3    7 am 
     7    1    4 1  
     8    1    3 1  
     9    7   11 2  
    10    9   13 2  
    11    2    5 1  
    12    4    9 1  
    13   19   20 1  
    14   18   21 2  
    15   18   20 1  
    16   17   19 1  
    17   15   18 1  
    18   14   17 1  
    19    8   16 2  
    20    8   15 1  
    21   12   14 1  
    22   10    8 1  
    23    1   22 1  
    24    2   23 1  
    25    3   24 1  
    26    4   25 1  
    27    4   26 1  
    28    5   27 1  
    29    5   28 1  
    30   12   29 1  
    31   12   30 1  
    32   14   31 1  
    33   14   32 1  
    34   15   33 1  
    35   15   34 1  
    36   17   35 1  
    37   17   36 1  
    38   19   37 1  
    39   19   38 1  
    40   20   39 1  
    41   20   40 1  
# Name:          frag5-648-76/138278
# Creation time: Sat Jun  5 12:53:50 2010


@<TRIPOS>MOLECULE
frag5-648-76/138278
   40    41     1     1     1
SMALL
USER_CHARGES


@<TRIPOS>ATOM
      1 C1         -2.3025    0.0294   -0.4422 C.3        1 <1>        0.000
      2 C2         -2.2093   -1.1003    0.5604 C.3        1 <1>        0.000
      3 N1         -3.7124    0.1081   -0.5613 N.am       1 <1>        0.000
      4 C3         -1.6875    1.3642   -0.0786 C.3        1 <1>        0.000
      5 C4         -0.9127   -1.4049    1.2899 C.3        1 <1>        0.000
      6 O1         -3.3735   -0.9044    1.3541 O.3        1 <1>        0.000
      7 C6         -4.3376   -0.2809    0.5923 C.2        1 <1>        0.000
      8 C13         0.4096   -2.7648   -0.1514 C.2        1 <1>        0.000
      9 C8         -0.5534    1.8626   -0.9297 C.2        1 <1>        0.000
     10 O2          0.2539   -1.6243    0.5399 O.3        1 <1>        0.000
     11 O3         -5.5057   -0.0925    0.8898 O.2        1 <1>        0.000
     12 C12         0.7772    1.1847   -0.8404 C.3        1 <1>        0.000
     13 O4         -0.7032    2.8325   -1.6716 O.2        1 <1>        0.000
     14 C16         1.3888    1.3580    0.5185 C.3        1 <1>        0.000
     15 C18         1.5940   -2.8325   -1.0215 C.3        1 <1>        0.000
     16 O5         -0.3750   -3.7048   -0.0946 O.2        1 <1>        0.000
     17 C20         2.8780    1.2908    0.6735 C.3        1 <1>        0.000
     18 C21         2.5268   -1.7074   -1.2913 C.2        1 <1>        0.000
     19 C24         3.7207    0.3071   -0.1024 C.3        1 <1>        0.000
     20 C26         3.4277   -1.1735   -0.1948 C.3        1 <1>        0.000
     21 O7          2.5517   -1.2007   -2.4216 O.2        1 <1>        0.000
     22 H          -1.7234   -0.1801   -1.3416 H.spc      1 <1>        0.000
     23 H          -2.1728   -2.0550    0.0356 H.spc      1 <1>        0.000
     24 H          -4.2005    0.4163   -1.4022 H.spc      1 <1>        0.000
     25 H          -1.2685    1.2315    0.9189 H.spc      1 <1>        0.000
     26 H          -2.4862    2.0965   -0.1971 H.spc      1 <1>        0.000
     27 H          -0.7047   -0.5114    1.8785 H.spc      1 <1>        0.000
     28 H          -1.0957   -2.3467    1.8071 H.spc      1 <1>        0.000
     29 H           1.4432    1.6301   -1.5794 H.spc      1 <1>        0.000
     30 H           0.6363    0.1195   -1.0236 H.spc      1 <1>        0.000
     31 H           1.1264    2.3745    0.8117 H.spc      1 <1>        0.000
     32 H           1.0125    0.5163    1.0999 H.spc      1 <1>        0.000
     33 H           2.2317   -3.5371   -0.4877 H.spc      1 <1>        0.000
     34 H           1.1497   -3.0032   -2.0021 H.spc      1 <1>        0.000
     35 H           3.2171    2.2608    0.3098 H.spc      1 <1>        0.000
     36 H           3.0136    0.9821    1.7100 H.spc      1 <1>        0.000
     37 H           3.5914    0.6412   -1.1318 H.spc      1 <1>        0.000
     38 H           4.6696    0.3301    0.4335 H.spc      1 <1>        0.000
     39 H           2.8945   -1.4016    0.7281 H.spc      1 <1>        0.000
     40 H           4.3974   -1.6289   -0.3960 H.spc      1 <1>        0.000
@<TRIPOS>BOND
     1    5   10 1  
     2    1    2 1  
     3    9   12 1  
     4    6    7 1  
     5    2    6 1  
     6    3    7 am 
     7    1    4 1  
     8    1    3 1  
     9    7   11 2  
    10    9   13 2  
    11    2    5 1  
    12    4    9 1  
    13   19   20 1  
    14   18   21 2  
    15   18   20 1  
    16   17   19 1  
    17   15   18 1  
    18   14   17 1  
    19    8   16 2  
    20    8   15 1  
    21   12   14 1  
    22   10    8 1  
    23    1   22 1  
    24    2   23 1  
    25    3   24 1  
    26    4   25 1  
    27    4   26 1  
    28    5   27 1  
    29    5   28 1  
    30   12   29 1  
    31   12   30 1  
    32   14   31 1  
    33   14   32 1  
    34   15   33 1  
    35   15   34 1  
    36   17   35 1  
    37   17   36 1  
    38   19   37 1  
    39   19   38 1  
    40   20   39 1  
    41   20   40 1  
# Name:          frag5-648-76/138278
# Creation time: Sat Jun  5 12:53:50 2010


@<TRIPOS>MOLECULE
frag5-648-76/138278
   40    41     1     1     1
SMALL
USER_CHARGES


@<TRIPOS>ATOM
      1 C1         -2.1139    0.0536   -0.0672 C.3        1 <1>        0.000
      2 C2         -2.4130   -1.3433    0.4423 C.3        1 <1>        0.000
      3 N1         -3.4294    0.5184   -0.3045 N.am       1 <1>        0.000
      4 C3         -1.2278    1.0029    0.7148 C.3        1 <1>        0.000
      5 C4         -1.4006   -2.0774    1.3391 C.3        1 <1>        0.000
      6 O1         -3.7562   -1.2521    0.9276 O.3        1 <1>        0.000
      7 C6         -4.4117   -0.2403    0.2564 C.2        1 <1>        0.000
      8 C13         0.5209   -2.2322    0.0091 C.2        1 <1>        0.000
      9 C8         -0.6979    2.1454   -0.1220 C.2        1 <1>        0.000
     10 O2         -0.3517   -2.8623    0.7963 O.3        1 <1>        0.000
     11 O3         -5.6066   -0.0389    0.1748 O.2        1 <1>        0.000
     12 C12         0.6698    2.7345    0.1293 C.3        1 <1>        0.000
     13 O4         -1.3995    2.6186   -1.0273 O.2        1 <1>        0.000
     14 C16         1.7807    2.1574   -0.6852 C.3        1 <1>        0.000
     15 C18         1.5869   -2.9896   -0.6346 C.3        1 <1>        0.000
     16 O5          0.4627   -1.0293   -0.2293 O.2        1 <1>        0.000
     17 C20         2.6448    1.0566   -0.1338 C.3        1 <1>        0.000
     18 C21         2.8540   -2.4564   -1.1749 C.2        1 <1>        0.000
     19 C24         3.2371    0.0488   -1.0857 C.3        1 <1>        0.000
     20 C26         3.5832   -1.3076   -0.5172 C.3        1 <1>        0.000
     21 O7          3.3239   -2.9604   -2.1910 O.2        1 <1>        0.000
     22 H          -1.4374    0.0116   -0.9208 H.spc      1 <1>        0.000
     23 H          -2.2963   -2.0530   -0.3768 H.spc      1 <1>        0.000
     24 H          -3.6264    1.3558   -0.8525 H.spc      1 <1>        0.000
     25 H          -0.3720    0.4337    1.0778 H.spc      1 <1>        0.000
     26 H          -1.8284    1.4311    1.5173 H.spc      1 <1>        0.000
     27 H          -0.8787   -1.2700    1.8527 H.spc      1 <1>        0.000
     28 H          -2.0117   -2.8015    1.8780 H.spc      1 <1>        0.000
     29 H           0.9098    2.5259    1.1719 H.spc      1 <1>        0.000
     30 H           0.6062    3.7894   -0.1375 H.spc      1 <1>        0.000
     31 H           1.2775    1.7004   -1.5372 H.spc      1 <1>        0.000
     32 H           2.4685    2.9910   -0.8272 H.spc      1 <1>        0.000
     33 H           1.9446   -3.6054    0.1905 H.spc      1 <1>        0.000
     34 H           1.0913   -3.3336   -1.5424 H.spc      1 <1>        0.000
     35 H           3.5022    1.5656    0.3066 H.spc      1 <1>        0.000
     36 H           1.9854    0.4786    0.5136 H.spc      1 <1>        0.000
     37 H           2.4738   -0.1309   -1.8428 H.spc      1 <1>        0.000
     38 H           4.1789    0.4784   -1.4270 H.spc      1 <1>        0.000
     39 H           3.2931   -1.3006    0.5334 H.spc      1 <1>        0.000
     40 H           4.6490   -1.4646   -0.6834 H.spc      1 <1>        0.000
@<TRIPOS>BOND
     1    5   10 1  
     2    1    2 1  
     3    9   12 1  
     4    6    7 1  
     5    2    6 1  
     6    3    7 am 
     7    1    4 1  
     8    1    3 1  
     9    7   11 2  
    10    9   13 2  
    11    2    5 1  
    12    4    9 1  
    13   19   20 1  
    14   18   21 2  
    15   18   20 1  
    16   17   19 1  
    17   15   18 1  
    18   14   17 1  
    19    8   16 2  
    20    8   15 1  
    21   12   14 1  
    22   10    8 1  
    23    1   22 1  
    24    2   23 1  
    25    3   24 1  
    26    4   25 1  
    27    4   26 1  
    28    5   27 1  
    29    5   28 1  
    30   12   29 1  
    31   12   30 1  
    32   14   31 1  
    33   14   32 1  
    34   15   33 1  
    35   15   34 1  
    36   17   35 1  
    37   17   36 1  
    38   19   37 1  
    39   19   38 1  
    40   20   39 1  
    41   20   40 1  
# Name:          frag5-648-76/138278
# Creation time: Sat Jun  5 12:53:50 2010


@<TRIPOS>MOLECULE
frag5-648-76/138278
   40    41     1     1     1
SMALL
USER_CHARGES


@<TRIPOS>ATOM
      1 C1         -2.0911    0.2319   -0.5759 C.3        1 <1>        0.000
      2 C2         -2.4822   -1.2349   -0.5622 C.3        1 <1>        0.000
      3 N1         -3.3084    0.8265   -0.1541 N.am       1 <1>        0.000
      4 C3         -0.9058    0.7197    0.2214 C.3        1 <1>        0.000
      5 C4         -1.5139   -2.3698   -0.2600 C.3        1 <1>        0.000
      6 O1         -3.6363   -1.2845    0.2798 O.3        1 <1>        0.000
      7 C6         -4.0930   -0.0258    0.5677 C.2        1 <1>        0.000
      8 C13         0.5755   -3.3121   -0.1346 C.2        1 <1>        0.000
      9 C8         -0.4900    2.1436   -0.0817 C.2        1 <1>        0.000
     10 O2         -0.2125   -2.4105   -0.7718 O.3        1 <1>        0.000
     11 O3         -4.9980    0.2658    1.3215 O.2        1 <1>        0.000
     12 C12         0.9619    2.5364   -0.1272 C.3        1 <1>        0.000
     13 O4         -1.3476    3.0011   -0.3026 O.2        1 <1>        0.000
     14 C16         1.6455    2.2101   -1.4292 C.3        1 <1>        0.000
     15 C18         2.0014   -2.9757   -0.0465 C.3        1 <1>        0.000
     16 O5          0.1646   -4.3323    0.3937 O.2        1 <1>        0.000
     17 C20         2.0966    0.7845   -1.6647 C.3        1 <1>        0.000
     18 C21         2.5033   -1.6241    0.2634 C.2        1 <1>        0.000
     19 C24         3.3924    0.3823   -0.9902 C.3        1 <1>        0.000
     20 C26         3.6454   -1.0137   -0.4854 C.3        1 <1>        0.000
     21 O7          1.9477   -0.9724    1.1558 O.2        1 <1>        0.000
     22 H          -1.7019    0.4958   -1.5592 H.spc      1 <1>        0.000
     23 H          -2.5992   -1.4866   -1.6163 H.spc      1 <1>        0.000
     24 H          -3.5695    1.7891   -0.3677 H.spc      1 <1>        0.000
     25 H          -0.0623    0.0790   -0.0357 H.spc      1 <1>        0.000
     26 H          -1.1927    0.6875    1.2725 H.spc      1 <1>        0.000
     27 H          -1.3574   -2.2855    0.8154 H.spc      1 <1>        0.000
     28 H          -1.9910   -3.2351   -0.7202 H.spc      1 <1>        0.000
     29 H           1.4729    1.9754    0.6553 H.spc      1 <1>        0.000
     30 H           1.0079    3.6180   -0.0005 H.spc      1 <1>        0.000
     31 H           0.9013    2.4067   -2.2010 H.spc      1 <1>        0.000
     32 H           2.5595    2.8040   -1.4300 H.spc      1 <1>        0.000
     33 H           2.3375   -3.5622    0.8086 H.spc      1 <1>        0.000
     34 H           2.3533   -3.1384   -1.0652 H.spc      1 <1>        0.000
     35 H           1.3204    0.1433   -1.2469 H.spc      1 <1>        0.000
     36 H           2.2654    0.6885   -2.7373 H.spc      1 <1>        0.000
     37 H           4.1344    0.5023   -1.7796 H.spc      1 <1>        0.000
     38 H           3.3995    0.9834   -0.0810 H.spc      1 <1>        0.000
     39 H           4.4836   -0.9531    0.2087 H.spc      1 <1>        0.000
     40 H           3.8225   -1.6400   -1.3597 H.spc      1 <1>        0.000
@<TRIPOS>BOND
     1    5   10 1  
     2    1    2 1  
     3    9   12 1  
     4    6    7 1  
     5    2    6 1  
     6    3    7 am 
     7    1    4 1  
     8    1    3 1  
     9    7   11 2  
    10    9   13 2  
    11    2    5 1  
    12    4    9 1  
    13   19   20 1  
    14   18   21 2  
    15   18   20 1  
    16   17   19 1  
    17   15   18 1  
    18   14   17 1  
    19    8   16 2  
    20    8   15 1  
    21   12   14 1  
    22   10    8 1  
    23    1   22 1  
    24    2   23 1  
    25    3   24 1  
    26    4   25 1  
    27    4   26 1  
    28    5   27 1  
    29    5   28 1  
    30   12   29 1  
    31   12   30 1  
    32   14   31 1  
    33   14   32 1  
    34   15   33 1  
    35   15   34 1  
    36   17   35 1  
    37   17   36 1  
    38   19   37 1  
    39   19   38 1  
    40   20   39 1  
    41   20   40 1  
# Name:          frag5-648-76/138278
# Creation time: Sat Jun  5 12:53:50 2010


@<TRIPOS>MOLECULE
frag5-648-76/138278
   40    41     1     1     1
SMALL
USER_CHARGES


@<TRIPOS>ATOM
      1 C1         -2.4657    0.4050   -0.6191 C.3        1 <1>        0.000
      2 C2         -2.6008   -1.1028   -0.5457 C.3        1 <1>        0.000
      3 N1         -3.3031    0.7571    0.4639 N.am       1 <1>        0.000
      4 C3         -1.0613    0.9456   -0.5780 C.3        1 <1>        0.000
      5 C4         -1.5679   -1.9756   -1.2505 C.3        1 <1>        0.000
      6 O1         -2.8171   -1.3628    0.8435 O.3        1 <1>        0.000
      7 C6         -3.3904   -0.2422    1.4039 C.2        1 <1>        0.000
      8 C13         0.5800   -2.9649   -1.0568 C.2        1 <1>        0.000
      9 C8         -0.7833    2.3527   -0.9980 C.2        1 <1>        0.000
     10 O2         -0.4203   -2.2655   -0.4908 O.3        1 <1>        0.000
     11 O3         -3.8991   -0.1596    2.5118 O.2        1 <1>        0.000
     12 C12         0.5506    2.6818   -1.6222 C.3        1 <1>        0.000
     13 O4         -1.6294    3.2354   -0.8269 O.2        1 <1>        0.000
     14 C16         1.7583    2.5377   -0.7211 C.3        1 <1>        0.000
     15 C18         1.6617   -3.3222   -0.1249 C.3        1 <1>        0.000
     16 O5          0.6292   -3.2950   -2.2410 O.2        1 <1>        0.000
     17 C20         2.5959    1.2735   -0.5974 C.3        1 <1>        0.000
     18 C21         2.3849   -2.3627    0.7434 C.2        1 <1>        0.000
     19 C24         2.1974    0.0782    0.2328 C.3        1 <1>        0.000
     20 C26         3.0439   -1.1601    0.1263 C.3        1 <1>        0.000
     21 O7          2.3921   -2.5074    1.9637 O.2        1 <1>        0.000
     22 H          -2.7511    0.8440   -1.5751 H.spc      1 <1>        0.000
     23 H          -3.4332   -1.4284   -1.1695 H.spc      1 <1>        0.000
     24 H          -3.7877    1.6514    0.5394 H.spc      1 <1>        0.000
     25 H          -0.5157    0.3357   -1.2980 H.spc      1 <1>        0.000
     26 H          -0.7928    0.9207    0.4781 H.spc      1 <1>        0.000
     27 H          -2.0531   -2.9278   -1.4651 H.spc      1 <1>        0.000
     28 H          -1.2338   -1.4226   -2.1284 H.spc      1 <1>        0.000
     29 H           0.5045    3.7330   -1.9066 H.spc      1 <1>        0.000
     30 H           0.6905    1.9720   -2.4375 H.spc      1 <1>        0.000
     31 H           2.4632    3.2464   -1.1558 H.spc      1 <1>        0.000
     32 H           1.3230    2.6309    0.2739 H.spc      1 <1>        0.000
     33 H           1.1458   -3.9506    0.6011 H.spc      1 <1>        0.000
     34 H           2.4469   -3.6640   -0.7992 H.spc      1 <1>        0.000
     35 H           2.5848    0.8766   -1.6125 H.spc      1 <1>        0.000
     36 H           3.4949    1.6282   -0.0934 H.spc      1 <1>        0.000
     37 H           2.2831    0.4018    1.2701 H.spc      1 <1>        0.000
     38 H           1.2103   -0.2113   -0.1276 H.spc      1 <1>        0.000
     39 H           3.9766   -0.9769    0.6597 H.spc      1 <1>        0.000
     40 H           3.2024   -1.3692   -0.9316 H.spc      1 <1>        0.000
@<TRIPOS>BOND
     1    5   10 1  
     2    1    2 1  
     3    9   12 1  
     4    6    7 1  
     5    2    6 1  
     6    3    7 am 
     7    1    4 1  
     8    1    3 1  
     9    7   11 2  
    10    9   13 2  
    11    2    5 1  
    12    4    9 1  
    13   19   20 1  
    14   18   21 2  
    15   18   20 1  
    16   17   19 1  
    17   15   18 1  
    18   14   17 1  
    19    8   16 2  
    20    8   15 1  
    21   12   14 1  
    22   10    8 1  
    23    1   22 1  
    24    2   23 1  
    25    3   24 1  
    26    4   25 1  
    27    4   26 1  
    28    5   27 1  
    29    5   28 1  
    30   12   29 1  
    31   12   30 1  
    32   14   31 1  
    33   14   32 1  
    34   15   33 1  
    35   15   34 1  
    36   17   35 1  
    37   17   36 1  
    38   19   37 1  
    39   19   38 1  
    40   20   39 1  
    41   20   40 1  
# Name:          frag5-648-76/138278
# Creation time: Sat Jun  5 12:53:50 2010


@<TRIPOS>MOLECULE
frag5-648-76/138278
   40    41     1     1     1
SMALL
USER_CHARGES


@<TRIPOS>ATOM
      1 C1         -1.8528    0.0875   -0.4885 C.3        1 <1>        0.000
      2 C2         -2.2188   -1.3081   -0.0842 C.3        1 <1>        0.000
      3 N1         -3.1308    0.4714   -0.9022 N.am       1 <1>        0.000
      4 C3         -1.2722    1.0071    0.5758 C.3        1 <1>        0.000
      5 C4         -1.3086   -2.1343    0.7687 C.3        1 <1>        0.000
      6 O1         -3.5393   -1.1375    0.4496 O.3        1 <1>        0.000
      7 C6         -4.1031   -0.0330   -0.1016 C.2        1 <1>        0.000
      8 C13         1.0710   -2.5507    0.7387 C.2        1 <1>        0.000
      9 C8         -0.6445    2.3035    0.0840 C.2        1 <1>        0.000
     10 O2         -0.1243   -2.5312    0.1452 O.3        1 <1>        0.000
     11 O3         -5.2330    0.3429    0.1468 O.2        1 <1>        0.000
     12 C12         0.6235    2.8426    0.7147 C.3        1 <1>        0.000
     13 O4         -1.1626    2.9240   -0.8456 O.2        1 <1>        0.000
     14 C16         1.7854    1.8851    0.6734 C.3        1 <1>        0.000
     15 C18         2.1203   -2.9803   -0.2123 C.3        1 <1>        0.000
     16 O5          1.3114   -2.2110    1.8849 O.2        1 <1>        0.000
     17 C20         1.9023    1.0276   -0.5661 C.3        1 <1>        0.000
     18 C21         2.2085   -2.3700   -1.5670 C.2        1 <1>        0.000
     19 C24         2.8578   -0.1284   -0.5206 C.3        1 <1>        0.000
     20 C26         2.8617   -1.0201   -1.7444 C.3        1 <1>        0.000
     21 O7          1.7038   -2.9408   -2.5323 O.2        1 <1>        0.000
     22 H          -1.0298    0.1428   -1.2010 H.spc      1 <1>        0.000
     23 H          -2.1306   -1.9548   -0.9572 H.spc      1 <1>        0.000
     24 H          -3.3121    1.0630   -1.7131 H.spc      1 <1>        0.000
     25 H          -0.4698    0.4458    1.0546 H.spc      1 <1>        0.000
     26 H          -2.1082    1.2987    1.2115 H.spc      1 <1>        0.000
     27 H          -1.0263   -1.5169    1.6215 H.spc      1 <1>        0.000
     28 H          -1.8525   -3.0437    1.0241 H.spc      1 <1>        0.000
     29 H           0.4038    3.0384    1.7642 H.spc      1 <1>        0.000
     30 H           0.9144    3.7276    0.1487 H.spc      1 <1>        0.000
     31 H           2.6858    2.4986    0.7043 H.spc      1 <1>        0.000
     32 H           1.6416    1.1969    1.5063 H.spc      1 <1>        0.000
     33 H           3.0542   -2.6948    0.2718 H.spc      1 <1>        0.000
     34 H           1.8947   -4.0292   -0.4048 H.spc      1 <1>        0.000
     35 H           0.9159    0.5875   -0.7127 H.spc      1 <1>        0.000
     36 H           2.2789    1.6891   -1.3463 H.spc      1 <1>        0.000
     37 H           3.8578    0.2985   -0.4447 H.spc      1 <1>        0.000
     38 H           2.5491   -0.7532    0.3175 H.spc      1 <1>        0.000
     39 H           3.9073   -1.2106   -1.9864 H.spc      1 <1>        0.000
     40 H           2.2904   -0.4972   -2.5114 H.spc      1 <1>        0.000
@<TRIPOS>BOND
     1    5   10 1  
     2    1    2 1  
     3    9   12 1  
     4    6    7 1  
     5    2    6 1  
     6    3    7 am 
     7    1    4 1  
     8    1    3 1  
     9    7   11 2  
    10    9   13 2  
    11    2    5 1  
    12    4    9 1  
    13   19   20 1  
    14   18   21 2  
    15   18   20 1  
    16   17   19 1  
    17   15   18 1  
    18   14   17 1  
    19    8   16 2  
    20    8   15 1  
    21   12   14 1  
    22   10    8 1  
    23    1   22 1  
    24    2   23 1  
    25    3   24 1  
    26    4   25 1  
    27    4   26 1  
    28    5   27 1  
    29    5   28 1  
    30   12   29 1  
    31   12   30 1  
    32   14   31 1  
    33   14   32 1  
    34   15   33 1  
    35   15   34 1  
    36   17   35 1  
    37   17   36 1  
    38   19   37 1  
    39   19   38 1  
    40   20   39 1  
    41   20   40 1  
# Name:          frag5-648-76/138278 -- energy: -8.765648
# Creation time: Sat Jun  5 12:53:50 2010


@<TRIPOS>MOLECULE
frag5-648-76/138278 -- energy: -8.765648
   40    41     1     1     1
SMALL
USER_CHARGES


@<TRIPOS>ATOM
      1 C1         -1.7671   -0.0297   -0.3913 C.3        1 <1>        0.000
      2 C2         -2.0036   -1.2953    0.3607 C.3        1 <1>        0.000
      3 N1         -3.1077    0.2050   -0.8153 N.am       1 <1>        0.000
      4 C3         -1.1863    1.1447    0.3676 C.3        1 <1>        0.000
      5 C4         -1.0221   -1.7848    1.3749 C.3        1 <1>        0.000
      6 O1         -3.3032   -1.1048    0.9301 O.3        1 <1>        0.000
      7 C6         -3.9691   -0.1876    0.1707 C.2        1 <1>        0.000
      8 C13         0.5163   -3.0401    0.1808 C.2        1 <1>        0.000
      9 C8         -0.6482    2.2893   -0.4571 C.2        1 <1>        0.000
     10 O2          0.3151   -1.9935    0.9910 O.3        1 <1>        0.000
     11 O3         -5.1118    0.2079    0.3754 O.2        1 <1>        0.000
     12 C12         0.5906    3.0416   -0.0382 C.3        1 <1>        0.000
     13 O4         -1.2431    2.6351   -1.4806 O.2        1 <1>        0.000
     14 C16         1.7281    2.1728    0.4441 C.3        1 <1>        0.000
     15 C18         1.8390   -3.0673   -0.4375 C.3        1 <1>        0.000
     16 O5         -0.3209   -3.8892   -0.0981 O.2        1 <1>        0.000
     17 C20         2.0130    0.9401   -0.3840 C.3        1 <1>        0.000
     18 C21         2.2998   -1.9580   -1.2915 C.2        1 <1>        0.000
     19 C24         3.1434    0.0314    0.0251 C.3        1 <1>        0.000
     20 C26         3.4678   -1.0991   -0.9239 C.3        1 <1>        0.000
     21 O7          1.6255   -1.6718   -2.2857 O.2        1 <1>        0.000
     22 H          -0.9956   -0.1284   -1.1549 H.spc      1 <1>        0.000
     23 H          -1.8887   -2.1111   -0.3530 H.spc      1 <1>        0.000
     24 H          -3.3812    0.6034   -1.7136 H.spc      1 <1>        0.000
     25 H          -0.3356    0.7506    0.9235 H.spc      1 <1>        0.000
     26 H          -2.0074    1.5580    0.9534 H.spc      1 <1>        0.000
     27 H          -0.9773   -0.9944    2.1241 H.spc      1 <1>        0.000
     28 H          -1.3868   -2.7707    1.6632 H.spc      1 <1>        0.000
     29 H           0.3048    3.6806    0.7973 H.spc      1 <1>        0.000
     30 H           0.9505    3.5731   -0.9191 H.spc      1 <1>        0.000
     31 H           2.6263    2.7886    0.3978 H.spc      1 <1>        0.000
     32 H           1.4454    1.8186    1.4354 H.spc      1 <1>        0.000
     33 H           2.5267   -3.0535    0.4081 H.spc      1 <1>        0.000
     34 H           1.7978   -3.9218   -1.1130 H.spc      1 <1>        0.000
     35 H           1.1149    0.3287   -0.2961 H.spc      1 <1>        0.000
     36 H           2.2988    1.3202   -1.3648 H.spc      1 <1>        0.000
     37 H           4.0353    0.6564    0.0700 H.spc      1 <1>        0.000
     38 H           2.8352   -0.4355    0.9606 H.spc      1 <1>        0.000
     39 H           4.1887   -1.7417   -0.4185 H.spc      1 <1>        0.000
     40 H           3.8321   -0.6459   -1.8459 H.spc      1 <1>        0.000
@<TRIPOS>BOND
     1    5   10 1  
     2    1    2 1  
     3    9   12 1  
     4    6    7 1  
     5    2    6 1  
     6    3    7 am 
     7    1    4 1  
     8    1    3 1  
     9    7   11 2  
    10    9   13 2  
    11    2    5 1  
    12    4    9 1  
    13   19   20 1  
    14   18   21 2  
    15   18   20 1  
    16   17   19 1  
    17   15   18 1  
    18   14   17 1  
    19    8   16 2  
    20    8   15 1  
    21   12   14 1  
    22   10    8 1  
    23    1   22 1  
    24    2   23 1  
    25    3   24 1  
    26    4   25 1  
    27    4   26 1  
    28    5   27 1  
    29    5   28 1  
    30   12   29 1  
    31   12   30 1  
    32   14   31 1  
    33   14   32 1  
    34   15   33 1  
    35   15   34 1  
    36   17   35 1  
    37   17   36 1  
    38   19   37 1  
    39   19   38 1  
    40   20   39 1  
    41   20   40 1  
# Name:          frag5-648-76/138278 -- energy: -9.244123
# Creation time: Sat Jun  5 12:53:50 2010


@<TRIPOS>MOLECULE
frag5-648-76/138278 -- energy: -9.244123
   40    41     1     1     1
SMALL
USER_CHARGES


@<TRIPOS>ATOM
      1 C1         -1.6298    0.0685   -0.1983 C.3        1 <1>        0.000
      2 C2         -2.0066   -1.3144    0.3057 C.3        1 <1>        0.000
      3 N1         -2.8342    0.4447   -0.8596 N.am       1 <1>        0.000
      4 C3         -1.0827    1.0793    0.7860 C.3        1 <1>        0.000
      5 C4         -1.2508   -1.9255    1.4878 C.3        1 <1>        0.000
      6 O1         -3.4222   -1.2640    0.3969 O.3        1 <1>        0.000
      7 C6         -3.9276   -0.2792   -0.4378 C.2        1 <1>        0.000
      8 C13         0.6136   -3.1648    0.6817 C.2        1 <1>        0.000
      9 C8         -0.4790    2.3454    0.2125 C.2        1 <1>        0.000
     10 O2          0.1457   -2.0781    1.3565 O.3        1 <1>        0.000
     11 O3         -5.1046   -0.0773   -0.7177 O.2        1 <1>        0.000
     12 C12         0.9265    2.7738    0.5849 C.3        1 <1>        0.000
     13 O4         -1.1425    3.0475   -0.5609 O.2        1 <1>        0.000
     14 C16         1.9919    1.7953    0.1444 C.3        1 <1>        0.000
     15 C18         1.8964   -2.9214   -0.0220 C.3        1 <1>        0.000
     16 O5          0.0416   -4.2503    0.5759 O.2        1 <1>        0.000
     17 C20         1.9450    1.3430   -1.3056 C.3        1 <1>        0.000
     18 C21         1.9961   -1.8290   -1.0226 C.2        1 <1>        0.000
     19 C24         2.9414    0.3404   -1.8715 C.3        1 <1>        0.000
     20 C26         3.2332   -0.9732   -1.1765 C.3        1 <1>        0.000
     21 O7          1.0043   -1.6141   -1.7428 O.2        1 <1>        0.000
     22 H          -0.7403    0.0419   -0.8278 H.spc      1 <1>        0.000
     23 H          -1.6527   -2.0715   -0.3940 H.spc      1 <1>        0.000
     24 H          -2.8819    1.1740   -1.5711 H.spc      1 <1>        0.000
     25 H          -0.2707    0.5742    1.3092 H.spc      1 <1>        0.000
     26 H          -1.9348    1.4018    1.3843 H.spc      1 <1>        0.000
     27 H          -1.3945   -1.2340    2.3180 H.spc      1 <1>        0.000
     28 H          -1.6477   -2.9344    1.6009 H.spc      1 <1>        0.000
     29 H           0.9717    2.8399    1.6720 H.spc      1 <1>        0.000
     30 H           1.1240    3.7211    0.0832 H.spc      1 <1>        0.000
     31 H           2.9437    2.3121    0.2672 H.spc      1 <1>        0.000
     32 H           1.8417    0.8976    0.7441 H.spc      1 <1>        0.000
     33 H           2.5907   -2.6332    0.7673 H.spc      1 <1>        0.000
     34 H           2.0716   -3.8327   -0.5939 H.spc      1 <1>        0.000
     35 H           0.9892    0.8244   -1.3811 H.spc      1 <1>        0.000
     36 H           2.1538    2.2549   -1.8650 H.spc      1 <1>        0.000
     37 H           2.4934    0.0376   -2.8179 H.spc      1 <1>        0.000
     38 H           3.8927    0.8709   -1.8304 H.spc      1 <1>        0.000
     39 H           3.6163   -0.7508   -0.1806 H.spc      1 <1>        0.000
     40 H           3.9519   -1.5241   -1.7832 H.spc      1 <1>        0.000
@<TRIPOS>BOND
     1    5   10 1  
     2    1    2 1  
     3    9   12 1  
     4    6    7 1  
     5    2    6 1  
     6    3    7 am 
     7    1    4 1  
     8    1    3 1  
     9    7   11 2  
    10    9   13 2  
    11    2    5 1  
    12    4    9 1  
    13   19   20 1  
    14   18   21 2  
    15   18   20 1  
    16   17   19 1  
    17   15   18 1  
    18   14   17 1  
    19    8   16 2  
    20    8   15 1  
    21   12   14 1  
    22   10    8 1  
    23    1   22 1  
    24    2   23 1  
    25    3   24 1  
    26    4   25 1  
    27    4   26 1  
    28    5   27 1  
    29    5   28 1  
    30   12   29 1  
    31   12   30 1  
    32   14   31 1  
    33   14   32 1  
    34   15   33 1  
    35   15   34 1  
    36   17   35 1  
    37   17   36 1  
    38   19   37 1  
    39   19   38 1  
    40   20   39 1  
    41   20   40 1  
# Name:          frag5-648-76/138278 -- energy: -10.045110
# Creation time: Sat Jun  5 12:53:50 2010


@<TRIPOS>MOLECULE
frag5-648-76/138278 -- energy: -10.045110
   40    41     1     1     1
SMALL
USER_CHARGES


@<TRIPOS>ATOM
      1 C1         -1.9965    0.1159   -0.2551 C.3        1 <1>        0.000
      2 C2         -2.2582   -1.2815    0.2325 C.3        1 <1>        0.000
      3 N1         -3.3265    0.6057   -0.3071 N.am       1 <1>        0.000
      4 C3         -1.0473    1.0036    0.5163 C.3        1 <1>        0.000
      5 C4         -1.1125   -2.0675    0.8407 C.3        1 <1>        0.000
      6 O1         -3.4678   -1.1582    1.0079 O.3        1 <1>        0.000
      7 C6         -4.1612   -0.0372    0.5771 C.2        1 <1>        0.000
      8 C13         0.5209   -2.6489   -0.8869 C.2        1 <1>        0.000
      9 C8         -0.7224    2.2950   -0.1992 C.2        1 <1>        0.000
     10 O2          0.1688   -2.0669    0.2699 O.3        1 <1>        0.000
     11 O3         -5.2767    0.2896    0.9399 O.2        1 <1>        0.000
     12 C12         0.7133    2.6759   -0.4462 C.3        1 <1>        0.000
     13 O4         -1.6249    3.0391   -0.5724 O.2        1 <1>        0.000
     14 C16         1.3426    1.9700   -1.6190 C.3        1 <1>        0.000
     15 C18         1.9917   -2.8247   -1.0257 C.3        1 <1>        0.000
     16 O5         -0.2520   -3.0150   -1.7703 O.2        1 <1>        0.000
     17 C20         1.9837    0.6056   -1.4045 C.3        1 <1>        0.000
     18 C21         2.9093   -2.3076    0.0118 C.2        1 <1>        0.000
     19 C24         2.8177    0.2709   -0.1751 C.3        1 <1>        0.000
     20 C26         3.6340   -1.0014   -0.1927 C.3        1 <1>        0.000
     21 O7          3.0196   -2.9160    1.0751 O.2        1 <1>        0.000
     22 H          -1.4315    0.1124   -1.1872 H.spc      1 <1>        0.000
     23 H          -2.3825   -1.9626   -0.6093 H.spc      1 <1>        0.000
     24 H          -3.6306    1.3526   -0.9316 H.spc      1 <1>        0.000
     25 H          -0.1145    0.4548    0.6458 H.spc      1 <1>        0.000
     26 H          -1.5298    1.2615    1.4591 H.spc      1 <1>        0.000
     27 H          -0.9626   -1.5955    1.8117 H.spc      1 <1>        0.000
     28 H          -1.4347   -3.1049    0.7504 H.spc      1 <1>        0.000
     29 H           1.2794    2.3946    0.4418 H.spc      1 <1>        0.000
     30 H           0.7312    3.7437   -0.6644 H.spc      1 <1>        0.000
     31 H           0.5199    1.7874   -2.3103 H.spc      1 <1>        0.000
     32 H           2.1617    2.6186   -1.9297 H.spc      1 <1>        0.000
     33 H           2.1370   -3.9046   -0.9990 H.spc      1 <1>        0.000
     34 H           2.2474   -2.2548   -1.9190 H.spc      1 <1>        0.000
     35 H           1.1267   -0.0620   -1.3146 H.spc      1 <1>        0.000
     36 H           2.7026    0.5360   -2.2208 H.spc      1 <1>        0.000
     37 H           3.5448    1.0786   -0.0915 H.spc      1 <1>        0.000
     38 H           2.0990    0.1410    0.6340 H.spc      1 <1>        0.000
     39 H           4.3215   -0.9164    0.6488 H.spc      1 <1>        0.000
     40 H           4.0590   -1.0594   -1.1948 H.spc      1 <1>        0.000
@<TRIPOS>BOND
     1    5   10 1  
     2    1    2 1  
     3    9   12 1  
     4    6    7 1  
     5    2    6 1  
     6    3    7 am 
     7    1    4 1  
     8    1    3 1  
     9    7   11 2  
    10    9   13 2  
    11    2    5 1  
    12    4    9 1  
    13   19   20 1  
    14   18   21 2  
    15   18   20 1  
    16   17   19 1  
    17   15   18 1  
    18   14   17 1  
    19    8   16 2  
    20    8   15 1  
    21   12   14 1  
    22   10    8 1  
    23    1   22 1  
    24    2   23 1  
    25    3   24 1  
    26    4   25 1  
    27    4   26 1  
    28    5   27 1  
    29    5   28 1  
    30   12   29 1  
    31   12   30 1  
    32   14   31 1  
    33   14   32 1  
    34   15   33 1  
    35   15   34 1  
    36   17   35 1  
    37   17   36 1  
    38   19   37 1  
    39   19   38 1  
    40   20   39 1  
    41   20   40 1  
# Name:          frag5-648-76/138278 -- energy: -8.443693
# Creation time: Sat Jun  5 12:53:50 2010


@<TRIPOS>MOLECULE
frag5-648-76/138278 -- energy: -8.443693
   40    41     1     1     1
SMALL
USER_CHARGES


@<TRIPOS>ATOM
      1 C1         -1.7538   -0.1085   -0.2147 C.3        1 <1>        0.000
      2 C2         -2.2116   -1.4152    0.3845 C.3        1 <1>        0.000
      3 N1         -3.0124    0.3865   -0.6367 N.am       1 <1>        0.000
      4 C3         -0.9714    0.9114    0.5853 C.3        1 <1>        0.000
      5 C4         -1.3203   -2.1854    1.3469 C.3        1 <1>        0.000
      6 O1         -3.5437   -1.1445    0.8132 O.3        1 <1>        0.000
      7 C6         -4.0584   -0.0953    0.0947 C.2        1 <1>        0.000
      8 C13         0.3297   -3.2380   -0.0474 C.2        1 <1>        0.000
      9 C8         -0.5234    2.1102   -0.2395 C.2        1 <1>        0.000
     10 O2          0.0174   -2.4431    0.9931 O.3        1 <1>        0.000
     11 O3         -5.2075    0.3220    0.1322 O.2        1 <1>        0.000
     12 C12         0.6861    2.9183    0.1466 C.3        1 <1>        0.000
     13 O4         -1.1563    2.4421   -1.2513 O.2        1 <1>        0.000
     14 C16         1.9648    2.1230    0.0756 C.3        1 <1>        0.000
     15 C18         1.7082   -3.0826   -0.5320 C.3        1 <1>        0.000
     16 O5         -0.4518   -4.0044   -0.6025 O.2        1 <1>        0.000
     17 C20         2.3979    1.6749   -1.3080 C.3        1 <1>        0.000
     18 C21         2.4039   -1.7731   -0.4786 C.2        1 <1>        0.000
     19 C24         3.2134    0.4205   -1.5438 C.3        1 <1>        0.000
     20 C26         2.5274   -0.9160   -1.7124 C.3        1 <1>        0.000
     21 O7          2.8174   -1.3562    0.6120 O.2        1 <1>        0.000
     22 H          -0.9669   -0.2914   -0.9464 H.spc      1 <1>        0.000
     23 H          -2.1476   -2.1941   -0.3753 H.spc      1 <1>        0.000
     24 H          -3.1255    1.0396   -1.4120 H.spc      1 <1>        0.000
     25 H          -0.0755    0.4175    0.9615 H.spc      1 <1>        0.000
     26 H          -1.6248    1.2813    1.3755 H.spc      1 <1>        0.000
     27 H          -1.2564   -1.5532    2.2325 H.spc      1 <1>        0.000
     28 H          -1.7815   -3.1700    1.4249 H.spc      1 <1>        0.000
     29 H           0.5535    3.2471    1.1773 H.spc      1 <1>        0.000
     30 H           0.7701    3.7498   -0.5532 H.spc      1 <1>        0.000
     31 H           2.7530    2.7797    0.4439 H.spc      1 <1>        0.000
     32 H           1.7901    1.2131    0.6498 H.spc      1 <1>        0.000
     33 H           2.2924   -3.7158    0.1357 H.spc      1 <1>        0.000
     34 H           1.6355   -3.2961   -1.5984 H.spc      1 <1>        0.000
     35 H           1.4540    1.4579   -1.8080 H.spc      1 <1>        0.000
     36 H           3.0660    2.4728   -1.6321 H.spc      1 <1>        0.000
     37 H           3.7045    0.5942   -2.5012 H.spc      1 <1>        0.000
     38 H           3.8038    0.3078   -0.6345 H.spc      1 <1>        0.000
     39 H           3.1417   -1.4830   -2.4119 H.spc      1 <1>        0.000
     40 H           1.5078   -0.6929   -2.0266 H.spc      1 <1>        0.000
@<TRIPOS>BOND
     1    5   10 1  
     2    1    2 1  
     3    9   12 1  
     4    6    7 1  
     5    2    6 1  
     6    3    7 am 
     7    1    4 1  
     8    1    3 1  
     9    7   11 2  
    10    9   13 2  
    11    2    5 1  
    12    4    9 1  
    13   19   20 1  
    14   18   21 2  
    15   18   20 1  
    16   17   19 1  
    17   15   18 1  
    18   14   17 1  
    19    8   16 2  
    20    8   15 1  
    21   12   14 1  
    22   10    8 1  
    23    1   22 1  
    24    2   23 1  
    25    3   24 1  
    26    4   25 1  
    27    4   26 1  
    28    5   27 1  
    29    5   28 1  
    30   12   29 1  
    31   12   30 1  
    32   14   31 1  
    33   14   32 1  
    34   15   33 1  
    35   15   34 1  
    36   17   35 1  
    37   17   36 1  
    38   19   37 1  
    39   19   38 1  
    40   20   39 1  
    41   20   40 1  
# Name:          frag5-648-76/138278 -- energy: -8.099475
# Creation time: Sat Jun  5 12:53:50 2010


@<TRIPOS>MOLECULE
frag5-648-76/138278 -- energy: -8.099475
   40    41     1     1     1
SMALL
USER_CHARGES


@<TRIPOS>ATOM
      1 C1         -2.0107    0.2076   -0.4646 C.3        1 <1>        0.000
      2 C2         -2.2551   -1.2240    0.0029 C.3        1 <1>        0.000
      3 N1         -3.3460    0.5693   -0.8725 N.am       1 <1>        0.000
      4 C3         -1.3649    1.0755    0.6040 C.3        1 <1>        0.000
      5 C4         -1.3019   -1.8719    0.9974 C.3        1 <1>        0.000
      6 O1         -3.6276   -1.2184    0.4211 O.3        1 <1>        0.000
      7 C6         -4.2963   -0.1751   -0.1959 C.2        1 <1>        0.000
      8 C13         0.8405   -2.9016    0.7476 C.2        1 <1>        0.000
      9 C8         -0.4812    2.2618    0.2709 C.2        1 <1>        0.000
     10 O2          0.0622   -1.8179    0.6291 O.3        1 <1>        0.000
     11 O3         -5.4782    0.1168   -0.1528 O.2        1 <1>        0.000
     12 C12         0.9196    2.3095    0.8548 C.3        1 <1>        0.000
     13 O4         -0.9252    3.1872   -0.4170 O.2        1 <1>        0.000
     14 C16         1.8791    1.2992    0.2685 C.3        1 <1>        0.000
     15 C18         2.1578   -2.7937    0.1047 C.3        1 <1>        0.000
     16 O5          0.5379   -3.9326    1.3423 O.2        1 <1>        0.000
     17 C20         2.0245    1.2582   -1.2313 C.3        1 <1>        0.000
     18 C21         2.3899   -2.0035   -1.1150 C.2        1 <1>        0.000
     19 C24         3.0228    0.3237   -1.8865 C.3        1 <1>        0.000
     20 C26         3.4540   -0.9436   -1.1965 C.3        1 <1>        0.000
     21 O7          1.6546   -2.1802   -2.0941 O.2        1 <1>        0.000
     22 H          -1.2820    0.3363   -1.2650 H.spc      1 <1>        0.000
     23 H          -2.0339   -1.8954   -0.8267 H.spc      1 <1>        0.000
     24 H          -3.5620    1.2818   -1.5697 H.spc      1 <1>        0.000
     25 H          -0.6840    0.3889    1.1071 H.spc      1 <1>        0.000
     26 H          -2.2181    1.5314    1.1063 H.spc      1 <1>        0.000
     27 H          -1.3997   -1.3234    1.9343 H.spc      1 <1>        0.000
     28 H          -1.5732   -2.9259    1.0565 H.spc      1 <1>        0.000
     29 H           0.8297    2.0841    1.9174 H.spc      1 <1>        0.000
     30 H           1.3233    3.2976    0.6341 H.spc      1 <1>        0.000
     31 H           2.8623    1.5760    0.6491 H.spc      1 <1>        0.000
     32 H           1.4827    0.3235    0.5496 H.spc      1 <1>        0.000
     33 H           2.7588   -2.2779    0.8536 H.spc      1 <1>        0.000
     34 H           2.3619   -3.8148   -0.2176 H.spc      1 <1>        0.000
     35 H           1.0559    0.9038   -1.5838 H.spc      1 <1>        0.000
     36 H           2.3806    2.2548   -1.4923 H.spc      1 <1>        0.000
     37 H           2.5149   -0.0215   -2.7871 H.spc      1 <1>        0.000
     38 H           3.9362    0.9144   -1.9563 H.spc      1 <1>        0.000
     39 H           3.7162   -0.6758   -0.1729 H.spc      1 <1>        0.000
     40 H           4.2751   -1.3605   -1.7797 H.spc      1 <1>        0.000
@<TRIPOS>BOND
     1    5   10 1  
     2    1    2 1  
     3    9   12 1  
     4    6    7 1  
     5    2    6 1  
     6    3    7 am 
     7    1    4 1  
     8    1    3 1  
     9    7   11 2  
    10    9   13 2  
    11    2    5 1  
    12    4    9 1  
    13   19   20 1  
    14   18   21 2  
    15   18   20 1  
    16   17   19 1  
    17   15   18 1  
    18   14   17 1  
    19    8   16 2  
    20    8   15 1  
    21   12   14 1  
    22   10    8 1  
    23    1   22 1  
    24    2   23 1  
    25    3   24 1  
    26    4   25 1  
    27    4   26 1  
    28    5   27 1  
    29    5   28 1  
    30   12   29 1  
    31   12   30 1  
    32   14   31 1  
    33   14   32 1  
    34   15   33 1  
    35   15   34 1  
    36   17   35 1  
    37   17   36 1  
    38   19   37 1  
    39   19   38 1  
    40   20   39 1  
    41   20   40 1  
# Name:          frag5-648-76/138278 -- energy: -8.465388
# Creation time: Sat Jun  5 12:53:50 2010


@<TRIPOS>MOLECULE
frag5-648-76/138278 -- energy: -8.465388
   40    41     1     1     1
SMALL
USER_CHARGES


@<TRIPOS>ATOM
      1 C1         -1.9564   -0.0120   -0.4212 C.3        1 <1>        0.000
      2 C2         -2.1873   -1.3350    0.3054 C.3        1 <1>        0.000
      3 N1         -3.3023    0.3096   -0.7595 N.am       1 <1>        0.000
      4 C3         -1.2085    1.0587    0.3530 C.3        1 <1>        0.000
      5 C4         -1.1768   -1.8674    1.3214 C.3        1 <1>        0.000
      6 O1         -3.5195   -1.2279    0.8015 O.3        1 <1>        0.000
      7 C6         -4.2119   -0.2875    0.0767 C.2        1 <1>        0.000
      8 C13         0.5087   -3.2020    0.2964 C.2        1 <1>        0.000
      9 C8         -0.4712    2.1725   -0.3624 C.2        1 <1>        0.000
     10 O2          0.1506   -2.0599    0.9204 O.3        1 <1>        0.000
     11 O3         -5.4010   -0.0309    0.1728 O.2        1 <1>        0.000
     12 C12         0.8365    2.7135    0.1992 C.3        1 <1>        0.000
     13 O4         -0.9702    2.6986   -1.3662 O.2        1 <1>        0.000
     14 C16         1.9953    1.7463    0.3168 C.3        1 <1>        0.000
     15 C18         1.6186   -3.0105   -0.6467 C.3        1 <1>        0.000
     16 O5         -0.0291   -4.2898    0.4410 O.2        1 <1>        0.000
     17 C20         2.9038    1.5358   -0.8792 C.3        1 <1>        0.000
     18 C21         2.0425   -1.6374   -0.9838 C.2        1 <1>        0.000
     19 C24         3.6817    0.2468   -1.0952 C.3        1 <1>        0.000
     20 C26         3.2769   -1.0217   -0.3953 C.3        1 <1>        0.000
     21 O7          1.2753   -0.9534   -1.6780 O.2        1 <1>        0.000
     22 H          -1.2737   -0.0850   -1.2678 H.spc      1 <1>        0.000
     23 H          -2.0227   -2.1340   -0.4175 H.spc      1 <1>        0.000
     24 H          -3.5613    0.9166   -1.5373 H.spc      1 <1>        0.000
     25 H          -0.4200    0.5092    0.8672 H.spc      1 <1>        0.000
     26 H          -1.9904    1.5757    0.9092 H.spc      1 <1>        0.000
     27 H          -1.1281   -1.1027    2.0966 H.spc      1 <1>        0.000
     28 H          -1.5385   -2.8619    1.5829 H.spc      1 <1>        0.000
     29 H           0.6116    3.0294    1.2179 H.spc      1 <1>        0.000
     30 H           1.1633    3.4813   -0.5021 H.spc      1 <1>        0.000
     31 H           2.6391    2.1726    1.0861 H.spc      1 <1>        0.000
     32 H           1.5328    0.7749    0.4917 H.spc      1 <1>        0.000
     33 H           2.4832   -3.4591   -0.1576 H.spc      1 <1>        0.000
     34 H           1.2645   -3.4337   -1.5867 H.spc      1 <1>        0.000
     35 H           2.2176    1.5619   -1.7257 H.spc      1 <1>        0.000
     36 H           3.6854    2.2822   -0.7375 H.spc      1 <1>        0.000
     37 H           3.5405    0.0243   -2.1529 H.spc      1 <1>        0.000
     38 H           4.6737    0.4647   -0.6995 H.spc      1 <1>        0.000
     39 H           3.0658   -0.7773    0.6458 H.spc      1 <1>        0.000
     40 H           4.0918   -1.7377   -0.5015 H.spc      1 <1>        0.000
@<TRIPOS>BOND
     1    5   10 1  
     2    1    2 1  
     3    9   12 1  
     4    6    7 1  
     5    2    6 1  
     6    3    7 am 
     7    1    4 1  
     8    1    3 1  
     9    7   11 2  
    10    9   13 2  
    11    2    5 1  
    12    4    9 1  
    13   19   20 1  
    14   18   21 2  
    15   18   20 1  
    16   17   19 1  
    17   15   18 1  
    18   14   17 1  
    19    8   16 2  
    20    8   15 1  
    21   12   14 1  
    22   10    8 1  
    23    1   22 1  
    24    2   23 1  
    25    3   24 1  
    26    4   25 1  
    27    4   26 1  
    28    5   27 1  
    29    5   28 1  
    30   12   29 1  
    31   12   30 1  
    32   14   31 1  
    33   14   32 1  
    34   15   33 1  
    35   15   34 1  
    36   17   35 1  
    37   17   36 1  
    38   19   37 1  
    39   19   38 1  
    40   20   39 1  
    41   20   40 1  
# Name:          frag5-648-76/138278 -- energy: -9.124467
# Creation time: Sat Jun  5 12:53:50 2010


@<TRIPOS>MOLECULE
frag5-648-76/138278 -- energy: -9.124467
   40    41     1     1     1
SMALL
USER_CHARGES


@<TRIPOS>ATOM
      1 C1         -2.6748    0.5824   -0.1290 C.3        1 <1>        0.000
      2 C2         -2.8253   -0.7456   -0.8491 C.3        1 <1>        0.000
      3 N1         -3.7430    0.4789    0.8099 N.am       1 <1>        0.000
      4 C3         -1.3476    1.0135    0.4898 C.3        1 <1>        0.000
      5 C4         -1.5991   -1.3832   -1.4529 C.3        1 <1>        0.000
      6 O1         -3.5382   -1.5664    0.0719 O.3        1 <1>        0.000
      7 C6         -4.1721   -0.8081    1.0170 C.2        1 <1>        0.000
      8 C13        -0.0143   -2.4391    0.0545 C.2        1 <1>        0.000
      9 C8         -0.1874    1.4914   -0.3632 C.2        1 <1>        0.000
     10 O2         -0.4508   -1.3834   -0.6521 O.3        1 <1>        0.000
     11 O3         -4.9392   -1.1976    1.8729 O.2        1 <1>        0.000
     12 C12         1.1473    1.8197    0.2963 C.3        1 <1>        0.000
     13 O4         -0.3434    1.6508   -1.5792 O.2        1 <1>        0.000
     14 C16         2.3480    2.2417   -0.5262 C.3        1 <1>        0.000
     15 C18         1.3187   -2.1639    0.6257 C.3        1 <1>        0.000
     16 O5         -0.5997   -3.4974    0.2108 O.2        1 <1>        0.000
     17 C20         3.2110    1.2698   -1.3048 C.3        1 <1>        0.000
     18 C21         2.3708   -1.5550   -0.2245 C.2        1 <1>        0.000
     19 C24         4.0887    0.2165   -0.6435 C.3        1 <1>        0.000
     20 C26         3.5291   -0.7846    0.3381 C.3        1 <1>        0.000
     21 O7          2.2771   -1.6941   -1.4453 O.2        1 <1>        0.000
     22 H          -2.7008    1.3978   -0.8519 H.spc      1 <1>        0.000
     23 H          -3.3603   -0.5844   -1.7850 H.spc      1 <1>        0.000
     24 H          -4.1500    1.2856    1.2831 H.spc      1 <1>        0.000
     25 H          -0.9699    0.1016    0.9523 H.spc      1 <1>        0.000
     26 H          -1.6111    1.8899    1.0819 H.spc      1 <1>        0.000
     27 H          -1.8517   -2.4292   -1.6265 H.spc      1 <1>        0.000
     28 H          -1.3544   -0.7978   -2.3392 H.spc      1 <1>        0.000
     29 H           1.4564    0.8764    0.7466 H.spc      1 <1>        0.000
     30 H           0.9289    2.6942    0.9092 H.spc      1 <1>        0.000
     31 H           1.9039    2.8559   -1.3096 H.spc      1 <1>        0.000
     32 H           3.0349    2.6303    0.2257 H.spc      1 <1>        0.000
     33 H           1.1361   -1.4268    1.4076 H.spc      1 <1>        0.000
     34 H           1.7126   -3.1452    0.8903 H.spc      1 <1>        0.000
     35 H           2.4792    0.6732   -1.8495 H.spc      1 <1>        0.000
     36 H           3.9352    1.9214   -1.7938 H.spc      1 <1>        0.000
     37 H           4.4235   -0.4002   -1.4776 H.spc      1 <1>        0.000
     38 H           4.7865    0.8018   -0.0447 H.spc      1 <1>        0.000
     39 H           3.1763   -0.2374    1.2123 H.spc      1 <1>        0.000
     40 H           4.3192   -1.4950    0.5813 H.spc      1 <1>        0.000
@<TRIPOS>BOND
     1    5   10 1  
     2    1    2 1  
     3    9   12 1  
     4    6    7 1  
     5    2    6 1  
     6    3    7 am 
     7    1    4 1  
     8    1    3 1  
     9    7   11 2  
    10    9   13 2  
    11    2    5 1  
    12    4    9 1  
    13   19   20 1  
    14   18   21 2  
    15   18   20 1  
    16   17   19 1  
    17   15   18 1  
    18   14   17 1  
    19    8   16 2  
    20    8   15 1  
    21   12   14 1  
    22   10    8 1  
    23    1   22 1  
    24    2   23 1  
    25    3   24 1  
    26    4   25 1  
    27    4   26 1  
    28    5   27 1  
    29    5   28 1  
    30   12   29 1  
    31   12   30 1  
    32   14   31 1  
    33   14   32 1  
    34   15   33 1  
    35   15   34 1  
    36   17   35 1  
    37   17   36 1  
    38   19   37 1  
    39   19   38 1  
    40   20   39 1  
    41   20   40 1  
# Name:          frag5-648-76/138278 -- energy: -8.612811
# Creation time: Sat Jun  5 12:53:50 2010


@<TRIPOS>MOLECULE
frag5-648-76/138278 -- energy: -8.612811
   40    41     1     1     1
SMALL
USER_CHARGES


@<TRIPOS>ATOM
      1 C1         -1.8774    0.1840   -0.2412 C.3        1 <1>        0.000
      2 C2         -2.2009   -1.2208    0.1885 C.3        1 <1>        0.000
      3 N1         -3.1761    0.6504   -0.5847 N.am       1 <1>        0.000
      4 C3         -1.1455    1.0753    0.7305 C.3        1 <1>        0.000
      5 C4         -1.2171   -1.9457    1.0951 C.3        1 <1>        0.000
      6 O1         -3.5425   -1.1497    0.6356 O.3        1 <1>        0.000
      7 C6         -4.1602   -0.0558    0.0738 C.2        1 <1>        0.000
      8 C13         0.6367   -3.1308    0.1756 C.2        1 <1>        0.000
      9 C8         -0.6746    2.3675    0.1188 C.2        1 <1>        0.000
     10 O2          0.1532   -1.9991    0.7325 O.3        1 <1>        0.000
     11 O3         -5.3500    0.2366    0.1411 O.2        1 <1>        0.000
     12 C12         0.7443    2.8361    0.3430 C.3        1 <1>        0.000
     13 O4         -1.4356    3.0321   -0.5736 O.2        1 <1>        0.000
     14 C16         1.7912    2.3696   -0.6468 C.3        1 <1>        0.000
     15 C18         2.1042   -3.1620    0.0153 C.3        1 <1>        0.000
     16 O5         -0.0544   -4.0755   -0.1845 O.2        1 <1>        0.000
     17 C20         2.2651    0.9214   -0.6879 C.3        1 <1>        0.000
     18 C21         2.8802   -2.1307   -0.6991 C.2        1 <1>        0.000
     19 C24         1.8128    0.0056   -1.7946 C.3        1 <1>        0.000
     20 C26         2.2851   -1.4341   -1.9082 C.3        1 <1>        0.000
     21 O7          4.0174   -1.8282   -0.3122 O.2        1 <1>        0.000
     22 H          -1.1335    0.2012   -1.0377 H.spc      1 <1>        0.000
     23 H          -2.0854   -1.9036   -0.6533 H.spc      1 <1>        0.000
     24 H          -3.3572    1.4130   -1.2374 H.spc      1 <1>        0.000
     25 H          -0.2639    0.5336    1.0731 H.spc      1 <1>        0.000
     26 H          -1.8391    1.3255    1.5332 H.spc      1 <1>        0.000
     27 H          -1.2355   -1.3851    2.0297 H.spc      1 <1>        0.000
     28 H          -1.5469   -2.9846    1.0886 H.spc      1 <1>        0.000
     29 H           1.0435    2.4240    1.3067 H.spc      1 <1>        0.000
     30 H           0.7152    3.9220    0.2534 H.spc      1 <1>        0.000
     31 H           1.3132    2.5131   -1.6159 H.spc      1 <1>        0.000
     32 H           2.6838    2.9259   -0.3608 H.spc      1 <1>        0.000
     33 H           2.4593   -3.0613    1.0409 H.spc      1 <1>        0.000
     34 H           2.2590   -4.0478   -0.6008 H.spc      1 <1>        0.000
     35 H           3.3445    0.9940   -0.8214 H.spc      1 <1>        0.000
     36 H           1.8520    0.4761    0.2172 H.spc      1 <1>        0.000
     37 H           0.7419   -0.0938   -1.6175 H.spc      1 <1>        0.000
     38 H           2.2175    0.4750   -2.6912 H.spc      1 <1>        0.000
     39 H           3.0991   -1.3990   -2.6323 H.spc      1 <1>        0.000
     40 H           1.3823   -2.0015   -2.1344 H.spc      1 <1>        0.000
@<TRIPOS>BOND
     1    5   10 1  
     2    1    2 1  
     3    9   12 1  
     4    6    7 1  
     5    2    6 1  
     6    3    7 am 
     7    1    4 1  
     8    1    3 1  
     9    7   11 2  
    10    9   13 2  
    11    2    5 1  
    12    4    9 1  
    13   19   20 1  
    14   18   21 2  
    15   18   20 1  
    16   17   19 1  
    17   15   18 1  
    18   14   17 1  
    19    8   16 2  
    20    8   15 1  
    21   12   14 1  
    22   10    8 1  
    23    1   22 1  
    24    2   23 1  
    25    3   24 1  
    26    4   25 1  
    27    4   26 1  
    28    5   27 1  
    29    5   28 1  
    30   12   29 1  
    31   12   30 1  
    32   14   31 1  
    33   14   32 1  
    34   15   33 1  
    35   15   34 1  
    36   17   35 1  
    37   17   36 1  
    38   19   37 1  
    39   19   38 1  
    40   20   39 1  
    41   20   40 1  
# Name:          frag5-648-76/138278 -- energy: -7.661895
# Creation time: Sat Jun  5 12:53:50 2010


@<TRIPOS>MOLECULE
frag5-648-76/138278 -- energy: -7.661895
   40    41     1     1     1
SMALL
USER_CHARGES


@<TRIPOS>ATOM
      1 C1         -2.0163    0.1062   -0.4050 C.3        1 <1>        0.000
      2 C2         -2.1478   -1.2184    0.3101 C.3        1 <1>        0.000
      3 N1         -3.3780    0.3854   -0.5528 N.am       1 <1>        0.000
      4 C3         -1.2795    1.1992    0.3398 C.3        1 <1>        0.000
      5 C4         -0.9550   -1.7787    1.0510 C.3        1 <1>        0.000
      6 O1         -3.3267   -1.0537    1.1009 O.3        1 <1>        0.000
      7 C6         -4.0959   -0.0755    0.5264 C.2        1 <1>        0.000
      8 C13         0.3715   -2.9146   -0.4920 C.2        1 <1>        0.000
      9 C8         -0.8468    2.4044   -0.4667 C.2        1 <1>        0.000
     10 O2          0.2693   -1.8936    0.3745 O.3        1 <1>        0.000
     11 O3         -5.1679    0.2878    0.9610 O.2        1 <1>        0.000
     12 C12         0.4484    3.1238   -0.1626 C.3        1 <1>        0.000
     13 O4         -1.5823    2.8253   -1.3647 O.2        1 <1>        0.000
     14 C16         1.5679    2.2220    0.2618 C.3        1 <1>        0.000
     15 C18         1.7081   -3.1692   -1.0409 C.3        1 <1>        0.000
     16 O5         -0.5718   -3.6324   -0.8240 O.2        1 <1>        0.000
     17 C20         2.0194    1.1784   -0.7314 C.3        1 <1>        0.000
     18 C21         2.9629   -2.4399   -0.7648 C.2        1 <1>        0.000
     19 C24         2.8115    0.0085   -0.2102 C.3        1 <1>        0.000
     20 C26         3.2389   -1.0299   -1.2147 C.3        1 <1>        0.000
     21 O7          3.8260   -2.9885   -0.0788 O.2        1 <1>        0.000
     22 H          -1.4111    0.0588   -1.3103 H.spc      1 <1>        0.000
     23 H          -2.2137   -2.0200   -0.4256 H.spc      1 <1>        0.000
     24 H          -3.7853    0.8670   -1.3544 H.spc      1 <1>        0.000
     25 H          -0.3617    0.7422    0.7098 H.spc      1 <1>        0.000
     26 H          -1.9785    1.5751    1.0869 H.spc      1 <1>        0.000
     27 H          -0.7661   -1.0707    1.8579 H.spc      1 <1>        0.000
     28 H          -1.2348   -2.8014    1.3036 H.spc      1 <1>        0.000
     29 H           0.2515    3.8036    0.6664 H.spc      1 <1>        0.000
     30 H           0.7647    3.6183   -1.0811 H.spc      1 <1>        0.000
     31 H           2.4284    2.8711    0.4241 H.spc      1 <1>        0.000
     32 H           1.1956    1.6706    1.1252 H.spc      1 <1>        0.000
     33 H           1.9316   -4.1415   -0.6019 H.spc      1 <1>        0.000
     34 H           1.5518   -2.9241   -2.0914 H.spc      1 <1>        0.000
     35 H           1.1039    0.7507   -1.1400 H.spc      1 <1>        0.000
     36 H           2.6875    1.6995   -1.4171 H.spc      1 <1>        0.000
     37 H           3.7326    0.4289    0.1935 H.spc      1 <1>        0.000
     38 H           2.1546   -0.5074    0.4900 H.spc      1 <1>        0.000
     39 H           4.3157   -0.9322   -1.3527 H.spc      1 <1>        0.000
     40 H           2.6711   -0.8580   -2.1291 H.spc      1 <1>        0.000
@<TRIPOS>BOND
     1    5   10 1  
     2    1    2 1  
     3    9   12 1  
     4    6    7 1  
     5    2    6 1  
     6    3    7 am 
     7    1    4 1  
     8    1    3 1  
     9    7   11 2  
    10    9   13 2  
    11    2    5 1  
    12    4    9 1  
    13   19   20 1  
    14   18   21 2  
    15   18   20 1  
    16   17   19 1  
    17   15   18 1  
    18   14   17 1  
    19    8   16 2  
    20    8   15 1  
    21   12   14 1  
    22   10    8 1  
    23    1   22 1  
    24    2   23 1  
    25    3   24 1  
    26    4   25 1  
    27    4   26 1  
    28    5   27 1  
    29    5   28 1  
    30   12   29 1  
    31   12   30 1  
    32   14   31 1  
    33   14   32 1  
    34   15   33 1  
    35   15   34 1  
    36   17   35 1  
    37   17   36 1  
    38   19   37 1  
    39   19   38 1  
    40   20   39 1  
    41   20   40 1  
# Name:          frag5-648-76/138278 -- energy: -7.697547
# Creation time: Sat Jun  5 12:53:50 2010


@<TRIPOS>MOLECULE
frag5-648-76/138278 -- energy: -7.697547
   40    41     1     1     1
SMALL
USER_CHARGES


@<TRIPOS>ATOM
      1 C1         -2.0597    0.1822   -0.3911 C.3        1 <1>        0.000
      2 C2         -2.4167   -1.2594   -0.2253 C.3        1 <1>        0.000
      3 N1         -3.3691    0.7582   -0.4896 N.am       1 <1>        0.000
      4 C3         -1.1766    0.8362    0.6578 C.3        1 <1>        0.000
      5 C4         -1.4756   -2.2771    0.3350 C.3        1 <1>        0.000
      6 O1         -3.6931   -1.1988    0.4546 O.3        1 <1>        0.000
      7 C6         -4.2968    0.0076    0.1762 C.2        1 <1>        0.000
      8 C13         0.8405   -2.5655    0.4942 C.2        1 <1>        0.000
      9 C8         -0.6610    2.1983    0.2833 C.2        1 <1>        0.000
     10 O2         -0.2570   -2.5065   -0.2823 O.3        1 <1>        0.000
     11 O3         -5.4363    0.3247    0.4780 O.2        1 <1>        0.000
     12 C12         0.7881    2.5490    0.4345 C.3        1 <1>        0.000
     13 O4         -1.4198    3.0453   -0.1977 O.2        1 <1>        0.000
     14 C16         1.5342    2.1030   -0.8076 C.3        1 <1>        0.000
     15 C18         2.0336   -3.1166   -0.1580 C.3        1 <1>        0.000
     16 O5          0.9201   -2.1541    1.6517 O.2        1 <1>        0.000
     17 C20         1.7921    0.6196   -1.0115 C.3        1 <1>        0.000
     18 C21         2.7797   -2.3447   -1.1695 C.2        1 <1>        0.000
     19 C24         3.1417    0.1577   -0.5209 C.3        1 <1>        0.000
     20 C26         3.6856   -1.2356   -0.7275 C.3        1 <1>        0.000
     21 O7          2.6017   -2.5773   -2.3671 O.2        1 <1>        0.000
     22 H          -1.3966    0.3361   -1.2424 H.spc      1 <1>        0.000
     23 H          -2.3984   -1.7019   -1.2213 H.spc      1 <1>        0.000
     24 H          -3.5813    1.6195   -0.9931 H.spc      1 <1>        0.000
     25 H          -0.3069    0.1920    0.7872 H.spc      1 <1>        0.000
     26 H          -1.7864    0.9624    1.5524 H.spc      1 <1>        0.000
     27 H          -1.2139   -1.8930    1.3210 H.spc      1 <1>        0.000
     28 H          -2.0101   -3.2226    0.2433 H.spc      1 <1>        0.000
     29 H           1.1988    2.0474    1.3107 H.spc      1 <1>        0.000
     30 H           0.8949    3.6263    0.5613 H.spc      1 <1>        0.000
     31 H           0.8966    2.3967   -1.6415 H.spc      1 <1>        0.000
     32 H           2.5232    2.5529   -0.7205 H.spc      1 <1>        0.000
     33 H           2.7463   -3.2364    0.6580 H.spc      1 <1>        0.000
     34 H           1.6560   -3.9766   -0.7111 H.spc      1 <1>        0.000
     35 H           1.0380    0.0789   -0.4395 H.spc      1 <1>        0.000
     36 H           1.7560    0.4298   -2.0842 H.spc      1 <1>        0.000
     37 H           3.8305    0.7722   -1.1005 H.spc      1 <1>        0.000
     38 H           3.0354    0.2152    0.5624 H.spc      1 <1>        0.000
     39 H           4.0240   -1.5423    0.2622 H.spc      1 <1>        0.000
     40 H           4.3986   -1.1281   -1.5449 H.spc      1 <1>        0.000
@<TRIPOS>BOND
     1    5   10 1  
     2    1    2 1  
     3    9   12 1  
     4    6    7 1  
     5    2    6 1  
     6    3    7 am 
     7    1    4 1  
     8    1    3 1  
     9    7   11 2  
    10    9   13 2  
    11    2    5 1  
    12    4    9 1  
    13   19   20 1  
    14   18   21 2  
    15   18   20 1  
    16   17   19 1  
    17   15   18 1  
    18   14   17 1  
    19    8   16 2  
    20    8   15 1  
    21   12   14 1  
    22   10    8 1  
    23    1   22 1  
    24    2   23 1  
    25    3   24 1  
    26    4   25 1  
    27    4   26 1  
    28    5   27 1  
    29    5   28 1  
    30   12   29 1  
    31   12   30 1  
    32   14   31 1  
    33   14   32 1  
    34   15   33 1  
    35   15   34 1  
    36   17   35 1  
    37   17   36 1  
    38   19   37 1  
    39   19   38 1  
    40   20   39 1  
    41   20   40 1  
# Name:          frag5-648-76/138278 -- energy: -8.433608
# Creation time: Sat Jun  5 12:53:50 2010


@<TRIPOS>MOLECULE
frag5-648-76/138278 -- energy: -8.433608
   40    41     1     1     1
SMALL
USER_CHARGES


@<TRIPOS>ATOM
      1 C1         -1.9540    0.1177   -0.3648 C.3        1 <1>        0.000
      2 C2         -2.1718   -1.2643    0.2274 C.3        1 <1>        0.000
      3 N1         -3.3143    0.4302   -0.6395 N.am       1 <1>        0.000
      4 C3         -1.2105    1.0867    0.5517 C.3        1 <1>        0.000
      5 C4         -1.0623   -1.9076    1.0273 C.3        1 <1>        0.000
      6 O1         -3.4316   -1.1588    0.8789 O.3        1 <1>        0.000
      7 C6         -4.1749   -0.1840    0.2483 C.2        1 <1>        0.000
      8 C13         0.4288   -3.0842   -0.4107 C.2        1 <1>        0.000
      9 C8         -0.6269    2.4152    0.0998 C.2        1 <1>        0.000
     10 O2          0.1863   -2.0511    0.4216 O.3        1 <1>        0.000
     11 O3         -5.3454    0.0706    0.4600 O.2        1 <1>        0.000
     12 C12         0.8742    2.6749    0.0534 C.3        1 <1>        0.000
     13 O4         -1.3913    3.3332   -0.2179 O.2        1 <1>        0.000
     14 C16         1.5249    2.4964   -1.2958 C.3        1 <1>        0.000
     15 C18         1.8445   -3.1863   -0.7948 C.3        1 <1>        0.000
     16 O5         -0.4113   -3.8626   -0.8269 O.2        1 <1>        0.000
     17 C20         2.5003    1.3703   -1.5651 C.3        1 <1>        0.000
     18 C21         2.8534   -2.2700   -0.2128 C.2        1 <1>        0.000
     19 C24         2.2212    0.0105   -0.9867 C.3        1 <1>        0.000
     20 C26         3.2856   -1.0559   -0.9828 C.3        1 <1>        0.000
     21 O7          3.2306   -2.4344    0.9465 O.2        1 <1>        0.000
     22 H          -1.2906    0.1777   -1.2276 H.spc      1 <1>        0.000
     23 H          -2.1606   -2.0084   -0.5690 H.spc      1 <1>        0.000
     24 H          -3.6178    1.0361   -1.4018 H.spc      1 <1>        0.000
     25 H          -0.3225    0.5185    0.8287 H.spc      1 <1>        0.000
     26 H          -1.9863    1.3938    1.2530 H.spc      1 <1>        0.000
     27 H          -0.8965   -1.2439    1.8759 H.spc      1 <1>        0.000
     28 H          -1.4035   -2.9230    1.2287 H.spc      1 <1>        0.000
     29 H           1.3354    1.9449    0.7186 H.spc      1 <1>        0.000
     30 H           1.0164    3.7196    0.3299 H.spc      1 <1>        0.000
     31 H           0.6884    2.2787   -1.9599 H.spc      1 <1>        0.000
     32 H           2.1293    3.3959   -1.4127 H.spc      1 <1>        0.000
     33 H           2.1460   -4.1732   -0.4437 H.spc      1 <1>        0.000
     34 H           1.8504   -2.9490   -1.8586 H.spc      1 <1>        0.000
     35 H           2.4728    1.2271   -2.6453 H.spc      1 <1>        0.000
     36 H           3.4324    1.6883   -1.0980 H.spc      1 <1>        0.000
     37 H           2.0322    0.2031    0.0694 H.spc      1 <1>        0.000
     38 H           1.4379   -0.3962   -1.6264 H.spc      1 <1>        0.000
     39 H           4.1781   -0.6482   -0.5081 H.spc      1 <1>        0.000
     40 H           3.4769   -1.3535   -2.0138 H.spc      1 <1>        0.000
@<TRIPOS>BOND
     1    5   10 1  
     2    1    2 1  
     3    9   12 1  
     4    6    7 1  
     5    2    6 1  
     6    3    7 am 
     7    1    4 1  
     8    1    3 1  
     9    7   11 2  
    10    9   13 2  
    11    2    5 1  
    12    4    9 1  
    13   19   20 1  
    14   18   21 2  
    15   18   20 1  
    16   17   19 1  
    17   15   18 1  
    18   14   17 1  
    19    8   16 2  
    20    8   15 1  
    21   12   14 1  
    22   10    8 1  
    23    1   22 1  
    24    2   23 1  
    25    3   24 1  
    26    4   25 1  
    27    4   26 1  
    28    5   27 1  
    29    5   28 1  
    30   12   29 1  
    31   12   30 1  
    32   14   31 1  
    33   14   32 1  
    34   15   33 1  
    35   15   34 1  
    36   17   35 1  
    37   17   36 1  
    38   19   37 1  
    39   19   38 1  
    40   20   39 1  
    41   20   40 1  
# Name:          frag5-648-76/138278 -- energy: -8.901419
# Creation time: Sat Jun  5 12:53:50 2010


@<TRIPOS>MOLECULE
frag5-648-76/138278 -- energy: -8.901419
   40    41     1     1     1
SMALL
USER_CHARGES


@<TRIPOS>ATOM
      1 C1         -1.7987    0.1505   -0.4405 C.3        1 <1>        0.000
      2 C2         -2.1190   -1.1436    0.2807 C.3        1 <1>        0.000
      3 N1         -3.0026    0.2544   -1.2014 N.am       1 <1>        0.000
      4 C3         -1.4571    1.3395    0.4605 C.3        1 <1>        0.000
      5 C4         -1.3360   -1.5332    1.5321 C.3        1 <1>        0.000
      6 O1         -3.5432   -1.1149    0.3993 O.3        1 <1>        0.000
      7 C6         -4.0744   -0.3844   -0.6302 C.2        1 <1>        0.000
      8 C13         0.5284   -2.7471    0.7388 C.2        1 <1>        0.000
      9 C8         -0.0198    1.6091    0.8578 C.2        1 <1>        0.000
     10 O2          0.0543   -1.7134    1.4476 O.3        1 <1>        0.000
     11 O3         -5.2464   -0.3287   -0.9416 O.2        1 <1>        0.000
     12 C12         0.7799    2.7563    0.2701 C.3        1 <1>        0.000
     13 O4          0.5401    0.8708    1.6770 O.2        1 <1>        0.000
     14 C16         2.0684    2.2789   -0.3601 C.3        1 <1>        0.000
     15 C18         1.8459   -2.5258    0.1186 C.3        1 <1>        0.000
     16 O5         -0.1046   -3.7752    0.5126 O.2        1 <1>        0.000
     17 C20         1.8217    1.3715   -1.5378 C.3        1 <1>        0.000
     18 C21         1.9583   -1.6955   -1.0987 C.2        1 <1>        0.000
     19 C24         2.8112    0.4203   -2.1612 C.3        1 <1>        0.000
     20 C26         3.1671   -0.8651   -1.4412 C.3        1 <1>        0.000
     21 O7          0.9822   -1.6779   -1.8652 O.2        1 <1>        0.000
     22 H          -0.8805    0.1550   -1.0278 H.spc      1 <1>        0.000
     23 H          -1.7479   -1.9872   -0.3013 H.spc      1 <1>        0.000
     24 H          -3.0605    0.7568   -2.0872 H.spc      1 <1>        0.000
     25 H          -1.9607    1.1187    1.4017 H.spc      1 <1>        0.000
     26 H          -1.7441    2.2132   -0.1247 H.spc      1 <1>        0.000
     27 H          -1.4658   -0.6923    2.2134 H.spc      1 <1>        0.000
     28 H          -1.7262   -2.5124    1.8098 H.spc      1 <1>        0.000
     29 H           1.0283    3.4480    1.0750 H.spc      1 <1>        0.000
     30 H           0.1771    3.2332   -0.5027 H.spc      1 <1>        0.000
     31 H           2.6180    3.1516   -0.7127 H.spc      1 <1>        0.000
     32 H           2.6263    1.7182    0.3899 H.spc      1 <1>        0.000
     33 H           2.4148   -1.9824    0.8730 H.spc      1 <1>        0.000
     34 H           2.1691   -3.5178   -0.1969 H.spc      1 <1>        0.000
     35 H           1.0789    0.6835   -1.1341 H.spc      1 <1>        0.000
     36 H           1.6706    2.0910   -2.3425 H.spc      1 <1>        0.000
     37 H           2.3370    0.0961   -3.0876 H.spc      1 <1>        0.000
     38 H           3.7449    0.9811   -2.2034 H.spc      1 <1>        0.000
     39 H           3.6645   -0.5988   -0.5086 H.spc      1 <1>        0.000
     40 H           3.8005   -1.4548   -2.1039 H.spc      1 <1>        0.000
@<TRIPOS>BOND
     1    5   10 1  
     2    1    2 1  
     3    9   12 1  
     4    6    7 1  
     5    2    6 1  
     6    3    7 am 
     7    1    4 1  
     8    1    3 1  
     9    7   11 2  
    10    9   13 2  
    11    2    5 1  
    12    4    9 1  
    13   19   20 1  
    14   18   21 2  
    15   18   20 1  
    16   17   19 1  
    17   15   18 1  
    18   14   17 1  
    19    8   16 2  
    20    8   15 1  
    21   12   14 1  
    22   10    8 1  
    23    1   22 1  
    24    2   23 1  
    25    3   24 1  
    26    4   25 1  
    27    4   26 1  
    28    5   27 1  
    29    5   28 1  
    30   12   29 1  
    31   12   30 1  
    32   14   31 1  
    33   14   32 1  
    34   15   33 1  
    35   15   34 1  
    36   17   35 1  
    37   17   36 1  
    38   19   37 1  
    39   19   38 1  
    40   20   39 1  
    41   20   40 1  
# Name:          frag5-648-76/138278 -- energy: -8.912795
# Creation time: Sat Jun  5 12:53:50 2010


@<TRIPOS>MOLECULE
frag5-648-76/138278 -- energy: -8.912795
   40    41     1     1     1
SMALL
USER_CHARGES


@<TRIPOS>ATOM
      1 C1         -1.7547    0.0610   -0.2253 C.3        1 <1>        0.000
      2 C2         -2.0482   -1.2754    0.4181 C.3        1 <1>        0.000
      3 N1         -3.0629    0.3974   -0.6491 N.am       1 <1>        0.000
      4 C3         -1.1358    1.1439    0.6407 C.3        1 <1>        0.000
      5 C4         -1.0310   -1.9258    1.3459 C.3        1 <1>        0.000
      6 O1         -3.3643   -1.1050    0.9342 O.3        1 <1>        0.000
      7 C6         -3.9812   -0.0823    0.2478 C.2        1 <1>        0.000
      8 C13         0.4874   -3.0907   -0.0266 C.2        1 <1>        0.000
      9 C8         -0.7304    2.3870   -0.1174 C.2        1 <1>        0.000
     10 O2          0.2860   -2.1260    0.8930 O.3        1 <1>        0.000
     11 O3         -5.1119    0.3623    0.4110 O.2        1 <1>        0.000
     12 C12         0.6500    2.9447    0.0259 C.3        1 <1>        0.000
     13 O4         -1.5049    2.9210   -0.9064 O.2        1 <1>        0.000
     14 C16         1.5579    2.2917   -0.9836 C.3        1 <1>        0.000
     15 C18         1.8420   -3.2023   -0.5807 C.3        1 <1>        0.000
     16 O5         -0.3944   -3.8478   -0.4093 O.2        1 <1>        0.000
     17 C20         1.8515    0.8147   -1.0652 C.3        1 <1>        0.000
     18 C21         2.7109   -2.1152   -1.0733 C.2        1 <1>        0.000
     19 C24         2.3793    0.0911    0.1413 C.3        1 <1>        0.000
     20 C26         3.2720   -1.0873   -0.1202 C.3        1 <1>        0.000
     21 O7          2.9384   -2.0106   -2.2836 O.2        1 <1>        0.000
     22 H          -0.9780   -0.0121   -0.9866 H.spc      1 <1>        0.000
     23 H          -1.9632   -2.0642   -0.3294 H.spc      1 <1>        0.000
     24 H          -3.2884    0.9192   -1.4960 H.spc      1 <1>        0.000
     25 H          -0.2303    0.7257    1.0805 H.spc      1 <1>        0.000
     26 H          -1.8893    1.4429    1.3693 H.spc      1 <1>        0.000
     27 H          -0.9351   -1.2335    2.1823 H.spc      1 <1>        0.000
     28 H          -1.4190   -2.9286    1.5245 H.spc      1 <1>        0.000
     29 H           1.0208    2.7473    1.0317 H.spc      1 <1>        0.000
     30 H           0.6284    4.0210   -0.1451 H.spc      1 <1>        0.000
     31 H           1.0294    2.4731   -1.9195 H.spc      1 <1>        0.000
     32 H           2.5311    2.7053   -0.7191 H.spc      1 <1>        0.000
     33 H           2.4001   -3.5388    0.2930 H.spc      1 <1>        0.000
     34 H           1.6483   -3.7513   -1.5022 H.spc      1 <1>        0.000
     35 H           0.8836    0.3529   -1.2604 H.spc      1 <1>        0.000
     36 H           2.6487    0.7338   -1.8041 H.spc      1 <1>        0.000
     37 H           2.9868    0.8147    0.6849 H.spc      1 <1>        0.000
     38 H           1.5065   -0.3018    0.6628 H.spc      1 <1>        0.000
     39 H           3.4161   -1.5907    0.8358 H.spc      1 <1>        0.000
     40 H           4.1811   -0.6974   -0.5780 H.spc      1 <1>        0.000
@<TRIPOS>BOND
     1    5   10 1  
     2    1    2 1  
     3    9   12 1  
     4    6    7 1  
     5    2    6 1  
     6    3    7 am 
     7    1    4 1  
     8    1    3 1  
     9    7   11 2  
    10    9   13 2  
    11    2    5 1  
    12    4    9 1  
    13   19   20 1  
    14   18   21 2  
    15   18   20 1  
    16   17   19 1  
    17   15   18 1  
    18   14   17 1  
    19    8   16 2  
    20    8   15 1  
    21   12   14 1  
    22   10    8 1  
    23    1   22 1  
    24    2   23 1  
    25    3   24 1  
    26    4   25 1  
    27    4   26 1  
    28    5   27 1  
    29    5   28 1  
    30   12   29 1  
    31   12   30 1  
    32   14   31 1  
    33   14   32 1  
    34   15   33 1  
    35   15   34 1  
    36   17   35 1  
    37   17   36 1  
    38   19   37 1  
    39   19   38 1  
    40   20   39 1  
    41   20   40 1  
# Name:          frag5-648-76/138278 -- energy: -7.897186
# Creation time: Sat Jun  5 12:53:50 2010


@<TRIPOS>MOLECULE
frag5-648-76/138278 -- energy: -7.897186
   40    41     1     1     1
SMALL
USER_CHARGES


@<TRIPOS>ATOM
      1 C1         -2.1394    0.2141   -0.3142 C.3        1 <1>        0.000
      2 C2         -2.2837   -1.1732    0.2682 C.3        1 <1>        0.000
      3 N1         -3.5057    0.5399   -0.5139 N.am       1 <1>        0.000
      4 C3         -1.3831    1.1912    0.5606 C.3        1 <1>        0.000
      5 C4         -1.1069   -1.7672    1.0305 C.3        1 <1>        0.000
      6 O1         -3.5362   -1.1176    0.9457 O.3        1 <1>        0.000
      7 C6         -4.3265   -0.1315    0.3705 C.2        1 <1>        0.000
      8 C13         0.5437   -2.7210   -0.3535 C.2        1 <1>        0.000
      9 C8         -0.6606    2.3127   -0.1290 C.2        1 <1>        0.000
     10 O2          0.1968   -1.7336    0.4903 O.3        1 <1>        0.000
     11 O3         -5.4948    0.1145    0.6018 O.2        1 <1>        0.000
     12 C12         0.7818    2.5676    0.2293 C.3        1 <1>        0.000
     13 O4         -1.2372    3.0046   -0.9720 O.2        1 <1>        0.000
     14 C16         1.7121    1.4357   -0.1334 C.3        1 <1>        0.000
     15 C18         1.9780   -2.9554   -0.5819 C.3        1 <1>        0.000
     16 O5         -0.2805   -3.4370   -0.9188 O.2        1 <1>        0.000
     17 C20         1.6264    0.8551   -1.5281 C.3        1 <1>        0.000
     18 C21         3.1294   -2.0947   -0.2156 C.2        1 <1>        0.000
     19 C24         2.5148   -0.2868   -1.9693 C.3        1 <1>        0.000
     20 C26         3.5343   -0.8964   -1.0410 C.3        1 <1>        0.000
     21 O7          3.7929   -2.3746    0.7910 O.2        1 <1>        0.000
     22 H          -1.5273    0.2610   -1.2149 H.spc      1 <1>        0.000
     23 H          -2.2696   -1.9278   -0.5182 H.spc      1 <1>        0.000
     24 H          -3.8408    1.1907   -1.2242 H.spc      1 <1>        0.000
     25 H          -0.6117    0.6053    1.0603 H.spc      1 <1>        0.000
     26 H          -2.1344    1.6666    1.1912 H.spc      1 <1>        0.000
     27 H          -1.0374   -1.1556    1.9301 H.spc      1 <1>        0.000
     28 H          -1.3408   -2.8299    1.0937 H.spc      1 <1>        0.000
     29 H           0.8297    2.6922    1.3111 H.spc      1 <1>        0.000
     30 H           1.1047    3.4447   -0.3316 H.spc      1 <1>        0.000
     31 H           2.7156    1.8545   -0.0586 H.spc      1 <1>        0.000
     32 H           1.4421    0.6177    0.5345 H.spc      1 <1>        0.000
     33 H           2.1503   -3.8137    0.0676 H.spc      1 <1>        0.000
     34 H           2.0224   -2.9032   -1.6697 H.spc      1 <1>        0.000
     35 H           0.6222    0.4334   -1.5715 H.spc      1 <1>        0.000
     36 H           1.9286    1.6815   -2.1714 H.spc      1 <1>        0.000
     37 H           1.8160   -1.1015   -2.1592 H.spc      1 <1>        0.000
     38 H           3.1167    0.1458   -2.7685 H.spc      1 <1>        0.000
     39 H           3.7641   -0.1151   -0.3165 H.spc      1 <1>        0.000
     40 H           4.3339   -1.2537   -1.6900 H.spc      1 <1>        0.000
@<TRIPOS>BOND
     1    5   10 1  
     2    1    2 1  
     3    9   12 1  
     4    6    7 1  
     5    2    6 1  
     6    3    7 am 
     7    1    4 1  
     8    1    3 1  
     9    7   11 2  
    10    9   13 2  
    11    2    5 1  
    12    4    9 1  
    13   19   20 1  
    14   18   21 2  
    15   18   20 1  
    16   17   19 1  
    17   15   18 1  
    18   14   17 1  
    19    8   16 2  
    20    8   15 1  
    21   12   14 1  
    22   10    8 1  
    23    1   22 1  
    24    2   23 1  
    25    3   24 1  
    26    4   25 1  
    27    4   26 1  
    28    5   27 1  
    29    5   28 1  
    30   12   29 1  
    31   12   30 1  
    32   14   31 1  
    33   14   32 1  
    34   15   33 1  
    35   15   34 1  
    36   17   35 1  
    37   17   36 1  
    38   19   37 1  
    39   19   38 1  
    40   20   39 1  
    41   20   40 1  
# Name:          frag5-648-76/138278 -- energy: -8.865553
# Creation time: Sat Jun  5 12:53:50 2010


@<TRIPOS>MOLECULE
frag5-648-76/138278 -- energy: -8.865553
   40    41     1     1     1
SMALL
USER_CHARGES


@<TRIPOS>ATOM
      1 C1         -2.1325    0.0651   -0.2962 C.3        1 <1>        0.000
      2 C2         -2.2470   -1.2854    0.3751 C.3        1 <1>        0.000
      3 N1         -3.4931    0.4360   -0.3148 N.am       1 <1>        0.000
      4 C3         -1.1918    1.0708    0.3334 C.3        1 <1>        0.000
      5 C4         -1.0663   -1.8930    1.1025 C.3        1 <1>        0.000
      6 O1         -3.4259   -1.1800    1.1682 O.3        1 <1>        0.000
      7 C6         -4.2440   -0.1949    0.6441 C.2        1 <1>        0.000
      8 C13         0.4331   -2.3600   -0.7988 C.2        1 <1>        0.000
      9 C8         -0.8001    2.2348   -0.5432 C.2        1 <1>        0.000
     10 O2          0.1386   -2.3198    0.5142 O.3        1 <1>        0.000
     11 O3         -5.3806    0.0735    0.9939 O.2        1 <1>        0.000
     12 C12         0.4975    3.0006   -0.3597 C.3        1 <1>        0.000
     13 O4         -1.5990    2.6317   -1.3978 O.2        1 <1>        0.000
     14 C16         1.7726    2.2565   -0.0555 C.3        1 <1>        0.000
     15 C18         1.7016   -3.0489   -1.0832 C.3        1 <1>        0.000
     16 O5         -0.2358   -1.8515   -1.6951 O.2        1 <1>        0.000
     17 C20         2.2949    1.1045   -0.9065 C.3        1 <1>        0.000
     18 C21         2.9567   -2.5946   -0.4620 C.2        1 <1>        0.000
     19 C24         2.8623   -0.0807   -0.1459 C.3        1 <1>        0.000
     20 C26         3.5029   -1.2444   -0.8613 C.3        1 <1>        0.000
     21 O7          3.5117   -3.2738    0.4056 O.2        1 <1>        0.000
     22 H          -1.6491    0.0256   -1.2724 H.spc      1 <1>        0.000
     23 H          -2.2843   -2.0371   -0.4134 H.spc      1 <1>        0.000
     24 H          -3.8810    1.1080   -0.9769 H.spc      1 <1>        0.000
     25 H          -0.2720    0.5328    0.5628 H.spc      1 <1>        0.000
     26 H          -1.7174    1.4919    1.1905 H.spc      1 <1>        0.000
     27 H          -0.7312   -1.0603    1.7209 H.spc      1 <1>        0.000
     28 H          -1.4847   -2.8325    1.4635 H.spc      1 <1>        0.000
     29 H           0.3266    3.6211    0.5200 H.spc      1 <1>        0.000
     30 H           0.6782    3.4681   -1.3276 H.spc      1 <1>        0.000
     31 H           2.5388    3.0214   -0.1815 H.spc      1 <1>        0.000
     32 H           1.5550    1.7772    0.8990 H.spc      1 <1>        0.000
     33 H           1.5552   -4.0537   -0.6868 H.spc      1 <1>        0.000
     34 H           1.8586   -2.8909   -2.1502 H.spc      1 <1>        0.000
     35 H           1.4405    0.7271   -1.4684 H.spc      1 <1>        0.000
     36 H           3.1154    1.5091   -1.4991 H.spc      1 <1>        0.000
     37 H           3.6790    0.3494    0.4338 H.spc      1 <1>        0.000
     38 H           1.9901   -0.5210    0.3373 H.spc      1 <1>        0.000
     39 H           4.5617   -1.2370   -0.6027 H.spc      1 <1>        0.000
     40 H           3.3011   -1.1180   -1.9250 H.spc      1 <1>        0.000
@<TRIPOS>BOND
     1    5   10 1  
     2    1    2 1  
     3    9   12 1  
     4    6    7 1  
     5    2    6 1  
     6    3    7 am 
     7    1    4 1  
     8    1    3 1  
     9    7   11 2  
    10    9   13 2  
    11    2    5 1  
    12    4    9 1  
    13   19   20 1  
    14   18   21 2  
    15   18   20 1  
    16   17   19 1  
    17   15   18 1  
    18   14   17 1  
    19    8   16 2  
    20    8   15 1  
    21   12   14 1  
    22   10    8 1  
    23    1   22 1  
    24    2   23 1  
    25    3   24 1  
    26    4   25 1  
    27    4   26 1  
    28    5   27 1  
    29    5   28 1  
    30   12   29 1  
    31   12   30 1  
    32   14   31 1  
    33   14   32 1  
    34   15   33 1  
    35   15   34 1  
    36   17   35 1  
    37   17   36 1  
    38   19   37 1  
    39   19   38 1  
    40   20   39 1  
    41   20   40 1  
# Name:          frag5-648-76/138278 -- energy: -5.900214
# Creation time: Sat Jun  5 12:53:50 2010


@<TRIPOS>MOLECULE
frag5-648-76/138278 -- energy: -5.900214
   40    41     1     1     1
SMALL
USER_CHARGES


@<TRIPOS>ATOM
      1 C1         -1.9390    0.1799   -0.4852 C.3        1 <1>        0.000
      2 C2         -2.2234   -1.2071   -0.0037 C.3        1 <1>        0.000
      3 N1         -3.2696    0.5265   -0.7762 N.am       1 <1>        0.000
      4 C3         -1.2758    1.1566    0.4801 C.3        1 <1>        0.000
      5 C4         -1.2075   -1.9234    0.8310 C.3        1 <1>        0.000
      6 O1         -3.4973   -1.0404    0.6572 O.3        1 <1>        0.000
      7 C6         -4.1322    0.0297    0.1377 C.2        1 <1>        0.000
      8 C13         0.8236   -3.1146    0.3976 C.2        1 <1>        0.000
      9 C8         -0.7201    2.4312   -0.1242 C.2        1 <1>        0.000
     10 O2          0.1129   -1.9700    0.3733 O.3        1 <1>        0.000
     11 O3         -5.2154    0.3697    0.5333 O.2        1 <1>        0.000
     12 C12         0.5672    3.0522    0.3655 C.3        1 <1>        0.000
     13 O4         -1.3516    2.9987   -1.0286 O.2        1 <1>        0.000
     14 C16         1.7256    2.1054    0.5605 C.3        1 <1>        0.000
     15 C18         2.2249   -2.9103   -0.0013 C.3        1 <1>        0.000
     16 O5          0.3909   -4.2177    0.7046 O.2        1 <1>        0.000
     17 C20         2.0108    1.1681   -0.5927 C.3        1 <1>        0.000
     18 C21         2.5231   -2.2854   -1.3126 C.2        1 <1>        0.000
     19 C24         2.9545    0.0288   -0.3092 C.3        1 <1>        0.000
     20 C26         3.1791   -0.9417   -1.4503 C.3        1 <1>        0.000
     21 O7          2.1750   -2.8898   -2.3398 O.2        1 <1>        0.000
     22 H          -1.1936    0.2228   -1.2793 H.spc      1 <1>        0.000
     23 H          -2.2075   -1.8954   -0.8487 H.spc      1 <1>        0.000
     24 H          -3.5507    1.0863   -1.5812 H.spc      1 <1>        0.000
     25 H          -0.4235    0.6279    0.9069 H.spc      1 <1>        0.000
     26 H          -2.0536    1.4670    1.1778 H.spc      1 <1>        0.000
     27 H          -1.1662   -1.3704    1.7694 H.spc      1 <1>        0.000
     28 H          -1.5386   -2.9616    0.8571 H.spc      1 <1>        0.000
     29 H           0.3494    3.4756    1.3460 H.spc      1 <1>        0.000
     30 H           0.8769    3.7609   -0.4026 H.spc      1 <1>        0.000
     31 H           2.6138    2.7259    0.6799 H.spc      1 <1>        0.000
     32 H           1.4689    1.4761    1.4126 H.spc      1 <1>        0.000
     33 H           2.6252   -2.2143    0.7359 H.spc      1 <1>        0.000
     34 H           2.6436   -3.9143   -0.0701 H.spc      1 <1>        0.000
     35 H           1.0563    0.7129   -0.8570 H.spc      1 <1>        0.000
     36 H           2.4878    1.7725   -1.3642 H.spc      1 <1>        0.000
     37 H           3.9235    0.4787   -0.0928 H.spc      1 <1>        0.000
     38 H           2.5068   -0.5471    0.5007 H.spc      1 <1>        0.000
     39 H           4.2525   -1.1280   -1.4861 H.spc      1 <1>        0.000
     40 H           2.7435   -0.4784   -2.3356 H.spc      1 <1>        0.000
@<TRIPOS>BOND
     1    5   10 1  
     2    1    2 1  
     3    9   12 1  
     4    6    7 1  
     5    2    6 1  
     6    3    7 am 
     7    1    4 1  
     8    1    3 1  
     9    7   11 2  
    10    9   13 2  
    11    2    5 1  
    12    4    9 1  
    13   19   20 1  
    14   18   21 2  
    15   18   20 1  
    16   17   19 1  
    17   15   18 1  
    18   14   17 1  
    19    8   16 2  
    20    8   15 1  
    21   12   14 1  
    22   10    8 1  
    23    1   22 1  
    24    2   23 1  
    25    3   24 1  
    26    4   25 1  
    27    4   26 1  
    28    5   27 1  
    29    5   28 1  
    30   12   29 1  
    31   12   30 1  
    32   14   31 1  
    33   14   32 1  
    34   15   33 1  
    35   15   34 1  
    36   17   35 1  
    37   17   36 1  
    38   19   37 1  
    39   19   38 1  
    40   20   39 1  
    41   20   40 1  
# Name:          frag5-648-76/138278 -- energy: -8.772276
# Creation time: Sat Jun  5 12:53:50 2010


@<TRIPOS>MOLECULE
frag5-648-76/138278 -- energy: -8.772276
   40    41     1     1     1
SMALL
USER_CHARGES


@<TRIPOS>ATOM
      1 C1         -1.8664    0.0816   -0.2569 C.3        1 <1>        0.000
      2 C2         -2.3281   -1.3280    0.0588 C.3        1 <1>        0.000
      3 N1         -3.1174    0.6619   -0.5772 N.am       1 <1>        0.000
      4 C3         -1.0454    0.7987    0.7982 C.3        1 <1>        0.000
      5 C4         -1.3943   -2.2134    0.8612 C.3        1 <1>        0.000
      6 O1         -3.6646   -1.1676    0.5147 O.3        1 <1>        0.000
      7 C6         -4.1781   -0.0009   -0.0169 C.2        1 <1>        0.000
      8 C13         0.6639   -3.2406    0.1366 C.2        1 <1>        0.000
      9 C8         -0.2999    2.0407    0.3593 C.2        1 <1>        0.000
     10 O2         -0.0402   -2.1568    0.4913 O.3        1 <1>        0.000
     11 O3         -5.3447    0.3567    0.0102 O.2        1 <1>        0.000
     12 C12         1.2044    2.0244    0.1708 C.3        1 <1>        0.000
     13 O4         -0.9206    3.0807    0.1638 O.2        1 <1>        0.000
     14 C16         1.7266    2.3506   -1.2042 C.3        1 <1>        0.000
     15 C18         2.0981   -2.9765   -0.0655 C.3        1 <1>        0.000
     16 O5          0.1930   -4.3631   -0.0116 O.2        1 <1>        0.000
     17 C20         1.8528    1.3059   -2.2988 C.3        1 <1>        0.000
     18 C21         2.6871   -1.6102   -0.0864 C.2        1 <1>        0.000
     19 C24         1.7910   -0.1827   -2.0226 C.3        1 <1>        0.000
     20 C26         2.9610   -0.8868   -1.3818 C.3        1 <1>        0.000
     21 O7          2.8776   -1.0281    0.9740 O.2        1 <1>        0.000
     22 H          -1.1146    0.1361   -1.0442 H.spc      1 <1>        0.000
     23 H          -2.3002   -1.9615   -0.8278 H.spc      1 <1>        0.000
     24 H          -3.2190    1.4892   -1.1652 H.spc      1 <1>        0.000
     25 H          -0.2815    0.0887    1.1152 H.spc      1 <1>        0.000
     26 H          -1.7563    1.1295    1.5554 H.spc      1 <1>        0.000
     27 H          -1.4488   -1.8670    1.8933 H.spc      1 <1>        0.000
     28 H          -1.7193   -3.2401    0.6929 H.spc      1 <1>        0.000
     29 H           1.5179    1.0001    0.3723 H.spc      1 <1>        0.000
     30 H           1.5946    2.8010    0.8286 H.spc      1 <1>        0.000
     31 H           0.9814    3.0409   -1.5995 H.spc      1 <1>        0.000
     32 H           2.7591    2.6463   -1.0180 H.spc      1 <1>        0.000
     33 H           2.5556   -3.4260    0.8159 H.spc      1 <1>        0.000
     34 H           2.2710   -3.3323   -1.0812 H.spc      1 <1>        0.000
     35 H           0.9718    1.4825   -2.9159 H.spc      1 <1>        0.000
     36 H           2.8688    1.4501   -2.6662 H.spc      1 <1>        0.000
     37 H           0.9823   -0.2900   -1.2997 H.spc      1 <1>        0.000
     38 H           1.7098   -0.6375   -3.0099 H.spc      1 <1>        0.000
     39 H           3.6871   -0.1092   -1.1446 H.spc      1 <1>        0.000
     40 H           3.2783   -1.6506   -2.0918 H.spc      1 <1>        0.000
@<TRIPOS>BOND
     1    5   10 1  
     2    1    2 1  
     3    9   12 1  
     4    6    7 1  
     5    2    6 1  
     6    3    7 am 
     7    1    4 1  
     8    1    3 1  
     9    7   11 2  
    10    9   13 2  
    11    2    5 1  
    12    4    9 1  
    13   19   20 1  
    14   18   21 2  
    15   18   20 1  
    16   17   19 1  
    17   15   18 1  
    18   14   17 1  
    19    8   16 2  
    20    8   15 1  
    21   12   14 1  
    22   10    8 1  
    23    1   22 1  
    24    2   23 1  
    25    3   24 1  
    26    4   25 1  
    27    4   26 1  
    28    5   27 1  
    29    5   28 1  
    30   12   29 1  
    31   12   30 1  
    32   14   31 1  
    33   14   32 1  
    34   15   33 1  
    35   15   34 1  
    36   17   35 1  
    37   17   36 1  
    38   19   37 1  
    39   19   38 1  
    40   20   39 1  
    41   20   40 1  
# Name:          frag5-648-76/138278 -- energy: -9.527787
# Creation time: Sat Jun  5 12:53:50 2010


@<TRIPOS>MOLECULE
frag5-648-76/138278 -- energy: -9.527787
   40    41     1     1     1
SMALL
USER_CHARGES


@<TRIPOS>ATOM
      1 C1         -2.3025    0.0294   -0.4422 C.3        1 <1>        0.000
      2 C2         -2.2093   -1.1003    0.5604 C.3        1 <1>        0.000
      3 N1         -3.7124    0.1081   -0.5613 N.am       1 <1>        0.000
      4 C3         -1.6875    1.3642   -0.0786 C.3        1 <1>        0.000
      5 C4         -0.9127   -1.4049    1.2899 C.3        1 <1>        0.000
      6 O1         -3.3735   -0.9044    1.3541 O.3        1 <1>        0.000
      7 C6         -4.3376   -0.2809    0.5923 C.2        1 <1>        0.000
      8 C13         0.4096   -2.7648   -0.1514 C.2        1 <1>        0.000
      9 C8         -0.5534    1.8626   -0.9297 C.2        1 <1>        0.000
     10 O2          0.2539   -1.6243    0.5399 O.3        1 <1>        0.000
     11 O3         -5.5057   -0.0925    0.8898 O.2        1 <1>        0.000
     12 C12         0.7772    1.1847   -0.8404 C.3        1 <1>        0.000
     13 O4         -0.7032    2.8325   -1.6716 O.2        1 <1>        0.000
     14 C16         1.3888    1.3580    0.5185 C.3        1 <1>        0.000
     15 C18         1.5940   -2.8325   -1.0215 C.3        1 <1>        0.000
     16 O5         -0.3750   -3.7048   -0.0946 O.2        1 <1>        0.000
     17 C20         2.8780    1.2908    0.6735 C.3        1 <1>        0.000
     18 C21         2.5268   -1.7074   -1.2913 C.2        1 <1>        0.000
     19 C24         3.7207    0.3071   -0.1024 C.3        1 <1>        0.000
     20 C26         3.4277   -1.1735   -0.1948 C.3        1 <1>        0.000
     21 O7          2.5517   -1.2007   -2.4216 O.2        1 <1>        0.000
     22 H          -1.7234   -0.1801   -1.3416 H.spc      1 <1>        0.000
     23 H          -2.1728   -2.0550    0.0356 H.spc      1 <1>        0.000
     24 H          -4.2005    0.4163   -1.4022 H.spc      1 <1>        0.000
     25 H          -1.2685    1.2315    0.9189 H.spc      1 <1>        0.000
     26 H          -2.4862    2.0965   -0.1971 H.spc      1 <1>        0.000
     27 H          -0.7047   -0.5114    1.8785 H.spc      1 <1>        0.000
     28 H          -1.0957   -2.3467    1.8071 H.spc      1 <1>        0.000
     29 H           1.4432    1.6301   -1.5794 H.spc      1 <1>        0.000
     30 H           0.6363    0.1195   -1.0236 H.spc      1 <1>        0.000
     31 H           1.1264    2.3745    0.8117 H.spc      1 <1>        0.000
     32 H           1.0125    0.5163    1.0999 H.spc      1 <1>        0.000
     33 H           2.2317   -3.5371   -0.4877 H.spc      1 <1>        0.000
     34 H           1.1497   -3.0032   -2.0021 H.spc      1 <1>        0.000
     35 H           3.2171    2.2608    0.3098 H.spc      1 <1>        0.000
     36 H           3.0136    0.9821    1.7100 H.spc      1 <1>        0.000
     37 H           3.5914    0.6412   -1.1318 H.spc      1 <1>        0.000
     38 H           4.6696    0.3301    0.4335 H.spc      1 <1>        0.000
     39 H           2.8945   -1.4016    0.7281 H.spc      1 <1>        0.000
     40 H           4.3974   -1.6289   -0.3960 H.spc      1 <1>        0.000
@<TRIPOS>BOND
     1    5   10 1  
     2    1    2 1  
     3    9   12 1  
     4    6    7 1  
     5    2    6 1  
     6    3    7 am 
     7    1    4 1  
     8    1    3 1  
     9    7   11 2  
    10    9   13 2  
    11    2    5 1  
    12    4    9 1  
    13   19   20 1  
    14   18   21 2  
    15   18   20 1  
    16   17   19 1  
    17   15   18 1  
    18   14   17 1  
    19    8   16 2  
    20    8   15 1  
    21   12   14 1  
    22   10    8 1  
    23    1   22 1  
    24    2   23 1  
    25    3   24 1  
    26    4   25 1  
    27    4   26 1  
    28    5   27 1  
    29    5   28 1  
    30   12   29 1  
    31   12   30 1  
    32   14   31 1  
    33   14   32 1  
    34   15   33 1  
    35   15   34 1  
    36   17   35 1  
    37   17   36 1  
    38   19   37 1  
    39   19   38 1  
    40   20   39 1  
    41   20   40 1  
# Name:          frag5-648-76/138278 -- energy: -6.679026
# Creation time: Sat Jun  5 12:53:50 2010


@<TRIPOS>MOLECULE
frag5-648-76/138278 -- energy: -6.679026
   40    41     1     1     1
SMALL
USER_CHARGES


@<TRIPOS>ATOM
      1 C1         -2.1139    0.0536   -0.0672 C.3        1 <1>        0.000
      2 C2         -2.4130   -1.3433    0.4423 C.3        1 <1>        0.000
      3 N1         -3.4294    0.5184   -0.3045 N.am       1 <1>        0.000
      4 C3         -1.2278    1.0029    0.7148 C.3        1 <1>        0.000
      5 C4         -1.4006   -2.0774    1.3391 C.3        1 <1>        0.000
      6 O1         -3.7562   -1.2521    0.9276 O.3        1 <1>        0.000
      7 C6         -4.4117   -0.2403    0.2564 C.2        1 <1>        0.000
      8 C13         0.5209   -2.2322    0.0091 C.2        1 <1>        0.000
      9 C8         -0.6979    2.1454   -0.1220 C.2        1 <1>        0.000
     10 O2         -0.3517   -2.8623    0.7963 O.3        1 <1>        0.000
     11 O3         -5.6066   -0.0389    0.1748 O.2        1 <1>        0.000
     12 C12         0.6698    2.7345    0.1293 C.3        1 <1>        0.000
     13 O4         -1.3995    2.6186   -1.0273 O.2        1 <1>        0.000
     14 C16         1.7807    2.1574   -0.6852 C.3        1 <1>        0.000
     15 C18         1.5869   -2.9896   -0.6346 C.3        1 <1>        0.000
     16 O5          0.4627   -1.0293   -0.2293 O.2        1 <1>        0.000
     17 C20         2.6448    1.0566   -0.1338 C.3        1 <1>        0.000
     18 C21         2.8540   -2.4564   -1.1749 C.2        1 <1>        0.000
     19 C24         3.2371    0.0488   -1.0857 C.3        1 <1>        0.000
     20 C26         3.5832   -1.3076   -0.5172 C.3        1 <1>        0.000
     21 O7          3.3239   -2.9604   -2.1910 O.2        1 <1>        0.000
     22 H          -1.4374    0.0116   -0.9208 H.spc      1 <1>        0.000
     23 H          -2.2963   -2.0530   -0.3768 H.spc      1 <1>        0.000
     24 H          -3.6264    1.3558   -0.8525 H.spc      1 <1>        0.000
     25 H          -0.3720    0.4337    1.0778 H.spc      1 <1>        0.000
     26 H          -1.8284    1.4311    1.5173 H.spc      1 <1>        0.000
     27 H          -0.8787   -1.2700    1.8527 H.spc      1 <1>        0.000
     28 H          -2.0117   -2.8015    1.8780 H.spc      1 <1>        0.000
     29 H           0.9098    2.5259    1.1719 H.spc      1 <1>        0.000
     30 H           0.6062    3.7894   -0.1375 H.spc      1 <1>        0.000
     31 H           1.2775    1.7004   -1.5372 H.spc      1 <1>        0.000
     32 H           2.4685    2.9910   -0.8272 H.spc      1 <1>        0.000
     33 H           1.9446   -3.6054    0.1905 H.spc      1 <1>        0.000
     34 H           1.0913   -3.3336   -1.5424 H.spc      1 <1>        0.000
     35 H           3.5022    1.5656    0.3066 H.spc      1 <1>        0.000
     36 H           1.9854    0.4786    0.5136 H.spc      1 <1>        0.000
     37 H           2.4738   -0.1309   -1.8428 H.spc      1 <1>        0.000
     38 H           4.1789    0.4784   -1.4270 H.spc      1 <1>        0.000
     39 H           3.2931   -1.3006    0.5334 H.spc      1 <1>        0.000
     40 H           4.6490   -1.4646   -0.6834 H.spc      1 <1>        0.000
@<TRIPOS>BOND
     1    5   10 1  
     2    1    2 1  
     3    9   12 1  
     4    6    7 1  
     5    2    6 1  
     6    3    7 am 
     7    1    4 1  
     8    1    3 1  
     9    7   11 2  
    10    9   13 2  
    11    2    5 1  
    12    4    9 1  
    13   19   20 1  
    14   18   21 2  
    15   18   20 1  
    16   17   19 1  
    17   15   18 1  
    18   14   17 1  
    19    8   16 2  
    20    8   15 1  
    21   12   14 1  
    22   10    8 1  
    23    1   22 1  
    24    2   23 1  
    25    3   24 1  
    26    4   25 1  
    27    4   26 1  
    28    5   27 1  
    29    5   28 1  
    30   12   29 1  
    31   12   30 1  
    32   14   31 1  
    33   14   32 1  
    34   15   33 1  
    35   15   34 1  
    36   17   35 1  
    37   17   36 1  
    38   19   37 1  
    39   19   38 1  
    40   20   39 1  
    41   20   40 1  
# Name:          frag5-648-76/138278 -- energy: -8.112162
# Creation time: Sat Jun  5 12:53:50 2010


@<TRIPOS>MOLECULE
frag5-648-76/138278 -- energy: -8.112162
   40    41     1     1     1
SMALL
USER_CHARGES


@<TRIPOS>ATOM
      1 C1         -2.0911    0.2319   -0.5759 C.3        1 <1>        0.000
      2 C2         -2.4822   -1.2349   -0.5622 C.3        1 <1>        0.000
      3 N1         -3.3084    0.8265   -0.1541 N.am       1 <1>        0.000
      4 C3         -0.9058    0.7197    0.2214 C.3        1 <1>        0.000
      5 C4         -1.5139   -2.3698   -0.2600 C.3        1 <1>        0.000
      6 O1         -3.6363   -1.2845    0.2798 O.3        1 <1>        0.000
      7 C6         -4.0930   -0.0258    0.5677 C.2        1 <1>        0.000
      8 C13         0.5755   -3.3121   -0.1346 C.2        1 <1>        0.000
      9 C8         -0.4900    2.1436   -0.0817 C.2        1 <1>        0.000
     10 O2         -0.2125   -2.4105   -0.7718 O.3        1 <1>        0.000
     11 O3         -4.9980    0.2658    1.3215 O.2        1 <1>        0.000
     12 C12         0.9619    2.5364   -0.1272 C.3        1 <1>        0.000
     13 O4         -1.3476    3.0011   -0.3026 O.2        1 <1>        0.000
     14 C16         1.6455    2.2101   -1.4292 C.3        1 <1>        0.000
     15 C18         2.0014   -2.9757   -0.0465 C.3        1 <1>        0.000
     16 O5          0.1646   -4.3323    0.3937 O.2        1 <1>        0.000
     17 C20         2.0966    0.7845   -1.6647 C.3        1 <1>        0.000
     18 C21         2.5033   -1.6241    0.2634 C.2        1 <1>        0.000
     19 C24         3.3924    0.3823   -0.9902 C.3        1 <1>        0.000
     20 C26         3.6454   -1.0137   -0.4854 C.3        1 <1>        0.000
     21 O7          1.9477   -0.9724    1.1558 O.2        1 <1>        0.000
     22 H          -1.7019    0.4958   -1.5592 H.spc      1 <1>        0.000
     23 H          -2.5992   -1.4866   -1.6163 H.spc      1 <1>        0.000
     24 H          -3.5695    1.7891   -0.3677 H.spc      1 <1>        0.000
     25 H          -0.0623    0.0790   -0.0357 H.spc      1 <1>        0.000
     26 H          -1.1927    0.6875    1.2725 H.spc      1 <1>        0.000
     27 H          -1.3574   -2.2855    0.8154 H.spc      1 <1>        0.000
     28 H          -1.9910   -3.2351   -0.7202 H.spc      1 <1>        0.000
     29 H           1.4729    1.9754    0.6553 H.spc      1 <1>        0.000
     30 H           1.0079    3.6180   -0.0005 H.spc      1 <1>        0.000
     31 H           0.9013    2.4067   -2.2010 H.spc      1 <1>        0.000
     32 H           2.5595    2.8040   -1.4300 H.spc      1 <1>        0.000
     33 H           2.3375   -3.5622    0.8086 H.spc      1 <1>        0.000
     34 H           2.3533   -3.1384   -1.0652 H.spc      1 <1>        0.000
     35 H           1.3204    0.1433   -1.2469 H.spc      1 <1>        0.000
     36 H           2.2654    0.6885   -2.7373 H.spc      1 <1>        0.000
     37 H           4.1344    0.5023   -1.7796 H.spc      1 <1>        0.000
     38 H           3.3995    0.9834   -0.0810 H.spc      1 <1>        0.000
     39 H           4.4836   -0.9531    0.2087 H.spc      1 <1>        0.000
     40 H           3.8225   -1.6400   -1.3597 H.spc      1 <1>        0.000
@<TRIPOS>BOND
     1    5   10 1  
     2    1    2 1  
     3    9   12 1  
     4    6    7 1  
     5    2    6 1  
     6    3    7 am 
     7    1    4 1  
     8    1    3 1  
     9    7   11 2  
    10    9   13 2  
    11    2    5 1  
    12    4    9 1  
    13   19   20 1  
    14   18   21 2  
    15   18   20 1  
    16   17   19 1  
    17   15   18 1  
    18   14   17 1  
    19    8   16 2  
    20    8   15 1  
    21   12   14 1  
    22   10    8 1  
    23    1   22 1  
    24    2   23 1  
    25    3   24 1  
    26    4   25 1  
    27    4   26 1  
    28    5   27 1  
    29    5   28 1  
    30   12   29 1  
    31   12   30 1  
    32   14   31 1  
    33   14   32 1  
    34   15   33 1  
    35   15   34 1  
    36   17   35 1  
    37   17   36 1  
    38   19   37 1  
    39   19   38 1  
    40   20   39 1  
    41   20   40 1  
# Name:          frag5-648-76/138278 -- energy: -8.498411
# Creation time: Sat Jun  5 12:53:50 2010


@<TRIPOS>MOLECULE
frag5-648-76/138278 -- energy: -8.498411
   40    41     1     1     1
SMALL
USER_CHARGES


@<TRIPOS>ATOM
      1 C1         -2.4657    0.4050   -0.6191 C.3        1 <1>        0.000
      2 C2         -2.6008   -1.1028   -0.5457 C.3        1 <1>        0.000
      3 N1         -3.3031    0.7571    0.4639 N.am       1 <1>        0.000
      4 C3         -1.0613    0.9456   -0.5780 C.3        1 <1>        0.000
      5 C4         -1.5679   -1.9756   -1.2505 C.3        1 <1>        0.000
      6 O1         -2.8171   -1.3628    0.8435 O.3        1 <1>        0.000
      7 C6         -3.3904   -0.2422    1.4039 C.2        1 <1>        0.000
      8 C13         0.5800   -2.9649   -1.0568 C.2        1 <1>        0.000
      9 C8         -0.7833    2.3527   -0.9980 C.2        1 <1>        0.000
     10 O2         -0.4203   -2.2655   -0.4908 O.3        1 <1>        0.000
     11 O3         -3.8991   -0.1596    2.5118 O.2        1 <1>        0.000
     12 C12         0.5506    2.6818   -1.6222 C.3        1 <1>        0.000
     13 O4         -1.6294    3.2354   -0.8269 O.2        1 <1>        0.000
     14 C16         1.7583    2.5377   -0.7211 C.3        1 <1>        0.000
     15 C18         1.6617   -3.3222   -0.1249 C.3        1 <1>        0.000
     16 O5          0.6292   -3.2950   -2.2410 O.2        1 <1>        0.000
     17 C20         2.5959    1.2735   -0.5974 C.3        1 <1>        0.000
     18 C21         2.3849   -2.3627    0.7434 C.2        1 <1>        0.000
     19 C24         2.1974    0.0782    0.2328 C.3        1 <1>        0.000
     20 C26         3.0439   -1.1601    0.1263 C.3        1 <1>        0.000
     21 O7          2.3921   -2.5074    1.9637 O.2        1 <1>        0.000
     22 H          -2.7511    0.8440   -1.5751 H.spc      1 <1>        0.000
     23 H          -3.4332   -1.4284   -1.1695 H.spc      1 <1>        0.000
     24 H          -3.7877    1.6514    0.5394 H.spc      1 <1>        0.000
     25 H          -0.5157    0.3357   -1.2980 H.spc      1 <1>        0.000
     26 H          -0.7928    0.9207    0.4781 H.spc      1 <1>        0.000
     27 H          -2.0531   -2.9278   -1.4651 H.spc      1 <1>        0.000
     28 H          -1.2338   -1.4226   -2.1284 H.spc      1 <1>        0.000
     29 H           0.5045    3.7330   -1.9066 H.spc      1 <1>        0.000
     30 H           0.6905    1.9720   -2.4375 H.spc      1 <1>        0.000
     31 H           2.4632    3.2464   -1.1558 H.spc      1 <1>        0.000
     32 H           1.3230    2.6309    0.2739 H.spc      1 <1>        0.000
     33 H           1.1458   -3.9506    0.6011 H.spc      1 <1>        0.000
     34 H           2.4469   -3.6640   -0.7992 H.spc      1 <1>        0.000
     35 H           2.5848    0.8766   -1.6125 H.spc      1 <1>        0.000
     36 H           3.4949    1.6282   -0.0934 H.spc      1 <1>        0.000
     37 H           2.2831    0.4018    1.2701 H.spc      1 <1>        0.000
     38 H           1.2103   -0.2113   -0.1276 H.spc      1 <1>        0.000
     39 H           3.9766   -0.9769    0.6597 H.spc      1 <1>        0.000
     40 H           3.2024   -1.3692   -0.9316 H.spc      1 <1>        0.000
@<TRIPOS>BOND
     1    5   10 1  
     2    1    2 1  
     3    9   12 1  
     4    6    7 1  
     5    2    6 1  
     6    3    7 am 
     7    1    4 1  
     8    1    3 1  
     9    7   11 2  
    10    9   13 2  
    11    2    5 1  
    12    4    9 1  
    13   19   20 1  
    14   18   21 2  
    15   18   20 1  
    16   17   19 1  
    17   15   18 1  
    18   14   17 1  
    19    8   16 2  
    20    8   15 1  
    21   12   14 1  
    22   10    8 1  
    23    1   22 1  
    24    2   23 1  
    25    3   24 1  
    26    4   25 1  
    27    4   26 1  
    28    5   27 1  
    29    5   28 1  
    30   12   29 1  
    31   12   30 1  
    32   14   31 1  
    33   14   32 1  
    34   15   33 1  
    35   15   34 1  
    36   17   35 1  
    37   17   36 1  
    38   19   37 1  
    39   19   38 1  
    40   20   39 1  
    41   20   40 1  
# Name:          frag5-648-76/138278 -- energy: -7.830686
# Creation time: Sat Jun  5 12:53:50 2010


@<TRIPOS>MOLECULE
frag5-648-76/138278 -- energy: -7.830686
   40    41     1     1     1
SMALL
USER_CHARGES


@<TRIPOS>ATOM
      1 C1         -1.8528    0.0875   -0.4885 C.3        1 <1>        0.000
      2 C2         -2.2188   -1.3081   -0.0842 C.3        1 <1>        0.000
      3 N1         -3.1308    0.4714   -0.9022 N.am       1 <1>        0.000
      4 C3         -1.2722    1.0071    0.5758 C.3        1 <1>        0.000
      5 C4         -1.3086   -2.1343    0.7687 C.3        1 <1>        0.000
      6 O1         -3.5393   -1.1375    0.4496 O.3        1 <1>        0.000
      7 C6         -4.1031   -0.0330   -0.1016 C.2        1 <1>        0.000
      8 C13         1.0710   -2.5507    0.7387 C.2        1 <1>        0.000
      9 C8         -0.6445    2.3035    0.0840 C.2        1 <1>        0.000
     10 O2         -0.1243   -2.5312    0.1452 O.3        1 <1>        0.000
     11 O3         -5.2330    0.3429    0.1468 O.2        1 <1>        0.000
     12 C12         0.6235    2.8426    0.7147 C.3        1 <1>        0.000
     13 O4         -1.1626    2.9240   -0.8456 O.2        1 <1>        0.000
     14 C16         1.7854    1.8851    0.6734 C.3        1 <1>        0.000
     15 C18         2.1203   -2.9803   -0.2123 C.3        1 <1>        0.000
     16 O5          1.3114   -2.2110    1.8849 O.2        1 <1>        0.000
     17 C20         1.9023    1.0276   -0.5661 C.3        1 <1>        0.000
     18 C21         2.2085   -2.3700   -1.5670 C.2        1 <1>        0.000
     19 C24         2.8578   -0.1284   -0.5206 C.3        1 <1>        0.000
     20 C26         2.8617   -1.0201   -1.7444 C.3        1 <1>        0.000
     21 O7          1.7038   -2.9408   -2.5323 O.2        1 <1>        0.000
     22 H          -1.0298    0.1428   -1.2010 H.spc      1 <1>        0.000
     23 H          -2.1306   -1.9548   -0.9572 H.spc      1 <1>        0.000
     24 H          -3.3121    1.0630   -1.7131 H.spc      1 <1>        0.000
     25 H          -0.4698    0.4458    1.0546 H.spc      1 <1>        0.000
     26 H          -2.1082    1.2987    1.2115 H.spc      1 <1>        0.000
     27 H          -1.0263   -1.5169    1.6215 H.spc      1 <1>        0.000
     28 H          -1.8525   -3.0437    1.0241 H.spc      1 <1>        0.000
     29 H           0.4038    3.0384    1.7642 H.spc      1 <1>        0.000
     30 H           0.9144    3.7276    0.1487 H.spc      1 <1>        0.000
     31 H           2.6858    2.4986    0.7043 H.spc      1 <1>        0.000
     32 H           1.6416    1.1969    1.5063 H.spc      1 <1>        0.000
     33 H           3.0542   -2.6948    0.2718 H.spc      1 <1>        0.000
     34 H           1.8947   -4.0292   -0.4048 H.spc      1 <1>        0.000
     35 H           0.9159    0.5875   -0.7127 H.spc      1 <1>        0.000
     36 H           2.2789    1.6891   -1.3463 H.spc      1 <1>        0.000
     37 H           3.8578    0.2985   -0.4447 H.spc      1 <1>        0.000
     38 H           2.5491   -0.7532    0.3175 H.spc      1 <1>        0.000
     39 H           3.9073   -1.2106   -1.9864 H.spc      1 <1>        0.000
     40 H           2.2904   -0.4972   -2.5114 H.spc      1 <1>        0.000
@<TRIPOS>BOND
     1    5   10 1  
     2    1    2 1  
     3    9   12 1  
     4    6    7 1  
     5    2    6 1  
     6    3    7 am 
     7    1    4 1  
     8    1    3 1  
     9    7   11 2  
    10    9   13 2  
    11    2    5 1  
    12    4    9 1  
    13   19   20 1  
    14   18   21 2  
    15   18   20 1  
    16   17   19 1  
    17   15   18 1  
    18   14   17 1  
    19    8   16 2  
    20    8   15 1  
    21   12   14 1  
    22   10    8 1  
    23    1   22 1  
    24    2   23 1  
    25    3   24 1  
    26    4   25 1  
    27    4   26 1  
    28    5   27 1  
    29    5   28 1  
    30   12   29 1  
    31   12   30 1  
    32   14   31 1  
    33   14   32 1  
    34   15   33 1  
    35   15   34 1  
    36   17   35 1  
    37   17   36 1  
    38   19   37 1  
    39   19   38 1  
    40   20   39 1  
    41   20   40 1  
