#      Rotatable Fragment
#      Build by yxyuan
#
# Name:          frag3-223-4/31924
# Creation time: Sat Jun  5 12:52:22 2010


@<TRIPOS>MOLECULE
frag3-223-4/31924
    9     8     1     1     1
SMALL
USER_CHARGES


@<TRIPOS>ATOM
      1 O4         -1.5596    2.3917   -0.6717 O.3        1 <1>        0.000
      2 P1         -2.7911    1.4663   -0.3391 P.3        1 <1>        0.000
      3 O5         -3.1570    1.7649    1.0408 O.2        1 <1>        0.000
      4 S1         -2.1322   -0.4735   -0.5952 S.3        1 <1>        0.000
      5 N4         -4.0132    1.8258   -1.2936 N.pl3      1 <1>        0.000
      6 H          -1.2769    2.2337   -1.5754 H.spc      1 <1>        0.000
      7 H          -1.8189   -0.6686   -1.8730 H.spc      1 <1>        0.000
      8 H          -4.8752    2.2018   -0.8988 H.spc      1 <1>        0.000
      9 H          -3.9343    1.6801   -2.3001 H.spc      1 <1>        0.000
@<TRIPOS>BOND
     1    1    2 1  
     2    2    3 2  
     3    2    4 1  
     4    2    5 1  
     5    1    6 1  
     6    4    7 1  
     7    5    8 1  
     8    5    9 1  
# Name:          frag3-223-4/31924 -- energy: -0.383916
# Creation time: Sat Jun  5 12:52:22 2010


@<TRIPOS>MOLECULE
frag3-223-4/31924 -- energy: -0.383916
    9     8     1     1     1
SMALL
USER_CHARGES


@<TRIPOS>ATOM
      1 O4         -1.5596    2.3917   -0.6717 O.3        1 <1>        0.000
      2 P1         -2.7911    1.4663   -0.3391 P.3        1 <1>        0.000
      3 O5         -3.1570    1.7649    1.0408 O.2        1 <1>        0.000
      4 S1         -2.1322   -0.4735   -0.5952 S.3        1 <1>        0.000
      5 N4         -4.0132    1.8258   -1.2936 N.pl3      1 <1>        0.000
      6 H          -1.2769    2.2337   -1.5754 H.spc      1 <1>        0.000
      7 H          -1.8189   -0.6686   -1.8730 H.spc      1 <1>        0.000
      8 H          -4.8752    2.2018   -0.8988 H.spc      1 <1>        0.000
      9 H          -3.9343    1.6801   -2.3001 H.spc      1 <1>        0.000
@<TRIPOS>BOND
     1    1    2 1  
     2    2    3 2  
     3    2    4 1  
     4    2    5 1  
     5    1    6 1  
     6    4    7 1  
     7    5    8 1  
     8    5    9 1  
