#      Rotatable Fragment
#      Build by yxyuan
#
# Name:          frag4-395-65/48856
# Creation time: Sat Jun  5 12:53:46 2010


@<TRIPOS>MOLECULE
frag4-395-65/48856
   26    27     1     1     1
SMALL
USER_CHARGES


@<TRIPOS>ATOM
      1 C9          1.1539    3.6337   -0.2502 C.3        1 <1>        0.000
      2 C10         1.9488    3.7657   -1.5663 C.3        1 <1>        0.000
      3 C11         3.3151    3.0695   -1.4184 C.3        1 <1>        0.000
      4 C12         4.1401    3.8002   -0.3250 C.3        1 <1>        0.000
      5 C13         5.4739    3.0572   -0.0903 C.3        1 <1>        0.000
      6 C14         6.2835    2.9639   -1.4018 C.3        1 <1>        0.000
      7 C15         5.4624    2.2849   -2.5190 C.3        1 <1>        0.000
      8 C16         4.1173    3.0084   -2.7372 C.3        1 <1>        0.000
      9 C19         3.3362    3.9744    0.9386 C.2        1 <1>        0.000
     10 C20         1.9974    3.8967    0.9704 C.2        1 <1>        0.000
     11 H           0.7829    2.6108   -0.1855 H.spc      1 <1>        0.000
     12 H           0.3532    4.3731   -0.2683 H.spc      1 <1>        0.000
     13 H           2.1030    4.8210   -1.7914 H.spc      1 <1>        0.000
     14 H           1.3893    3.2962   -2.3754 H.spc      1 <1>        0.000
     15 H           3.1233    2.0357   -1.1311 H.spc      1 <1>        0.000
     16 H           4.3820    4.8059   -0.6686 H.spc      1 <1>        0.000
     17 H           5.2585    2.0491    0.2638 H.spc      1 <1>        0.000
     18 H           6.0589    3.6069    0.6470 H.spc      1 <1>        0.000
     19 H           6.5408    3.9729   -1.7239 H.spc      1 <1>        0.000
     20 H           7.1775    2.3684   -1.2167 H.spc      1 <1>        0.000
     21 H           5.2609    1.2543   -2.2267 H.spc      1 <1>        0.000
     22 H           6.0345    2.3249   -3.4459 H.spc      1 <1>        0.000
     23 H           3.5369    2.4604   -3.4795 H.spc      1 <1>        0.000
     24 H           4.3134    4.0245   -3.0796 H.spc      1 <1>        0.000
     25 H           3.8675    4.1727    1.8694 H.spc      1 <1>        0.000
     26 H           1.4941    4.0306    1.9279 H.spc      1 <1>        0.000
@<TRIPOS>BOND
     1    4    5 1  
     2    9   10 2  
     3    1    2 1  
     4    4    9 1  
     5    6    7 1  
     6    5    6 1  
     7    2    3 1  
     8    7    8 1  
     9    1   10 1  
    10    3    8 1  
    11    3    4 1  
    12    1   11 1  
    13    1   12 1  
    14    2   13 1  
    15    2   14 1  
    16    3   15 1  
    17    4   16 1  
    18    5   17 1  
    19    5   18 1  
    20    6   19 1  
    21    6   20 1  
    22    7   21 1  
    23    7   22 1  
    24    8   23 1  
    25    8   24 1  
    26    9   25 1  
    27   10   26 1  
# Name:          frag4-395-65/48856 -- energy: -3.300660
# Creation time: Sat Jun  5 12:53:46 2010


@<TRIPOS>MOLECULE
frag4-395-65/48856 -- energy: -3.300660
   26    27     1     1     1
SMALL
USER_CHARGES


@<TRIPOS>ATOM
      1 C9          1.1539    3.6337   -0.2502 C.3        1 <1>        0.000
      2 C10         1.9488    3.7657   -1.5663 C.3        1 <1>        0.000
      3 C11         3.3151    3.0695   -1.4184 C.3        1 <1>        0.000
      4 C12         4.1401    3.8002   -0.3250 C.3        1 <1>        0.000
      5 C13         5.4739    3.0572   -0.0903 C.3        1 <1>        0.000
      6 C14         6.2835    2.9639   -1.4018 C.3        1 <1>        0.000
      7 C15         5.4624    2.2849   -2.5190 C.3        1 <1>        0.000
      8 C16         4.1173    3.0084   -2.7372 C.3        1 <1>        0.000
      9 C19         3.3362    3.9744    0.9386 C.2        1 <1>        0.000
     10 C20         1.9974    3.8967    0.9704 C.2        1 <1>        0.000
     11 H           0.7829    2.6108   -0.1855 H.spc      1 <1>        0.000
     12 H           0.3532    4.3731   -0.2683 H.spc      1 <1>        0.000
     13 H           2.1030    4.8210   -1.7914 H.spc      1 <1>        0.000
     14 H           1.3893    3.2962   -2.3754 H.spc      1 <1>        0.000
     15 H           3.1233    2.0357   -1.1311 H.spc      1 <1>        0.000
     16 H           4.3820    4.8059   -0.6686 H.spc      1 <1>        0.000
     17 H           5.2585    2.0491    0.2638 H.spc      1 <1>        0.000
     18 H           6.0589    3.6069    0.6470 H.spc      1 <1>        0.000
     19 H           6.5408    3.9729   -1.7239 H.spc      1 <1>        0.000
     20 H           7.1775    2.3684   -1.2167 H.spc      1 <1>        0.000
     21 H           5.2609    1.2543   -2.2267 H.spc      1 <1>        0.000
     22 H           6.0345    2.3249   -3.4459 H.spc      1 <1>        0.000
     23 H           3.5369    2.4604   -3.4795 H.spc      1 <1>        0.000
     24 H           4.3134    4.0245   -3.0796 H.spc      1 <1>        0.000
     25 H           3.8675    4.1727    1.8694 H.spc      1 <1>        0.000
     26 H           1.4941    4.0306    1.9279 H.spc      1 <1>        0.000
@<TRIPOS>BOND
     1    4    5 1  
     2    9   10 2  
     3    1    2 1  
     4    4    9 1  
     5    6    7 1  
     6    5    6 1  
     7    2    3 1  
     8    7    8 1  
     9    1   10 1  
    10    3    8 1  
    11    3    4 1  
    12    1   11 1  
    13    1   12 1  
    14    2   13 1  
    15    2   14 1  
    16    3   15 1  
    17    4   16 1  
    18    5   17 1  
    19    5   18 1  
    20    6   19 1  
    21    6   20 1  
    22    7   21 1  
    23    7   22 1  
    24    8   23 1  
    25    8   24 1  
    26    9   25 1  
    27   10   26 1  
