#      Rotatable Fragment
#      Build by yxyuan
#
# Name:          frag5-612-33/41815
# Creation time: Sat Jun  5 12:52:59 2010


@<TRIPOS>MOLECULE
frag5-612-33/41815
   16    16     1     1     1
SMALL
USER_CHARGES


@<TRIPOS>ATOM
      1 O1         -2.9576   -0.3915   -0.0305 O.3        1 <1>        0.000
      2 C2         -1.5856   -0.2935   -0.0142 C.ar       1 <1>        0.000
      3 C3         -0.9654    0.9856   -0.0339 C.ar       1 <1>        0.000
      4 C4          0.4650    1.0703   -0.0163 C.ar       1 <1>        0.000
      5 C5          1.2804   -0.0713    0.0199 C.ar       1 <1>        0.000
      6 C6          0.6440   -1.3295    0.0383 C.ar       1 <1>        0.000
      7 C7         -0.7656   -1.4313    0.0222 C.ar       1 <1>        0.000
      8 C8          2.7410    0.0347    0.0378 C.2        1 <1>        0.000
      9 O2          3.3107    0.9245   -0.5772 O.2        1 <1>        0.000
     10 O3         -1.7694    2.1052   -0.0689 O.3        1 <1>        0.000
     11 H          -3.3399    0.4888   -0.0553 H.spc      1 <1>        0.000
     12 H           0.9351    2.0536   -0.0315 H.spc      1 <1>        0.000
     13 H           1.2478   -2.2366    0.0653 H.spc      1 <1>        0.000
     14 H          -1.2272   -2.4186    0.0385 H.spc      1 <1>        0.000
     15 H           3.3268   -0.6880    0.6059 H.spc      1 <1>        0.000
     16 H          -1.2198    2.8923   -0.0788 H.spc      1 <1>        0.000
@<TRIPOS>BOND
     1    8    9 2  
     2    1    2 1  
     3    2    7 ar 
     4    2    3 ar 
     5    3    4 ar 
     6    3   10 1  
     7    4    5 ar 
     8    5    6 ar 
     9    5    8 1  
    10    6    7 ar 
    11    1   11 1  
    12    4   12 1  
    13    6   13 1  
    14    7   14 1  
    15    8   15 1  
    16   10   16 1  
# Name:          frag5-612-33/41815
# Creation time: Sat Jun  5 12:52:59 2010


@<TRIPOS>MOLECULE
frag5-612-33/41815
   16    16     1     1     1
SMALL
USER_CHARGES


@<TRIPOS>ATOM
      1 O1         -2.8964   -0.5986    0.0247 O.3        1 <1>        0.000
      2 C2         -1.5459   -0.3186   -0.0095 C.ar       1 <1>        0.000
      3 C3         -1.1013    1.0279   -0.0001 C.ar       1 <1>        0.000
      4 C4          0.3050    1.3059   -0.0360 C.ar       1 <1>        0.000
      5 C5          1.2639    0.2801   -0.0808 C.ar       1 <1>        0.000
      6 C6          0.7985   -1.0525   -0.0899 C.ar       1 <1>        0.000
      7 C7         -0.5869   -1.3408   -0.0539 C.ar       1 <1>        0.000
      8 C8          2.6953    0.5770   -0.1164 C.2        1 <1>        0.000
      9 O2          3.5140   -0.3118   -0.3046 O.2        1 <1>        0.000
     10 O3         -2.0485    2.0346    0.0438 O.3        1 <1>        0.000
     11 H          -3.3918    0.2232    0.0525 H.spc      1 <1>        0.000
     12 H           0.6397    2.3432   -0.0283 H.spc      1 <1>        0.000
     13 H           1.5166   -1.8717   -0.1252 H.spc      1 <1>        0.000
     14 H          -0.9155   -2.3801   -0.0608 H.spc      1 <1>        0.000
     15 H           3.0365    1.6023    0.0265 H.spc      1 <1>        0.000
     16 H          -1.6076    2.8874    0.0452 H.spc      1 <1>        0.000
@<TRIPOS>BOND
     1    8    9 2  
     2    1    2 1  
     3    2    7 ar 
     4    2    3 ar 
     5    3    4 ar 
     6    3   10 1  
     7    4    5 ar 
     8    5    6 ar 
     9    5    8 1  
    10    6    7 ar 
    11    1   11 1  
    12    4   12 1  
    13    6   13 1  
    14    7   14 1  
    15    8   15 1  
    16   10   16 1  
# Name:          frag5-612-33/41815 -- energy: -0.455932
# Creation time: Sat Jun  5 12:52:59 2010


@<TRIPOS>MOLECULE
frag5-612-33/41815 -- energy: -0.455932
   16    16     1     1     1
SMALL
USER_CHARGES


@<TRIPOS>ATOM
      1 O1         -2.9576   -0.3915   -0.0305 O.3        1 <1>        0.000
      2 C2         -1.5856   -0.2935   -0.0142 C.ar       1 <1>        0.000
      3 C3         -0.9654    0.9856   -0.0339 C.ar       1 <1>        0.000
      4 C4          0.4650    1.0703   -0.0163 C.ar       1 <1>        0.000
      5 C5          1.2804   -0.0713    0.0199 C.ar       1 <1>        0.000
      6 C6          0.6440   -1.3295    0.0383 C.ar       1 <1>        0.000
      7 C7         -0.7656   -1.4313    0.0222 C.ar       1 <1>        0.000
      8 C8          2.7410    0.0347    0.0378 C.2        1 <1>        0.000
      9 O2          3.3107    0.9245   -0.5772 O.2        1 <1>        0.000
     10 O3         -1.7694    2.1052   -0.0689 O.3        1 <1>        0.000
     11 H          -3.3399    0.4888   -0.0553 H.spc      1 <1>        0.000
     12 H           0.9351    2.0536   -0.0315 H.spc      1 <1>        0.000
     13 H           1.2478   -2.2366    0.0653 H.spc      1 <1>        0.000
     14 H          -1.2272   -2.4186    0.0385 H.spc      1 <1>        0.000
     15 H           3.3268   -0.6880    0.6059 H.spc      1 <1>        0.000
     16 H          -1.2198    2.8923   -0.0788 H.spc      1 <1>        0.000
@<TRIPOS>BOND
     1    8    9 2  
     2    1    2 1  
     3    2    7 ar 
     4    2    3 ar 
     5    3    4 ar 
     6    3   10 1  
     7    4    5 ar 
     8    5    6 ar 
     9    5    8 1  
    10    6    7 ar 
    11    1   11 1  
    12    4   12 1  
    13    6   13 1  
    14    7   14 1  
    15    8   15 1  
    16   10   16 1  
# Name:          frag5-612-33/41815 -- energy: -0.402651
# Creation time: Sat Jun  5 12:52:59 2010


@<TRIPOS>MOLECULE
frag5-612-33/41815 -- energy: -0.402651
   16    16     1     1     1
SMALL
USER_CHARGES


@<TRIPOS>ATOM
      1 O1         -2.8964   -0.5986    0.0247 O.3        1 <1>        0.000
      2 C2         -1.5459   -0.3186   -0.0095 C.ar       1 <1>        0.000
      3 C3         -1.1013    1.0279   -0.0001 C.ar       1 <1>        0.000
      4 C4          0.3050    1.3059   -0.0360 C.ar       1 <1>        0.000
      5 C5          1.2639    0.2801   -0.0808 C.ar       1 <1>        0.000
      6 C6          0.7985   -1.0525   -0.0899 C.ar       1 <1>        0.000
      7 C7         -0.5869   -1.3408   -0.0539 C.ar       1 <1>        0.000
      8 C8          2.6953    0.5770   -0.1164 C.2        1 <1>        0.000
      9 O2          3.5140   -0.3118   -0.3046 O.2        1 <1>        0.000
     10 O3         -2.0485    2.0346    0.0438 O.3        1 <1>        0.000
     11 H          -3.3918    0.2232    0.0525 H.spc      1 <1>        0.000
     12 H           0.6397    2.3432   -0.0283 H.spc      1 <1>        0.000
     13 H           1.5166   -1.8717   -0.1252 H.spc      1 <1>        0.000
     14 H          -0.9155   -2.3801   -0.0608 H.spc      1 <1>        0.000
     15 H           3.0365    1.6023    0.0265 H.spc      1 <1>        0.000
     16 H          -1.6076    2.8874    0.0452 H.spc      1 <1>        0.000
@<TRIPOS>BOND
     1    8    9 2  
     2    1    2 1  
     3    2    7 ar 
     4    2    3 ar 
     5    3    4 ar 
     6    3   10 1  
     7    4    5 ar 
     8    5    6 ar 
     9    5    8 1  
    10    6    7 ar 
    11    1   11 1  
    12    4   12 1  
    13    6   13 1  
    14    7   14 1  
    15    8   15 1  
    16   10   16 1  
