#      Rotatable Fragment
#      Build by yxyuan
#
# Name:          frag3-204-5/31924
# Creation time: Sat Jun  5 12:52:20 2010


@<TRIPOS>MOLECULE
frag3-204-5/31924
   10     9     1     1     1
SMALL
USER_CHARGES


@<TRIPOS>ATOM
      1 N1         -2.2912   -0.7832   -0.5723 N.pl3      1 <1>        0.000
      2 O1         -0.9265   -0.7787   -0.4450 O.3        1 <1>        0.000
      3 C5         -3.0425   -1.5104    0.2514 C.cat      1 <1>        0.000
      4 N3         -4.2946   -1.3323    0.3288 N.pl3      1 <1>        0.000
      5 N4         -2.4273   -2.4300    0.9906 N.pl3      1 <1>        0.000
      6 H          -2.7339   -0.2258   -1.3029 H.spc      1 <1>        0.000
      7 H          -0.5457   -0.2057   -1.1145 H.spc      1 <1>        0.000
      8 H          -4.8519   -1.8998    0.9674 H.spc      1 <1>        0.000
      9 H          -2.9648   -3.0088    1.6359 H.spc      1 <1>        0.000
     10 H          -1.4182   -2.5561    0.9119 H.spc      1 <1>        0.000
@<TRIPOS>BOND
     1    3    4 ar 
     2    1    2 1  
     3    1    3 ar 
     4    3    5 ar 
     5    1    6 1  
     6    2    7 1  
     7    4    8 1  
     8    5    9 1  
     9    5   10 1  
# Name:          frag3-204-5/31924
# Creation time: Sat Jun  5 12:52:20 2010


@<TRIPOS>MOLECULE
frag3-204-5/31924
   10     9     1     1     1
SMALL
USER_CHARGES


@<TRIPOS>ATOM
      1 N1         -1.6801   -1.2620   -0.1257 N.pl3      1 <1>        0.000
      2 O1         -1.6465   -0.1559   -0.9385 O.3        1 <1>        0.000
      3 C5         -2.8657   -1.6603    0.3687 C.cat      1 <1>        0.000
      4 N3         -3.9166   -1.0288    0.0881 N.pl3      1 <1>        0.000
      5 N4         -2.8732   -2.7277    1.1610 N.pl3      1 <1>        0.000
      6 H          -0.8247   -1.7704    0.0982 H.spc      1 <1>        0.000
      7 H          -0.7421    0.0095   -1.2147 H.spc      1 <1>        0.000
      8 H          -4.8116   -1.3318    0.4722 H.spc      1 <1>        0.000
      9 H          -3.7505   -3.0586    1.5626 H.spc      1 <1>        0.000
     10 H          -2.0017   -3.2158    1.3673 H.spc      1 <1>        0.000
@<TRIPOS>BOND
     1    3    4 ar 
     2    1    2 1  
     3    1    3 ar 
     4    3    5 ar 
     5    1    6 1  
     6    2    7 1  
     7    4    8 1  
     8    5    9 1  
     9    5   10 1  
# Name:          frag3-204-5/31924 -- energy: -0.137884
# Creation time: Sat Jun  5 12:52:20 2010


@<TRIPOS>MOLECULE
frag3-204-5/31924 -- energy: -0.137884
   10     9     1     1     1
SMALL
USER_CHARGES


@<TRIPOS>ATOM
      1 N1         -2.2912   -0.7832   -0.5723 N.pl3      1 <1>        0.000
      2 O1         -0.9265   -0.7787   -0.4450 O.3        1 <1>        0.000
      3 C5         -3.0425   -1.5104    0.2514 C.cat      1 <1>        0.000
      4 N3         -4.2946   -1.3323    0.3288 N.pl3      1 <1>        0.000
      5 N4         -2.4273   -2.4300    0.9906 N.pl3      1 <1>        0.000
      6 H          -2.7339   -0.2258   -1.3029 H.spc      1 <1>        0.000
      7 H          -0.5457   -0.2057   -1.1145 H.spc      1 <1>        0.000
      8 H          -4.8519   -1.8998    0.9674 H.spc      1 <1>        0.000
      9 H          -2.9648   -3.0088    1.6359 H.spc      1 <1>        0.000
     10 H          -1.4182   -2.5561    0.9119 H.spc      1 <1>        0.000
@<TRIPOS>BOND
     1    3    4 ar 
     2    1    2 1  
     3    1    3 ar 
     4    3    5 ar 
     5    1    6 1  
     6    2    7 1  
     7    4    8 1  
     8    5    9 1  
     9    5   10 1  
# Name:          frag3-204-5/31924 -- energy: -0.319131
# Creation time: Sat Jun  5 12:52:20 2010


@<TRIPOS>MOLECULE
frag3-204-5/31924 -- energy: -0.319131
   10     9     1     1     1
SMALL
USER_CHARGES


@<TRIPOS>ATOM
      1 N1         -1.6801   -1.2620   -0.1257 N.pl3      1 <1>        0.000
      2 O1         -1.6465   -0.1559   -0.9385 O.3        1 <1>        0.000
      3 C5         -2.8657   -1.6603    0.3687 C.cat      1 <1>        0.000
      4 N3         -3.9166   -1.0288    0.0881 N.pl3      1 <1>        0.000
      5 N4         -2.8732   -2.7277    1.1610 N.pl3      1 <1>        0.000
      6 H          -0.8247   -1.7704    0.0982 H.spc      1 <1>        0.000
      7 H          -0.7421    0.0095   -1.2147 H.spc      1 <1>        0.000
      8 H          -4.8116   -1.3318    0.4722 H.spc      1 <1>        0.000
      9 H          -3.7505   -3.0586    1.5626 H.spc      1 <1>        0.000
     10 H          -2.0017   -3.2158    1.3673 H.spc      1 <1>        0.000
@<TRIPOS>BOND
     1    3    4 ar 
     2    1    2 1  
     3    1    3 ar 
     4    3    5 ar 
     5    1    6 1  
     6    2    7 1  
     7    4    8 1  
     8    5    9 1  
     9    5   10 1  
