#      Rotatable Fragment
#      Build by yxyuan
#
# Name:          frag4-385-74/48856
# Creation time: Sat Jun  5 12:53:39 2010


@<TRIPOS>MOLECULE
frag4-385-74/48856
   15    15     1     1     1
SMALL
USER_CHARGES


@<TRIPOS>ATOM
      1 N4         -4.9711   -1.3974    0.3353 N.3        1 <1>        0.000
      2 C12        -5.7420   -0.9054   -0.7735 C.3        1 <1>        0.000
      3 C13        -6.9707   -1.8005   -0.9366 C.3        1 <1>        0.000
      4 O2         -7.6480   -1.8559    0.2783 O.3        1 <1>        0.000
      5 C14        -7.0174   -1.6180    1.5029 C.3        1 <1>        0.000
      6 C15        -5.5424   -2.0264    1.4829 C.3        1 <1>        0.000
      7 H          -4.4235   -2.1482   -0.0852 H.spc      1 <1>        0.000
      8 H          -5.1424   -0.9231   -1.6836 H.spc      1 <1>        0.000
      9 H          -6.0502    0.1235   -0.5880 H.spc      1 <1>        0.000
     10 H          -6.6615   -2.8026   -1.2338 H.spc      1 <1>        0.000
     11 H          -7.6255   -1.3932   -1.7069 H.spc      1 <1>        0.000
     12 H          -7.5230   -2.2106    2.2654 H.spc      1 <1>        0.000
     13 H          -7.0705   -0.5491    1.7096 H.spc      1 <1>        0.000
     14 H          -5.0355   -1.7139    2.3958 H.spc      1 <1>        0.000
     15 H          -5.4351   -3.1099    1.4317 H.spc      1 <1>        0.000
@<TRIPOS>BOND
     1    1    6 1  
     2    1    2 1  
     3    2    3 1  
     4    3    4 1  
     5    4    5 1  
     6    5    6 1  
     7    1    7 1  
     8    2    8 1  
     9    2    9 1  
    10    3   10 1  
    11    3   11 1  
    12    5   12 1  
    13    5   13 1  
    14    6   14 1  
    15    6   15 1  
# Name:          frag4-385-74/48856 -- energy: -0.578432
# Creation time: Sat Jun  5 12:53:39 2010


@<TRIPOS>MOLECULE
frag4-385-74/48856 -- energy: -0.578432
   15    15     1     1     1
SMALL
USER_CHARGES


@<TRIPOS>ATOM
      1 N4         -4.9711   -1.3974    0.3353 N.3        1 <1>        0.000
      2 C12        -5.7420   -0.9054   -0.7735 C.3        1 <1>        0.000
      3 C13        -6.9707   -1.8005   -0.9366 C.3        1 <1>        0.000
      4 O2         -7.6480   -1.8559    0.2783 O.3        1 <1>        0.000
      5 C14        -7.0174   -1.6180    1.5029 C.3        1 <1>        0.000
      6 C15        -5.5424   -2.0264    1.4829 C.3        1 <1>        0.000
      7 H          -4.4235   -2.1482   -0.0852 H.spc      1 <1>        0.000
      8 H          -5.1424   -0.9231   -1.6836 H.spc      1 <1>        0.000
      9 H          -6.0502    0.1235   -0.5880 H.spc      1 <1>        0.000
     10 H          -6.6615   -2.8026   -1.2338 H.spc      1 <1>        0.000
     11 H          -7.6255   -1.3932   -1.7069 H.spc      1 <1>        0.000
     12 H          -7.5230   -2.2106    2.2654 H.spc      1 <1>        0.000
     13 H          -7.0705   -0.5491    1.7096 H.spc      1 <1>        0.000
     14 H          -5.0355   -1.7139    2.3958 H.spc      1 <1>        0.000
     15 H          -5.4351   -3.1099    1.4317 H.spc      1 <1>        0.000
@<TRIPOS>BOND
     1    1    6 1  
     2    1    2 1  
     3    2    3 1  
     4    3    4 1  
     5    4    5 1  
     6    5    6 1  
     7    1    7 1  
     8    2    8 1  
     9    2    9 1  
    10    3   10 1  
    11    3   11 1  
    12    5   12 1  
    13    5   13 1  
    14    6   14 1  
    15    6   15 1  
