#      Rotatable Fragment
#      Build by yxyuan
#
# Name:          frag3-147-18/31924
# Creation time: Sat Jun  5 12:52:04 2010


@<TRIPOS>MOLECULE
frag3-147-18/31924
   10     9     1     1     1
SMALL
USER_CHARGES


@<TRIPOS>ATOM
      1 N1          0.5904   -0.3432    0.2546 N.am       1 <1>        0.000
      2 C1         -0.5956    0.2138   -0.1662 C.2        1 <1>        0.000
      3 O1         -1.7031   -0.2413    0.1015 O.2        1 <1>        0.000
      4 N2         -0.6656    1.3434   -0.9666 N.am       1 <1>        0.000
      5 C2          1.8022    0.2367    0.0421 C.2        1 <1>        0.000
      6 O2          2.0597    1.2735   -0.5515 O.2        1 <1>        0.000
      7 H           0.5591   -1.2343    0.7500 H.spc      1 <1>        0.000
      8 H          -1.5729    1.7025   -1.2637 H.spc      1 <1>        0.000
      9 H           0.1902    1.8155   -1.2584 H.spc      1 <1>        0.000
     10 H           2.6587   -0.2946    0.4569 H.spc      1 <1>        0.000
@<TRIPOS>BOND
     1    1    2 am 
     2    1    5 am 
     3    2    3 2  
     4    2    4 am 
     5    5    6 2  
     6    1    7 1  
     7    4    8 1  
     8    4    9 1  
     9    5   10 1  
# Name:          frag3-147-18/31924
# Creation time: Sat Jun  5 12:52:04 2010


@<TRIPOS>MOLECULE
frag3-147-18/31924
   10     9     1     1     1
SMALL
USER_CHARGES


@<TRIPOS>ATOM
      1 N1          0.6068    0.5662   -0.7312 N.am       1 <1>        0.000
      2 C1         -0.6962    0.4408   -0.4243 C.2        1 <1>        0.000
      3 O1         -1.0409   -0.2953    0.5201 O.2        1 <1>        0.000
      4 N2         -1.7544    0.9765   -1.0478 N.am       1 <1>        0.000
      5 C2          1.5791    0.3614    0.2503 C.2        1 <1>        0.000
      6 O2          2.7937    0.4334    0.1468 O.2        1 <1>        0.000
      7 H           0.8854    0.8110   -1.6814 H.spc      1 <1>        0.000
      8 H          -2.6984    0.7594   -0.7282 H.spc      1 <1>        0.000
      9 H          -1.6159    1.6014   -1.8420 H.spc      1 <1>        0.000
     10 H           1.2038    0.1029    1.2405 H.spc      1 <1>        0.000
@<TRIPOS>BOND
     1    1    2 am 
     2    1    5 am 
     3    2    3 2  
     4    2    4 am 
     5    5    6 2  
     6    1    7 1  
     7    4    8 1  
     8    4    9 1  
     9    5   10 1  
# Name:          frag3-147-18/31924
# Creation time: Sat Jun  5 12:52:04 2010


@<TRIPOS>MOLECULE
frag3-147-18/31924
   10     9     1     1     1
SMALL
USER_CHARGES


@<TRIPOS>ATOM
      1 N1          0.5808    0.0076    0.2290 N.am       1 <1>        0.000
      2 C1         -0.7172    0.2535   -0.1736 C.2        1 <1>        0.000
      3 O1         -1.6827   -0.4089    0.2111 O.2        1 <1>        0.000
      4 N2         -1.0811    1.2386   -1.0683 N.am       1 <1>        0.000
      5 C2          1.6618    0.4899   -0.4464 C.2        1 <1>        0.000
      6 O2          2.7264    0.9021   -0.0380 O.2        1 <1>        0.000
      7 H           0.7364   -0.5569    1.0642 H.spc      1 <1>        0.000
      8 H          -2.0592    1.3484   -1.3360 H.spc      1 <1>        0.000
      9 H          -0.3721    1.8572   -1.4620 H.spc      1 <1>        0.000
     10 H           1.5513    0.5080   -1.5306 H.spc      1 <1>        0.000
@<TRIPOS>BOND
     1    1    2 am 
     2    1    5 am 
     3    2    3 2  
     4    2    4 am 
     5    5    6 2  
     6    1    7 1  
     7    4    8 1  
     8    4    9 1  
     9    5   10 1  
# Name:          frag3-147-18/31924 -- energy: 0.770000
# Creation time: Sat Jun  5 12:52:04 2010


@<TRIPOS>MOLECULE
frag3-147-18/31924 -- energy: 0.770000
   10     9     1     1     1
SMALL
USER_CHARGES


@<TRIPOS>ATOM
      1 N1          0.5904   -0.3432    0.2546 N.am       1 <1>        0.000
      2 C1         -0.5956    0.2138   -0.1662 C.2        1 <1>        0.000
      3 O1         -1.7031   -0.2413    0.1015 O.2        1 <1>        0.000
      4 N2         -0.6656    1.3434   -0.9666 N.am       1 <1>        0.000
      5 C2          1.8022    0.2367    0.0421 C.2        1 <1>        0.000
      6 O2          2.0597    1.2735   -0.5515 O.2        1 <1>        0.000
      7 H           0.5591   -1.2343    0.7500 H.spc      1 <1>        0.000
      8 H          -1.5729    1.7025   -1.2637 H.spc      1 <1>        0.000
      9 H           0.1902    1.8155   -1.2584 H.spc      1 <1>        0.000
     10 H           2.6587   -0.2946    0.4569 H.spc      1 <1>        0.000
@<TRIPOS>BOND
     1    1    2 am 
     2    1    5 am 
     3    2    3 2  
     4    2    4 am 
     5    5    6 2  
     6    1    7 1  
     7    4    8 1  
     8    4    9 1  
     9    5   10 1  
# Name:          frag3-147-18/31924 -- energy: -0.202006
# Creation time: Sat Jun  5 12:52:04 2010


@<TRIPOS>MOLECULE
frag3-147-18/31924 -- energy: -0.202006
   10     9     1     1     1
SMALL
USER_CHARGES


@<TRIPOS>ATOM
      1 N1          0.6068    0.5662   -0.7312 N.am       1 <1>        0.000
      2 C1         -0.6962    0.4408   -0.4243 C.2        1 <1>        0.000
      3 O1         -1.0409   -0.2953    0.5201 O.2        1 <1>        0.000
      4 N2         -1.7544    0.9765   -1.0478 N.am       1 <1>        0.000
      5 C2          1.5791    0.3614    0.2503 C.2        1 <1>        0.000
      6 O2          2.7937    0.4334    0.1468 O.2        1 <1>        0.000
      7 H           0.8854    0.8110   -1.6814 H.spc      1 <1>        0.000
      8 H          -2.6984    0.7594   -0.7282 H.spc      1 <1>        0.000
      9 H          -1.6159    1.6014   -1.8420 H.spc      1 <1>        0.000
     10 H           1.2038    0.1029    1.2405 H.spc      1 <1>        0.000
@<TRIPOS>BOND
     1    1    2 am 
     2    1    5 am 
     3    2    3 2  
     4    2    4 am 
     5    5    6 2  
     6    1    7 1  
     7    4    8 1  
     8    4    9 1  
     9    5   10 1  
# Name:          frag3-147-18/31924 -- energy: -0.536916
# Creation time: Sat Jun  5 12:52:04 2010


@<TRIPOS>MOLECULE
frag3-147-18/31924 -- energy: -0.536916
   10     9     1     1     1
SMALL
USER_CHARGES


@<TRIPOS>ATOM
      1 N1          0.5808    0.0076    0.2290 N.am       1 <1>        0.000
      2 C1         -0.7172    0.2535   -0.1736 C.2        1 <1>        0.000
      3 O1         -1.6827   -0.4089    0.2111 O.2        1 <1>        0.000
      4 N2         -1.0811    1.2386   -1.0683 N.am       1 <1>        0.000
      5 C2          1.6618    0.4899   -0.4464 C.2        1 <1>        0.000
      6 O2          2.7264    0.9021   -0.0380 O.2        1 <1>        0.000
      7 H           0.7364   -0.5569    1.0642 H.spc      1 <1>        0.000
      8 H          -2.0592    1.3484   -1.3360 H.spc      1 <1>        0.000
      9 H          -0.3721    1.8572   -1.4620 H.spc      1 <1>        0.000
     10 H           1.5513    0.5080   -1.5306 H.spc      1 <1>        0.000
@<TRIPOS>BOND
     1    1    2 am 
     2    1    5 am 
     3    2    3 2  
     4    2    4 am 
     5    5    6 2  
     6    1    7 1  
     7    4    8 1  
     8    4    9 1  
     9    5   10 1  
