#      Rotatable Fragment
#      Build by yxyuan
#
# Name:          frag4-397-211/150395
# Creation time: Sat Jun  5 12:53:34 2010


@<TRIPOS>MOLECULE
frag4-397-211/150395
   18    18     1     1     1
SMALL
USER_CHARGES


@<TRIPOS>ATOM
      1 N1          0.1787    0.7740    0.2525 N.4        1 <1>        0.000
      2 C16         0.1771   -0.6209   -0.1768 C.3        1 <1>        0.000
      3 C17         1.3573    1.4988   -0.2180 C.3        1 <1>        0.000
      4 C18         1.4022   -1.3992    0.1393 C.3        1 <1>        0.000
      5 C19         2.6904    0.8708   -0.0048 C.3        1 <1>        0.000
      6 C20         2.5067   -0.5541   -0.3645 C.3        1 <1>        0.000
      7 H          -0.6476    1.2262   -0.1389 H.spc      1 <1>        0.000
      8 H           0.1835    0.7909    1.2723 H.spc      1 <1>        0.000
      9 H           0.0943   -0.6072   -1.2636 H.spc      1 <1>        0.000
     10 H          -0.6403   -1.1053    0.3574 H.spc      1 <1>        0.000
     11 H           1.3772    2.4251    0.3562 H.spc      1 <1>        0.000
     12 H           1.2405    1.5728   -1.2992 H.spc      1 <1>        0.000
     13 H           1.4951   -1.6063    1.2054 H.spc      1 <1>        0.000
     14 H           1.3943   -2.3860   -0.3236 H.spc      1 <1>        0.000
     15 H           3.4612    1.3442   -0.6130 H.spc      1 <1>        0.000
     16 H           3.0307    0.9864    1.0242 H.spc      1 <1>        0.000
     17 H           2.3043   -0.5074   -1.4345 H.spc      1 <1>        0.000
     18 H           3.3878   -1.0267    0.0695 H.spc      1 <1>        0.000
@<TRIPOS>BOND
     1    4    6 1  
     2    5    6 1  
     3    1    3 1  
     4    1    2 1  
     5    2    4 1  
     6    3    5 1  
     7    1    7 1  
     8    1    8 1  
     9    2    9 1  
    10    2   10 1  
    11    3   11 1  
    12    3   12 1  
    13    4   13 1  
    14    4   14 1  
    15    5   15 1  
    16    5   16 1  
    17    6   17 1  
    18    6   18 1  
# Name:          frag4-397-211/150395 -- energy: -1.337856
# Creation time: Sat Jun  5 12:53:34 2010


@<TRIPOS>MOLECULE
frag4-397-211/150395 -- energy: -1.337856
   18    18     1     1     1
SMALL
USER_CHARGES


@<TRIPOS>ATOM
      1 N1          0.1787    0.7740    0.2525 N.4        1 <1>        0.000
      2 C16         0.1771   -0.6209   -0.1768 C.3        1 <1>        0.000
      3 C17         1.3573    1.4988   -0.2180 C.3        1 <1>        0.000
      4 C18         1.4022   -1.3992    0.1393 C.3        1 <1>        0.000
      5 C19         2.6904    0.8708   -0.0048 C.3        1 <1>        0.000
      6 C20         2.5067   -0.5541   -0.3645 C.3        1 <1>        0.000
      7 H          -0.6476    1.2262   -0.1389 H.spc      1 <1>        0.000
      8 H           0.1835    0.7909    1.2723 H.spc      1 <1>        0.000
      9 H           0.0943   -0.6072   -1.2636 H.spc      1 <1>        0.000
     10 H          -0.6403   -1.1053    0.3574 H.spc      1 <1>        0.000
     11 H           1.3772    2.4251    0.3562 H.spc      1 <1>        0.000
     12 H           1.2405    1.5728   -1.2992 H.spc      1 <1>        0.000
     13 H           1.4951   -1.6063    1.2054 H.spc      1 <1>        0.000
     14 H           1.3943   -2.3860   -0.3236 H.spc      1 <1>        0.000
     15 H           3.4612    1.3442   -0.6130 H.spc      1 <1>        0.000
     16 H           3.0307    0.9864    1.0242 H.spc      1 <1>        0.000
     17 H           2.3043   -0.5074   -1.4345 H.spc      1 <1>        0.000
     18 H           3.3878   -1.0267    0.0695 H.spc      1 <1>        0.000
@<TRIPOS>BOND
     1    4    6 1  
     2    5    6 1  
     3    1    3 1  
     4    1    2 1  
     5    2    4 1  
     6    3    5 1  
     7    1    7 1  
     8    1    8 1  
     9    2    9 1  
    10    2   10 1  
    11    3   11 1  
    12    3   12 1  
    13    4   13 1  
    14    4   14 1  
    15    5   15 1  
    16    5   16 1  
    17    6   17 1  
    18    6   18 1  
