#      Rotatable Fragment
#      Build by yxyuan
#
# Name:          frag4-492-31/48856
# Creation time: Sat Jun  5 12:52:49 2010


@<TRIPOS>MOLECULE
frag4-492-31/48856
   12    12     1     1     1
SMALL
USER_CHARGES


@<TRIPOS>ATOM
      1 N1          6.1706    4.4692   -3.3817 N.3        1 <1>        0.000
      2 C1          6.4739    3.0713   -3.1181 C.3        1 <1>        0.000
      3 C2          5.0932    2.6101   -2.7285 C.2        1 <1>        0.000
      4 C3          4.2024    3.6037   -2.7770 C.2        1 <1>        0.000
      5 C4          4.9276    4.8027   -3.2045 C.3        1 <1>        0.000
      6 H           6.3838    4.6370   -4.3650 H.spc      1 <1>        0.000
      7 H           7.2482    2.8982   -2.3708 H.spc      1 <1>        0.000
      8 H           6.9255    2.5304   -3.9497 H.spc      1 <1>        0.000
      9 H           4.8505    1.5870   -2.4412 H.spc      1 <1>        0.000
     10 H           3.1399    3.5357   -2.5434 H.spc      1 <1>        0.000
     11 H           4.5037    5.1932   -4.1296 H.spc      1 <1>        0.000
     12 H           4.8482    5.5841   -2.4487 H.spc      1 <1>        0.000
@<TRIPOS>BOND
     1    1    2 1  
     2    1    5 1  
     3    2    3 1  
     4    3    4 2  
     5    4    5 1  
     6    1    6 1  
     7    2    7 1  
     8    2    8 1  
     9    3    9 1  
    10    4   10 1  
    11    5   11 1  
    12    5   12 1  
# Name:          frag4-492-31/48856 -- energy: -0.474438
# Creation time: Sat Jun  5 12:52:49 2010


@<TRIPOS>MOLECULE
frag4-492-31/48856 -- energy: -0.474438
   12    12     1     1     1
SMALL
USER_CHARGES


@<TRIPOS>ATOM
      1 N1          6.1706    4.4692   -3.3817 N.3        1 <1>        0.000
      2 C1          6.4739    3.0713   -3.1181 C.3        1 <1>        0.000
      3 C2          5.0932    2.6101   -2.7285 C.2        1 <1>        0.000
      4 C3          4.2024    3.6037   -2.7770 C.2        1 <1>        0.000
      5 C4          4.9276    4.8027   -3.2045 C.3        1 <1>        0.000
      6 H           6.3838    4.6370   -4.3650 H.spc      1 <1>        0.000
      7 H           7.2482    2.8982   -2.3708 H.spc      1 <1>        0.000
      8 H           6.9255    2.5304   -3.9497 H.spc      1 <1>        0.000
      9 H           4.8505    1.5870   -2.4412 H.spc      1 <1>        0.000
     10 H           3.1399    3.5357   -2.5434 H.spc      1 <1>        0.000
     11 H           4.5037    5.1932   -4.1296 H.spc      1 <1>        0.000
     12 H           4.8482    5.5841   -2.4487 H.spc      1 <1>        0.000
@<TRIPOS>BOND
     1    1    2 1  
     2    1    5 1  
     3    2    3 1  
     4    3    4 2  
     5    4    5 1  
     6    1    6 1  
     7    2    7 1  
     8    2    8 1  
     9    3    9 1  
    10    4   10 1  
    11    5   11 1  
    12    5   12 1  
