#      Rotatable Fragment
#      Build by yxyuan
#
# Name:          frag4-463-37/48856
# Creation time: Sat Jun  5 12:52:48 2010


@<TRIPOS>MOLECULE
frag4-463-37/48856
   42    45     1     1     1
SMALL
USER_CHARGES


@<TRIPOS>ATOM
      1 N1         -3.3389   -0.4986   -0.6793 N.2        1 <1>        0.000
      2 C1         -4.4443   -1.0630   -0.0972 C.2        1 <1>        0.000
      3 C2         -4.7048   -0.2481    1.0744 C.2        1 <1>        0.000
      4 C3         -3.7565    0.7319    1.1689 C.2        1 <1>        0.000
      5 C4         -2.8850    0.5084    0.0079 C.2        1 <1>        0.000
      6 C5         -1.6530    1.3191   -0.3309 C.3        1 <1>        0.000
      7 C6         -1.8927    2.5140   -1.2432 C.3        1 <1>        0.000
      8 C7         -2.0909    3.9752   -0.7243 C.3        1 <1>        0.000
      9 C15        -3.6191    1.7884    2.1917 C.3        1 <1>        0.000
     10 C8         -3.4690    4.3812   -0.1242 C.3        1 <1>        0.000
     11 N2         -3.7468    4.3260    1.3446 N.4        1 <1>        0.000
     12 C9         -2.5565    4.8225    2.1059 C.3        1 <1>        0.000
     13 C10        -1.1557    4.4305    1.6593 C.3        1 <1>        0.000
     14 C11        -0.9535    4.5570    0.1586 C.3        1 <1>        0.000
     15 C14        -4.3754    3.0867    1.8891 C.3        1 <1>        0.000
     16 C41        -5.8273   -0.5656    1.9095 C.2        1 <1>        0.000
     17 C42        -6.5820   -1.6537    1.6263 C.2        1 <1>        0.000
     18 C43        -6.3007   -2.4943    0.4687 C.3        1 <1>        0.000
     19 C44        -5.1957   -2.1366   -0.3993 C.2        1 <1>        0.000
     20 H          -0.9756    0.6509   -0.8626 H.spc      1 <1>        0.000
     21 H          -1.2714    1.7157    0.6099 H.spc      1 <1>        0.000
     22 H          -2.8574    2.2842   -1.6957 H.spc      1 <1>        0.000
     23 H          -0.9615    2.5805   -1.8058 H.spc      1 <1>        0.000
     24 H          -2.0500    4.4475   -1.7058 H.spc      1 <1>        0.000
     25 H          -2.5607    2.0448    2.2385 H.spc      1 <1>        0.000
     26 H          -4.0382    1.3884    3.1150 H.spc      1 <1>        0.000
     27 H          -3.5453    5.4431   -0.3578 H.spc      1 <1>        0.000
     28 H          -4.1551    3.6437   -0.5408 H.spc      1 <1>        0.000
     29 H          -4.5246    4.9684    1.4958 H.spc      1 <1>        0.000
     30 H          -2.5885    5.9057    1.9887 H.spc      1 <1>        0.000
     31 H          -2.6616    4.3815    3.0971 H.spc      1 <1>        0.000
     32 H          -0.4511    5.1040    2.1471 H.spc      1 <1>        0.000
     33 H          -1.0019    3.3854    1.9280 H.spc      1 <1>        0.000
     34 H          -0.0547    3.9889   -0.0812 H.spc      1 <1>        0.000
     35 H          -0.9089    5.6242   -0.0584 H.spc      1 <1>        0.000
     36 H          -4.7038    3.4043    2.8787 H.spc      1 <1>        0.000
     37 H          -5.0439    2.7873    1.0819 H.spc      1 <1>        0.000
     38 H          -6.0708    0.0641    2.7653 H.spc      1 <1>        0.000
     39 H          -7.4182   -1.9067    2.2781 H.spc      1 <1>        0.000
     40 H          -7.1892   -2.4196   -0.1583 H.spc      1 <1>        0.000
     41 H          -6.0326   -3.4663    0.8828 H.spc      1 <1>        0.000
     42 H          -4.9766   -2.7310   -1.2863 H.spc      1 <1>        0.000
@<TRIPOS>BOND
     1    4    9 1  
     2    3    4 2  
     3    2   19 2  
     4    2    3 1  
     5    3   16 1  
     6    5    6 1  
     7    1    5 2  
     8    1    2 1  
     9    6    7 1  
    10    4    5 1  
    11   17   18 1  
    12   18   19 1  
    13   16   17 2  
    14   15    9 1  
    15   13   14 1  
    16   12   13 1  
    17   11   15 1  
    18   11   12 1  
    19   10   11 1  
    20    8   14 1  
    21    8   10 1  
    22    7    8 1  
    23    6   20 1  
    24    6   21 1  
    25    7   22 1  
    26    7   23 1  
    27    8   24 1  
    28    9   25 1  
    29    9   26 1  
    30   10   27 1  
    31   10   28 1  
    32   11   29 1  
    33   12   30 1  
    34   12   31 1  
    35   13   32 1  
    36   13   33 1  
    37   14   34 1  
    38   14   35 1  
    39   15   36 1  
    40   15   37 1  
    41   16   38 1  
    42   17   39 1  
    43   18   40 1  
    44   18   41 1  
    45   19   42 1  
# Name:          frag4-463-37/48856 -- energy: -8.007848
# Creation time: Sat Jun  5 12:52:48 2010


@<TRIPOS>MOLECULE
frag4-463-37/48856 -- energy: -8.007848
   42    45     1     1     1
SMALL
USER_CHARGES


@<TRIPOS>ATOM
      1 N1         -3.3389   -0.4986   -0.6793 N.2        1 <1>        0.000
      2 C1         -4.4443   -1.0630   -0.0972 C.2        1 <1>        0.000
      3 C2         -4.7048   -0.2481    1.0744 C.2        1 <1>        0.000
      4 C3         -3.7565    0.7319    1.1689 C.2        1 <1>        0.000
      5 C4         -2.8850    0.5084    0.0079 C.2        1 <1>        0.000
      6 C5         -1.6530    1.3191   -0.3309 C.3        1 <1>        0.000
      7 C6         -1.8927    2.5140   -1.2432 C.3        1 <1>        0.000
      8 C7         -2.0909    3.9752   -0.7243 C.3        1 <1>        0.000
      9 C15        -3.6191    1.7884    2.1917 C.3        1 <1>        0.000
     10 C8         -3.4690    4.3812   -0.1242 C.3        1 <1>        0.000
     11 N2         -3.7468    4.3260    1.3446 N.4        1 <1>        0.000
     12 C9         -2.5565    4.8225    2.1059 C.3        1 <1>        0.000
     13 C10        -1.1557    4.4305    1.6593 C.3        1 <1>        0.000
     14 C11        -0.9535    4.5570    0.1586 C.3        1 <1>        0.000
     15 C14        -4.3754    3.0867    1.8891 C.3        1 <1>        0.000
     16 C41        -5.8273   -0.5656    1.9095 C.2        1 <1>        0.000
     17 C42        -6.5820   -1.6537    1.6263 C.2        1 <1>        0.000
     18 C43        -6.3007   -2.4943    0.4687 C.3        1 <1>        0.000
     19 C44        -5.1957   -2.1366   -0.3993 C.2        1 <1>        0.000
     20 H          -0.9756    0.6509   -0.8626 H.spc      1 <1>        0.000
     21 H          -1.2714    1.7157    0.6099 H.spc      1 <1>        0.000
     22 H          -2.8574    2.2842   -1.6957 H.spc      1 <1>        0.000
     23 H          -0.9615    2.5805   -1.8058 H.spc      1 <1>        0.000
     24 H          -2.0500    4.4475   -1.7058 H.spc      1 <1>        0.000
     25 H          -2.5607    2.0448    2.2385 H.spc      1 <1>        0.000
     26 H          -4.0382    1.3884    3.1150 H.spc      1 <1>        0.000
     27 H          -3.5453    5.4431   -0.3578 H.spc      1 <1>        0.000
     28 H          -4.1551    3.6437   -0.5408 H.spc      1 <1>        0.000
     29 H          -4.5246    4.9684    1.4958 H.spc      1 <1>        0.000
     30 H          -2.5885    5.9057    1.9887 H.spc      1 <1>        0.000
     31 H          -2.6616    4.3815    3.0971 H.spc      1 <1>        0.000
     32 H          -0.4511    5.1040    2.1471 H.spc      1 <1>        0.000
     33 H          -1.0019    3.3854    1.9280 H.spc      1 <1>        0.000
     34 H          -0.0547    3.9889   -0.0812 H.spc      1 <1>        0.000
     35 H          -0.9089    5.6242   -0.0584 H.spc      1 <1>        0.000
     36 H          -4.7038    3.4043    2.8787 H.spc      1 <1>        0.000
     37 H          -5.0439    2.7873    1.0819 H.spc      1 <1>        0.000
     38 H          -6.0708    0.0641    2.7653 H.spc      1 <1>        0.000
     39 H          -7.4182   -1.9067    2.2781 H.spc      1 <1>        0.000
     40 H          -7.1892   -2.4196   -0.1583 H.spc      1 <1>        0.000
     41 H          -6.0326   -3.4663    0.8828 H.spc      1 <1>        0.000
     42 H          -4.9766   -2.7310   -1.2863 H.spc      1 <1>        0.000
@<TRIPOS>BOND
     1    4    9 1  
     2    3    4 2  
     3    2   19 2  
     4    2    3 1  
     5    3   16 1  
     6    5    6 1  
     7    1    5 2  
     8    1    2 1  
     9    6    7 1  
    10    4    5 1  
    11   17   18 1  
    12   18   19 1  
    13   16   17 2  
    14   15    9 1  
    15   13   14 1  
    16   12   13 1  
    17   11   15 1  
    18   11   12 1  
    19   10   11 1  
    20    8   14 1  
    21    8   10 1  
    22    7    8 1  
    23    6   20 1  
    24    6   21 1  
    25    7   22 1  
    26    7   23 1  
    27    8   24 1  
    28    9   25 1  
    29    9   26 1  
    30   10   27 1  
    31   10   28 1  
    32   11   29 1  
    33   12   30 1  
    34   12   31 1  
    35   13   32 1  
    36   13   33 1  
    37   14   34 1  
    38   14   35 1  
    39   15   36 1  
    40   15   37 1  
    41   16   38 1  
    42   17   39 1  
    43   18   40 1  
    44   18   41 1  
    45   19   42 1  
