#      Rotatable Fragment
#      Build by yxyuan
#
# Name:          frag3-116-104/96164
# Creation time: Sat Jun  5 12:52:49 2010


@<TRIPOS>MOLECULE
frag3-116-104/96164
    7     6     1     1     1
SMALL
USER_CHARGES


@<TRIPOS>ATOM
      1 N1          1.9676    1.7689   -0.1711 N.am       1 <1>        0.000
      2 S1          2.7324    3.1567    0.0004 S.o2       1 <1>        0.000
      3 O2          1.8207    4.0964    0.6312 O.2        1 <1>        0.000
      4 O3          3.7099    3.3046   -1.0453 O.2        1 <1>        0.000
      5 H           1.0027    1.6757    0.1463 H.spc      1 <1>        0.000
      6 H           2.4430    0.9740   -0.5982 H.spc      1 <1>        0.000
      7 H           3.6836    3.4265    0.8900 H.spc      1 <1>        0.000
@<TRIPOS>BOND
     1    1    2 1  
     2    2    3 2  
     3    2    4 2  
     4    1    5 1  
     5    1    6 1  
     6    2    7 1  
# Name:          frag3-116-104/96164 -- energy: -0.111978
# Creation time: Sat Jun  5 12:52:49 2010


@<TRIPOS>MOLECULE
frag3-116-104/96164 -- energy: -0.111978
    7     6     1     1     1
SMALL
USER_CHARGES


@<TRIPOS>ATOM
      1 N1          1.9676    1.7689   -0.1711 N.am       1 <1>        0.000
      2 S1          2.7324    3.1567    0.0004 S.o2       1 <1>        0.000
      3 O2          1.8207    4.0964    0.6312 O.2        1 <1>        0.000
      4 O3          3.7099    3.3046   -1.0453 O.2        1 <1>        0.000
      5 H           1.0027    1.6757    0.1463 H.spc      1 <1>        0.000
      6 H           2.4430    0.9740   -0.5982 H.spc      1 <1>        0.000
      7 H           3.6836    3.4265    0.8900 H.spc      1 <1>        0.000
@<TRIPOS>BOND
     1    1    2 1  
     2    2    3 2  
     3    2    4 2  
     4    1    5 1  
     5    1    6 1  
     6    2    7 1  
