#      Rotatable Fragment
#      Build by yxyuan
#
# Name:          frag4-344-441/150395
# Creation time: Sat Jun  5 12:53:31 2010


@<TRIPOS>MOLECULE
frag4-344-441/150395
    7     7     1     1     1
SMALL
USER_CHARGES


@<TRIPOS>ATOM
      1 C1         -1.0317   -0.1599   -0.0513 C.3        1 <1>        0.000
      2 C2         -2.6173   -0.2397    0.0517 C.3        1 <1>        0.000
      3 O1         -1.7581   -1.3433    0.1432 O.3        1 <1>        0.000
      4 H          -0.1768    0.3919    0.3396 H.spc      1 <1>        0.000
      5 H          -0.2355    0.2630   -0.6640 H.spc      1 <1>        0.000
      6 H          -3.5239    0.0976   -0.4507 H.spc      1 <1>        0.000
      7 H          -3.4652    0.2266    0.5535 H.spc      1 <1>        0.000
@<TRIPOS>BOND
     1    1    2 1  
     2    1    3 1  
     3    2    3 1  
     4    1    4 1  
     5    1    5 1  
     6    2    6 1  
     7    2    7 1  
# Name:          frag4-344-441/150395 -- energy: -0.020475
# Creation time: Sat Jun  5 12:53:31 2010


@<TRIPOS>MOLECULE
frag4-344-441/150395 -- energy: -0.020475
    7     7     1     1     1
SMALL
USER_CHARGES


@<TRIPOS>ATOM
      1 C1         -1.0317   -0.1599   -0.0513 C.3        1 <1>        0.000
      2 C2         -2.6173   -0.2397    0.0517 C.3        1 <1>        0.000
      3 O1         -1.7581   -1.3433    0.1432 O.3        1 <1>        0.000
      4 H          -0.1768    0.3919    0.3396 H.spc      1 <1>        0.000
      5 H          -0.2355    0.2630   -0.6640 H.spc      1 <1>        0.000
      6 H          -3.5239    0.0976   -0.4507 H.spc      1 <1>        0.000
      7 H          -3.4652    0.2266    0.5535 H.spc      1 <1>        0.000
@<TRIPOS>BOND
     1    1    2 1  
     2    1    3 1  
     3    2    3 1  
     4    1    4 1  
     5    1    5 1  
     6    2    6 1  
     7    2    7 1  
