#      Rotatable Fragment
#      Build by yxyuan
#
# Name:          frag3-225-4/31924
# Creation time: Sat Jun  5 12:52:23 2010


@<TRIPOS>MOLECULE
frag3-225-4/31924
   12    11     1     1     1
SMALL
USER_CHARGES


@<TRIPOS>ATOM
      1 S1         -4.0548    3.1599   -1.3050 S.o2       1 <1>        0.000
      2 O1         -4.0280    2.5630   -2.6117 O.2        1 <1>        0.000
      3 O2         -5.1361    3.7985   -0.6028 O.2        1 <1>        0.000
      4 N1         -3.2342    2.2099   -0.3209 N.am       1 <1>        0.000
      5 C1         -3.1319    0.8783   -0.3503 C.2        1 <1>        0.000
      6 N2         -2.5214    0.1529    0.6083 N.pl3      1 <1>        0.000
      7 N4         -3.6949    0.2100   -1.4000 N.2        1 <1>        0.000
      8 H          -3.5998    4.3414   -1.7124 H.spc      1 <1>        0.000
      9 H          -2.7222    2.6791    0.4262 H.spc      1 <1>        0.000
     10 H          -2.4901   -0.8641    0.5361 H.spc      1 <1>        0.000
     11 H          -2.0909    0.6211    1.4057 H.spc      1 <1>        0.000
     12 H          -3.6458   -0.8080   -1.4418 H.spc      1 <1>        0.000
@<TRIPOS>BOND
     1    1    2 2  
     2    1    3 2  
     3    1    4 1  
     4    4    5 1  
     5    5    6 1  
     6    5    7 2  
     7    1    8 1  
     8    4    9 1  
     9    6   10 1  
    10    6   11 1  
    11    7   12 1  
# Name:          frag3-225-4/31924
# Creation time: Sat Jun  5 12:52:23 2010


@<TRIPOS>MOLECULE
frag3-225-4/31924
   12    11     1     1     1
SMALL
USER_CHARGES


@<TRIPOS>ATOM
      1 S1         -4.0041    3.1579   -1.3572 S.o2       1 <1>        0.000
      2 O1         -3.5812    3.3338   -2.7215 O.2        1 <1>        0.000
      3 O2         -5.3192    2.9453   -0.8242 O.2        1 <1>        0.000
      4 N1         -3.0059    2.1737   -0.5966 N.am       1 <1>        0.000
      5 C1         -3.2041    0.8979   -0.2619 C.2        1 <1>        0.000
      6 N2         -2.2753    0.1276    0.3401 N.pl3      1 <1>        0.000
      7 N4         -4.4116    0.3361   -0.5612 N.2        1 <1>        0.000
      8 H          -4.0106    4.4722   -1.1536 H.spc      1 <1>        0.000
      9 H          -2.1033    2.5692   -0.3333 H.spc      1 <1>        0.000
     10 H          -2.4846   -0.8463    0.5592 H.spc      1 <1>        0.000
     11 H          -1.3634    0.5189    0.5763 H.spc      1 <1>        0.000
     12 H          -4.5910   -0.6409   -0.3294 H.spc      1 <1>        0.000
@<TRIPOS>BOND
     1    1    2 2  
     2    1    3 2  
     3    1    4 1  
     4    4    5 1  
     5    5    6 1  
     6    5    7 2  
     7    1    8 1  
     8    4    9 1  
     9    6   10 1  
    10    6   11 1  
    11    7   12 1  
# Name:          frag3-225-4/31924
# Creation time: Sat Jun  5 12:52:23 2010


@<TRIPOS>MOLECULE
frag3-225-4/31924
   12    11     1     1     1
SMALL
USER_CHARGES


@<TRIPOS>ATOM
      1 S1         -4.2558    3.0550   -1.3490 S.o2       1 <1>        0.000
      2 O1         -4.7393    3.9782   -0.3593 O.2        1 <1>        0.000
      3 O2         -3.0501    3.0903   -2.1303 O.2        1 <1>        0.000
      4 N1         -4.4491    1.5520   -0.8483 N.am       1 <1>        0.000
      5 C1         -3.4692    0.7015   -0.5335 C.2        1 <1>        0.000
      6 N2         -2.2209    1.2260   -0.3355 N.pl3      1 <1>        0.000
      7 N4         -3.6170   -0.6305   -0.4267 N.2        1 <1>        0.000
      8 H          -5.0281    3.6115   -2.2778 H.spc      1 <1>        0.000
      9 H          -5.4064    1.2108   -0.7610 H.spc      1 <1>        0.000
     10 H          -1.4382    0.6104   -0.1145 H.spc      1 <1>        0.000
     11 H          -2.0731    2.2326   -0.4089 H.spc      1 <1>        0.000
     12 H          -2.8124   -1.2167   -0.2043 H.spc      1 <1>        0.000
@<TRIPOS>BOND
     1    1    2 2  
     2    1    3 2  
     3    1    4 1  
     4    4    5 1  
     5    5    6 1  
     6    5    7 2  
     7    1    8 1  
     8    4    9 1  
     9    6   10 1  
    10    6   11 1  
    11    7   12 1  
# Name:          frag3-225-4/31924
# Creation time: Sat Jun  5 12:52:23 2010


@<TRIPOS>MOLECULE
frag3-225-4/31924
   12    11     1     1     1
SMALL
USER_CHARGES


@<TRIPOS>ATOM
      1 S1         -3.9536    3.1257   -1.3457 S.o2       1 <1>        0.000
      2 O1         -4.2605    3.7250   -2.6178 O.2        1 <1>        0.000
      3 O2         -4.5990    3.2274   -0.0687 O.2        1 <1>        0.000
      4 N1         -3.4352    1.6252   -1.4922 N.am       1 <1>        0.000
      5 C1         -3.2409    0.7193   -0.5152 C.2        1 <1>        0.000
      6 N2         -3.2964    1.1406    0.7938 N.pl3      1 <1>        0.000
      7 N4         -3.0160   -0.5909   -0.7367 N.2        1 <1>        0.000
      8 H          -3.1682    4.1805   -1.1471 H.spc      1 <1>        0.000
      9 H          -3.2254    1.3139   -2.4406 H.spc      1 <1>        0.000
     10 H          -3.1694    0.4695    1.5514 H.spc      1 <1>        0.000
     11 H          -3.4646    2.1239    1.0064 H.spc      1 <1>        0.000
     12 H          -2.8945   -1.2278    0.0507 H.spc      1 <1>        0.000
@<TRIPOS>BOND
     1    1    2 2  
     2    1    3 2  
     3    1    4 1  
     4    4    5 1  
     5    5    6 1  
     6    5    7 2  
     7    1    8 1  
     8    4    9 1  
     9    6   10 1  
    10    6   11 1  
    11    7   12 1  
# Name:          frag3-225-4/31924 -- energy: -0.631993
# Creation time: Sat Jun  5 12:52:23 2010


@<TRIPOS>MOLECULE
frag3-225-4/31924 -- energy: -0.631993
   12    11     1     1     1
SMALL
USER_CHARGES


@<TRIPOS>ATOM
      1 S1         -4.0548    3.1599   -1.3050 S.o2       1 <1>        0.000
      2 O1         -4.0280    2.5630   -2.6117 O.2        1 <1>        0.000
      3 O2         -5.1361    3.7985   -0.6028 O.2        1 <1>        0.000
      4 N1         -3.2342    2.2099   -0.3209 N.am       1 <1>        0.000
      5 C1         -3.1319    0.8783   -0.3503 C.2        1 <1>        0.000
      6 N2         -2.5214    0.1529    0.6083 N.pl3      1 <1>        0.000
      7 N4         -3.6949    0.2100   -1.4000 N.2        1 <1>        0.000
      8 H          -3.5998    4.3414   -1.7124 H.spc      1 <1>        0.000
      9 H          -2.7222    2.6791    0.4262 H.spc      1 <1>        0.000
     10 H          -2.4901   -0.8641    0.5361 H.spc      1 <1>        0.000
     11 H          -2.0909    0.6211    1.4057 H.spc      1 <1>        0.000
     12 H          -3.6458   -0.8080   -1.4418 H.spc      1 <1>        0.000
@<TRIPOS>BOND
     1    1    2 2  
     2    1    3 2  
     3    1    4 1  
     4    4    5 1  
     5    5    6 1  
     6    5    7 2  
     7    1    8 1  
     8    4    9 1  
     9    6   10 1  
    10    6   11 1  
    11    7   12 1  
# Name:          frag3-225-4/31924 -- energy: -0.755970
# Creation time: Sat Jun  5 12:52:24 2010


@<TRIPOS>MOLECULE
frag3-225-4/31924 -- energy: -0.755970
   12    11     1     1     1
SMALL
USER_CHARGES


@<TRIPOS>ATOM
      1 S1         -4.0041    3.1579   -1.3572 S.o2       1 <1>        0.000
      2 O1         -3.5812    3.3338   -2.7215 O.2        1 <1>        0.000
      3 O2         -5.3192    2.9453   -0.8242 O.2        1 <1>        0.000
      4 N1         -3.0059    2.1737   -0.5966 N.am       1 <1>        0.000
      5 C1         -3.2041    0.8979   -0.2619 C.2        1 <1>        0.000
      6 N2         -2.2753    0.1276    0.3401 N.pl3      1 <1>        0.000
      7 N4         -4.4116    0.3361   -0.5612 N.2        1 <1>        0.000
      8 H          -4.0106    4.4722   -1.1536 H.spc      1 <1>        0.000
      9 H          -2.1033    2.5692   -0.3333 H.spc      1 <1>        0.000
     10 H          -2.4846   -0.8463    0.5592 H.spc      1 <1>        0.000
     11 H          -1.3634    0.5189    0.5763 H.spc      1 <1>        0.000
     12 H          -4.5910   -0.6409   -0.3294 H.spc      1 <1>        0.000
@<TRIPOS>BOND
     1    1    2 2  
     2    1    3 2  
     3    1    4 1  
     4    4    5 1  
     5    5    6 1  
     6    5    7 2  
     7    1    8 1  
     8    4    9 1  
     9    6   10 1  
    10    6   11 1  
    11    7   12 1  
# Name:          frag3-225-4/31924 -- energy: 0.011806
# Creation time: Sat Jun  5 12:52:24 2010


@<TRIPOS>MOLECULE
frag3-225-4/31924 -- energy: 0.011806
   12    11     1     1     1
SMALL
USER_CHARGES


@<TRIPOS>ATOM
      1 S1         -4.2558    3.0550   -1.3490 S.o2       1 <1>        0.000
      2 O1         -4.7393    3.9782   -0.3593 O.2        1 <1>        0.000
      3 O2         -3.0501    3.0903   -2.1303 O.2        1 <1>        0.000
      4 N1         -4.4491    1.5520   -0.8483 N.am       1 <1>        0.000
      5 C1         -3.4692    0.7015   -0.5335 C.2        1 <1>        0.000
      6 N2         -2.2209    1.2260   -0.3355 N.pl3      1 <1>        0.000
      7 N4         -3.6170   -0.6305   -0.4267 N.2        1 <1>        0.000
      8 H          -5.0281    3.6115   -2.2778 H.spc      1 <1>        0.000
      9 H          -5.4064    1.2108   -0.7610 H.spc      1 <1>        0.000
     10 H          -1.4382    0.6104   -0.1145 H.spc      1 <1>        0.000
     11 H          -2.0731    2.2326   -0.4089 H.spc      1 <1>        0.000
     12 H          -2.8124   -1.2167   -0.2043 H.spc      1 <1>        0.000
@<TRIPOS>BOND
     1    1    2 2  
     2    1    3 2  
     3    1    4 1  
     4    4    5 1  
     5    5    6 1  
     6    5    7 2  
     7    1    8 1  
     8    4    9 1  
     9    6   10 1  
    10    6   11 1  
    11    7   12 1  
