#      Rotatable Fragment
#      Build by yxyuan
#
# Name:          frag5-520-338/138278
# Creation time: Sat Jun  5 12:53:40 2010


@<TRIPOS>MOLECULE
frag5-520-338/138278
   28    29     1     1     1
SMALL
USER_CHARGES


@<TRIPOS>ATOM
      1 N3          0.1937   -0.9095   -0.4493 N.4        1 <1>        0.000
      2 C10        -0.4673    0.4105   -0.4424 C.3        1 <1>        0.000
      3 C11         0.8094   -1.2105    0.8736 C.3        1 <1>        0.000
      4 C12         0.5439    1.5336   -0.2144 C.3        1 <1>        0.000
      5 C13         1.5378   -0.0040    1.4747 C.3        1 <1>        0.000
      6 N4          1.7102    1.0698    0.5105 N.pl3      1 <1>        0.000
      7 C14         2.9341    1.5643    0.2568 C.ar       1 <1>        0.000
      8 C15         4.0548    0.6900    0.1281 C.ar       1 <1>        0.000
      9 C16         3.1440    2.9389    0.0975 C.ar       1 <1>        0.000
     10 C17         5.3224    1.2535   -0.0397 C.ar       1 <1>        0.000
     11 O3          3.8462   -0.6667    0.1815 O.3        1 <1>        0.000
     12 C18         4.4009    3.4695   -0.1072 C.ar       1 <1>        0.000
     13 C19         5.5008    2.6205   -0.1921 C.ar       1 <1>        0.000
     14 H          -0.5062   -1.6231   -0.6526 H.spc      1 <1>        0.000
     15 H           0.9288   -0.9019   -1.1564 H.spc      1 <1>        0.000
     16 H          -1.1973    0.4299    0.3668 H.spc      1 <1>        0.000
     17 H          -0.9466    0.5647   -1.4092 H.spc      1 <1>        0.000
     18 H           0.0100   -1.4941    1.5582 H.spc      1 <1>        0.000
     19 H           1.5411   -2.0054    0.7292 H.spc      1 <1>        0.000
     20 H           0.8698    1.9034   -1.1866 H.spc      1 <1>        0.000
     21 H           0.0621    2.3135    0.3752 H.spc      1 <1>        0.000
     22 H           2.5260   -0.3312    1.7981 H.spc      1 <1>        0.000
     23 H           0.9385    0.3762    2.3020 H.spc      1 <1>        0.000
     24 H           2.2872    3.6115    0.1364 H.spc      1 <1>        0.000
     25 H           6.1952    0.6007   -0.0511 H.spc      1 <1>        0.000
     26 H           4.6851   -1.1225    0.0813 H.spc      1 <1>        0.000
     27 H           4.5320    4.5474   -0.2019 H.spc      1 <1>        0.000
     28 H           6.4951    3.0271   -0.3770 H.spc      1 <1>        0.000
@<TRIPOS>BOND
     1    8   11 1  
     2    3    5 1  
     3   10   13 ar 
     4    9   12 ar 
     5    4    6 1  
     6    1    3 1  
     7    5    6 1  
     8    1    2 1  
     9    7    9 ar 
    10    6    7 1  
    11    7    8 ar 
    12   12   13 ar 
    13    2    4 1  
    14    8   10 ar 
    15    1   14 1  
    16    1   15 1  
    17    2   16 1  
    18    2   17 1  
    19    3   18 1  
    20    3   19 1  
    21    4   20 1  
    22    4   21 1  
    23    5   22 1  
    24    5   23 1  
    25    9   24 1  
    26   10   25 1  
    27   11   26 1  
    28   12   27 1  
    29   13   28 1  
# Name:          frag5-520-338/138278 -- energy: -1.904243
# Creation time: Sat Jun  5 12:53:40 2010


@<TRIPOS>MOLECULE
frag5-520-338/138278 -- energy: -1.904243
   28    29     1     1     1
SMALL
USER_CHARGES


@<TRIPOS>ATOM
      1 N3          0.1937   -0.9095   -0.4493 N.4        1 <1>        0.000
      2 C10        -0.4673    0.4105   -0.4424 C.3        1 <1>        0.000
      3 C11         0.8094   -1.2105    0.8736 C.3        1 <1>        0.000
      4 C12         0.5439    1.5336   -0.2144 C.3        1 <1>        0.000
      5 C13         1.5378   -0.0040    1.4747 C.3        1 <1>        0.000
      6 N4          1.7102    1.0698    0.5105 N.pl3      1 <1>        0.000
      7 C14         2.9341    1.5643    0.2568 C.ar       1 <1>        0.000
      8 C15         4.0548    0.6900    0.1281 C.ar       1 <1>        0.000
      9 C16         3.1440    2.9389    0.0975 C.ar       1 <1>        0.000
     10 C17         5.3224    1.2535   -0.0397 C.ar       1 <1>        0.000
     11 O3          3.8462   -0.6667    0.1815 O.3        1 <1>        0.000
     12 C18         4.4009    3.4695   -0.1072 C.ar       1 <1>        0.000
     13 C19         5.5008    2.6205   -0.1921 C.ar       1 <1>        0.000
     14 H          -0.5062   -1.6231   -0.6526 H.spc      1 <1>        0.000
     15 H           0.9288   -0.9019   -1.1564 H.spc      1 <1>        0.000
     16 H          -1.1973    0.4299    0.3668 H.spc      1 <1>        0.000
     17 H          -0.9466    0.5647   -1.4092 H.spc      1 <1>        0.000
     18 H           0.0100   -1.4941    1.5582 H.spc      1 <1>        0.000
     19 H           1.5411   -2.0054    0.7292 H.spc      1 <1>        0.000
     20 H           0.8698    1.9034   -1.1866 H.spc      1 <1>        0.000
     21 H           0.0621    2.3135    0.3752 H.spc      1 <1>        0.000
     22 H           2.5260   -0.3312    1.7981 H.spc      1 <1>        0.000
     23 H           0.9385    0.3762    2.3020 H.spc      1 <1>        0.000
     24 H           2.2872    3.6115    0.1364 H.spc      1 <1>        0.000
     25 H           6.1952    0.6007   -0.0511 H.spc      1 <1>        0.000
     26 H           4.6851   -1.1225    0.0813 H.spc      1 <1>        0.000
     27 H           4.5320    4.5474   -0.2019 H.spc      1 <1>        0.000
     28 H           6.4951    3.0271   -0.3770 H.spc      1 <1>        0.000
@<TRIPOS>BOND
     1    8   11 1  
     2    3    5 1  
     3   10   13 ar 
     4    9   12 ar 
     5    4    6 1  
     6    1    3 1  
     7    5    6 1  
     8    1    2 1  
     9    7    9 ar 
    10    6    7 1  
    11    7    8 ar 
    12   12   13 ar 
    13    2    4 1  
    14    8   10 ar 
    15    1   14 1  
    16    1   15 1  
    17    2   16 1  
    18    2   17 1  
    19    3   18 1  
    20    3   19 1  
    21    4   20 1  
    22    4   21 1  
    23    5   22 1  
    24    5   23 1  
    25    9   24 1  
    26   10   25 1  
    27   11   26 1  
    28   12   27 1  
    29   13   28 1  
