#      Rotatable Fragment
#      Build by yxyuan
#
# Name:          frag5-549-62/41815
# Creation time: Sat Jun  5 12:52:53 2010


@<TRIPOS>MOLECULE
frag5-549-62/41815
   19    20     1     1     1
SMALL
USER_CHARGES


@<TRIPOS>ATOM
      1 O1          3.4188    1.2807    0.0210 O.3        1 <1>        0.000
      2 C4          2.1992    0.6015    0.0131 C.ar       1 <1>        0.000
      3 C5          1.0037    1.3176   -0.0313 C.ar       1 <1>        0.000
      4 C6         -0.2324    0.6445   -0.0383 C.ar       1 <1>        0.000
      5 C7         -0.2643   -0.7556   -0.0045 C.ar       1 <1>        0.000
      6 C8          0.9426   -1.4695    0.0399 C.ar       1 <1>        0.000
      7 C9          2.1696   -0.7914    0.0496 C.ar       1 <1>        0.000
      8 C10        -1.4977   -1.4213   -0.0137 C.ar       1 <1>        0.000
      9 C11        -2.6866   -0.6994   -0.0519 C.ar       1 <1>        0.000
     10 C12        -2.6583    0.6896   -0.0839 C.ar       1 <1>        0.000
     11 C13        -1.4375    1.3615   -0.0794 C.ar       1 <1>        0.000
     12 H           4.1375    0.6451    0.0531 H.spc      1 <1>        0.000
     13 H           1.0265    2.4070   -0.0608 H.spc      1 <1>        0.000
     14 H           0.9262   -2.5590    0.0670 H.spc      1 <1>        0.000
     15 H           3.1021   -1.3546    0.0858 H.spc      1 <1>        0.000
     16 H          -1.5257   -2.5107    0.0092 H.spc      1 <1>        0.000
     17 H          -3.6419   -1.2243   -0.0567 H.spc      1 <1>        0.000
     18 H          -3.5907    1.2534   -0.1125 H.spc      1 <1>        0.000
     19 H          -1.4188    2.4510   -0.1080 H.spc      1 <1>        0.000
@<TRIPOS>BOND
     1    4    5 ar 
     2    6    7 ar 
     3   10   11 ar 
     4    5    8 ar 
     5    9   10 ar 
     6    8    9 ar 
     7    4   11 ar 
     8    5    6 ar 
     9    1    2 1  
    10    2    3 ar 
    11    2    7 ar 
    12    3    4 ar 
    13    1   12 1  
    14    3   13 1  
    15    6   14 1  
    16    7   15 1  
    17    8   16 1  
    18    9   17 1  
    19   10   18 1  
    20   11   19 1  
# Name:          frag5-549-62/41815 -- energy: -0.420834
# Creation time: Sat Jun  5 12:52:53 2010


@<TRIPOS>MOLECULE
frag5-549-62/41815 -- energy: -0.420834
   19    20     1     1     1
SMALL
USER_CHARGES


@<TRIPOS>ATOM
      1 O1          3.4188    1.2807    0.0210 O.3        1 <1>        0.000
      2 C4          2.1992    0.6015    0.0131 C.ar       1 <1>        0.000
      3 C5          1.0037    1.3176   -0.0313 C.ar       1 <1>        0.000
      4 C6         -0.2324    0.6445   -0.0383 C.ar       1 <1>        0.000
      5 C7         -0.2643   -0.7556   -0.0045 C.ar       1 <1>        0.000
      6 C8          0.9426   -1.4695    0.0399 C.ar       1 <1>        0.000
      7 C9          2.1696   -0.7914    0.0496 C.ar       1 <1>        0.000
      8 C10        -1.4977   -1.4213   -0.0137 C.ar       1 <1>        0.000
      9 C11        -2.6866   -0.6994   -0.0519 C.ar       1 <1>        0.000
     10 C12        -2.6583    0.6896   -0.0839 C.ar       1 <1>        0.000
     11 C13        -1.4375    1.3615   -0.0794 C.ar       1 <1>        0.000
     12 H           4.1375    0.6451    0.0531 H.spc      1 <1>        0.000
     13 H           1.0265    2.4070   -0.0608 H.spc      1 <1>        0.000
     14 H           0.9262   -2.5590    0.0670 H.spc      1 <1>        0.000
     15 H           3.1021   -1.3546    0.0858 H.spc      1 <1>        0.000
     16 H          -1.5257   -2.5107    0.0092 H.spc      1 <1>        0.000
     17 H          -3.6419   -1.2243   -0.0567 H.spc      1 <1>        0.000
     18 H          -3.5907    1.2534   -0.1125 H.spc      1 <1>        0.000
     19 H          -1.4188    2.4510   -0.1080 H.spc      1 <1>        0.000
@<TRIPOS>BOND
     1    4    5 ar 
     2    6    7 ar 
     3   10   11 ar 
     4    5    8 ar 
     5    9   10 ar 
     6    8    9 ar 
     7    4   11 ar 
     8    5    6 ar 
     9    1    2 1  
    10    2    3 ar 
    11    2    7 ar 
    12    3    4 ar 
    13    1   12 1  
    14    3   13 1  
    15    6   14 1  
    16    7   15 1  
    17    8   16 1  
    18    9   17 1  
    19   10   18 1  
    20   11   19 1  
