#      Rotatable Fragment
#      Build by yxyuan
#
# Name:          frag3-243-5/96164
# Creation time: Sat Jun  5 12:53:16 2010


@<TRIPOS>MOLECULE
frag3-243-5/96164
   12    11     1     1     1
SMALL
USER_CHARGES


@<TRIPOS>ATOM
      1 O10        -0.2415    3.3852   -0.8593 O.3        1 <1>        0.000
      2 C43        -1.3547    2.7791   -0.4825 C.2        1 <1>        0.000
      3 N2         -1.0728    1.4895   -0.3203 N.am       1 <1>        0.000
      4 O13        -2.4460    3.2983   -0.2966 O.2        1 <1>        0.000
      5 P1         -1.9860    0.4482    0.4159 P.3        1 <1>        0.000
      6 O15        -3.1328    0.0738   -0.5722 O.3        1 <1>        0.000
      7 O16        -2.6936    1.1152    1.6167 O.3        1 <1>        0.000
      8 O17        -1.1968   -0.6122    0.9774 O.2        1 <1>        0.000
      9 H           0.4654    2.7394   -0.9287 H.spc      1 <1>        0.000
     10 H          -0.1915    1.1502   -0.7058 H.spc      1 <1>        0.000
     11 H          -3.5736    0.8740   -0.8671 H.spc      1 <1>        0.000
     12 H          -3.2412    1.8384    1.3026 H.spc      1 <1>        0.000
@<TRIPOS>BOND
     1    1    2 1  
     2    2    3 am 
     3    2    4 2  
     4    3    5 1  
     5    5    6 1  
     6    5    7 1  
     7    5    8 2  
     8    1    9 1  
     9    3   10 1  
    10    6   11 1  
    11    7   12 1  
# Name:          frag3-243-5/96164
# Creation time: Sat Jun  5 12:53:16 2010


@<TRIPOS>MOLECULE
frag3-243-5/96164
   12    11     1     1     1
SMALL
USER_CHARGES


@<TRIPOS>ATOM
      1 O10        -0.7868    2.9098    0.6403 O.3        1 <1>        0.000
      2 C43        -1.3830    2.8432   -0.6217 C.2        1 <1>        0.000
      3 N2         -1.9731    1.6408   -0.7049 N.am       1 <1>        0.000
      4 O13        -1.4937    3.7334   -1.4703 O.2        1 <1>        0.000
      5 P1         -2.0514    0.5089    0.3713 P.3        1 <1>        0.000
      6 O15        -3.2364   -0.4581    0.0664 O.3        1 <1>        0.000
      7 O16        -2.3452    1.0987    1.7864 O.3        1 <1>        0.000
      8 O17        -0.8546   -0.2997    0.4116 O.2        1 <1>        0.000
      9 H          -0.8558    2.0547    1.0711 H.spc      1 <1>        0.000
     10 H          -2.4338    1.4372   -1.5919 H.spc      1 <1>        0.000
     11 H          -4.0551    0.0420    0.0309 H.spc      1 <1>        0.000
     12 H          -3.1413    1.6339    1.7498 H.spc      1 <1>        0.000
@<TRIPOS>BOND
     1    1    2 1  
     2    2    3 am 
     3    2    4 2  
     4    3    5 1  
     5    5    6 1  
     6    5    7 1  
     7    5    8 2  
     8    1    9 1  
     9    3   10 1  
    10    6   11 1  
    11    7   12 1  
# Name:          frag3-243-5/96164
# Creation time: Sat Jun  5 12:53:16 2010


@<TRIPOS>MOLECULE
frag3-243-5/96164
   12    11     1     1     1
SMALL
USER_CHARGES


@<TRIPOS>ATOM
      1 O10        -0.7484    3.8392   -0.3566 O.3        1 <1>        0.000
      2 C43        -1.2213    2.6401   -0.6563 C.2        1 <1>        0.000
      3 N2         -1.6490    2.1247    0.4918 N.am       1 <1>        0.000
      4 O13        -1.1764    2.0637   -1.7357 O.2        1 <1>        0.000
      5 P1         -2.1633    0.6482    0.6435 P.3        1 <1>        0.000
      6 O15        -3.4759    0.4857   -0.1588 O.3        1 <1>        0.000
      7 O16        -2.4888    0.4547    2.1493 O.3        1 <1>        0.000
      8 O17        -1.2010   -0.2793    0.1018 O.2        1 <1>        0.000
      9 H          -0.9276    4.0310    0.5668 H.spc      1 <1>        0.000
     10 H          -1.6429    2.7205    1.3197 H.spc      1 <1>        0.000
     11 H          -4.1357    1.0938    0.1826 H.spc      1 <1>        0.000
     12 H          -3.1339    1.1108    2.4230 H.spc      1 <1>        0.000
@<TRIPOS>BOND
     1    1    2 1  
     2    2    3 am 
     3    2    4 2  
     4    3    5 1  
     5    5    6 1  
     6    5    7 1  
     7    5    8 2  
     8    1    9 1  
     9    3   10 1  
    10    6   11 1  
    11    7   12 1  
# Name:          frag3-243-5/96164 -- energy: 1.157725
# Creation time: Sat Jun  5 12:53:16 2010


@<TRIPOS>MOLECULE
frag3-243-5/96164 -- energy: 1.157725
   12    11     1     1     1
SMALL
USER_CHARGES


@<TRIPOS>ATOM
      1 O10        -0.2415    3.3852   -0.8593 O.3        1 <1>        0.000
      2 C43        -1.3547    2.7791   -0.4825 C.2        1 <1>        0.000
      3 N2         -1.0728    1.4895   -0.3203 N.am       1 <1>        0.000
      4 O13        -2.4460    3.2983   -0.2966 O.2        1 <1>        0.000
      5 P1         -1.9860    0.4482    0.4159 P.3        1 <1>        0.000
      6 O15        -3.1328    0.0738   -0.5722 O.3        1 <1>        0.000
      7 O16        -2.6936    1.1152    1.6167 O.3        1 <1>        0.000
      8 O17        -1.1968   -0.6122    0.9774 O.2        1 <1>        0.000
      9 H           0.4654    2.7394   -0.9287 H.spc      1 <1>        0.000
     10 H          -0.1915    1.1502   -0.7058 H.spc      1 <1>        0.000
     11 H          -3.5736    0.8740   -0.8671 H.spc      1 <1>        0.000
     12 H          -3.2412    1.8384    1.3026 H.spc      1 <1>        0.000
@<TRIPOS>BOND
     1    1    2 1  
     2    2    3 am 
     3    2    4 2  
     4    3    5 1  
     5    5    6 1  
     6    5    7 1  
     7    5    8 2  
     8    1    9 1  
     9    3   10 1  
    10    6   11 1  
    11    7   12 1  
# Name:          frag3-243-5/96164 -- energy: 2.329213
# Creation time: Sat Jun  5 12:53:16 2010


@<TRIPOS>MOLECULE
frag3-243-5/96164 -- energy: 2.329213
   12    11     1     1     1
SMALL
USER_CHARGES


@<TRIPOS>ATOM
      1 O10        -0.7484    3.8392   -0.3566 O.3        1 <1>        0.000
      2 C43        -1.2213    2.6401   -0.6563 C.2        1 <1>        0.000
      3 N2         -1.6490    2.1247    0.4918 N.am       1 <1>        0.000
      4 O13        -1.1764    2.0637   -1.7357 O.2        1 <1>        0.000
      5 P1         -2.1633    0.6482    0.6435 P.3        1 <1>        0.000
      6 O15        -3.4759    0.4857   -0.1588 O.3        1 <1>        0.000
      7 O16        -2.4888    0.4547    2.1493 O.3        1 <1>        0.000
      8 O17        -1.2010   -0.2793    0.1018 O.2        1 <1>        0.000
      9 H          -0.9276    4.0310    0.5668 H.spc      1 <1>        0.000
     10 H          -1.6429    2.7205    1.3197 H.spc      1 <1>        0.000
     11 H          -4.1357    1.0938    0.1826 H.spc      1 <1>        0.000
     12 H          -3.1339    1.1108    2.4230 H.spc      1 <1>        0.000
@<TRIPOS>BOND
     1    1    2 1  
     2    2    3 am 
     3    2    4 2  
     4    3    5 1  
     5    5    6 1  
     6    5    7 1  
     7    5    8 2  
     8    1    9 1  
     9    3   10 1  
    10    6   11 1  
    11    7   12 1  
