#      Rotatable Fragment
#      Build by yxyuan
#
# Name:          frag3-107-207/96164
# Creation time: Sat Jun  5 12:53:43 2010


@<TRIPOS>MOLECULE
frag3-107-207/96164
    9     8     1     1     1
SMALL
USER_CHARGES


@<TRIPOS>ATOM
      1 C1         -0.6256    0.4769    0.0757 C.2        1 <1>        0.000
      2 C2          0.7897    0.4487    0.4458 C.2        1 <1>        0.000
      3 C4         -1.2383   -0.5580   -0.4965 C.2        1 <1>        0.000
      4 O1          1.4203   -0.7142    0.2992 O.3        1 <1>        0.000
      5 O2          1.3250    1.4155    0.9515 O.2        1 <1>        0.000
      6 H          -1.2012    1.3805    0.2762 H.spc      1 <1>        0.000
      7 H          -0.6829   -1.4721   -0.7065 H.spc      1 <1>        0.000
      8 H          -2.2951   -0.4909   -0.7547 H.spc      1 <1>        0.000
      9 H           0.8306   -1.3463   -0.1183 H.spc      1 <1>        0.000
@<TRIPOS>BOND
     1    1    2 1  
     2    1    3 2  
     3    2    4 1  
     4    2    5 2  
     5    1    6 1  
     6    3    7 1  
     7    3    8 1  
     8    4    9 1  
# Name:          frag3-107-207/96164
# Creation time: Sat Jun  5 12:53:43 2010


@<TRIPOS>MOLECULE
frag3-107-207/96164
    9     8     1     1     1
SMALL
USER_CHARGES


@<TRIPOS>ATOM
      1 C1         -0.3539   -0.2835   -0.2827 C.2        1 <1>        0.000
      2 C2          0.8329    0.2439    0.3983 C.2        1 <1>        0.000
      3 C4         -1.5368    0.3310   -0.1601 C.2        1 <1>        0.000
      4 O1          1.8741   -0.5915    0.4476 O.3        1 <1>        0.000
      5 O2          0.8548    1.3691    0.8725 O.2        1 <1>        0.000
      6 H          -0.2722   -1.1827   -0.8933 H.spc      1 <1>        0.000
      7 H          -1.6231    1.2305    0.4495 H.spc      1 <1>        0.000
      8 H          -2.4137   -0.0681   -0.6699 H.spc      1 <1>        0.000
      9 H           1.6410   -1.4173    0.0172 H.spc      1 <1>        0.000
@<TRIPOS>BOND
     1    1    2 1  
     2    1    3 2  
     3    2    4 1  
     4    2    5 2  
     5    1    6 1  
     6    3    7 1  
     7    3    8 1  
     8    4    9 1  
# Name:          frag3-107-207/96164 -- energy: -0.019246
# Creation time: Sat Jun  5 12:53:43 2010


@<TRIPOS>MOLECULE
frag3-107-207/96164 -- energy: -0.019246
    9     8     1     1     1
SMALL
USER_CHARGES


@<TRIPOS>ATOM
      1 C1         -0.3539   -0.2835   -0.2827 C.2        1 <1>        0.000
      2 C2          0.8329    0.2439    0.3983 C.2        1 <1>        0.000
      3 C4         -1.5368    0.3310   -0.1601 C.2        1 <1>        0.000
      4 O1          1.8741   -0.5915    0.4476 O.3        1 <1>        0.000
      5 O2          0.8548    1.3691    0.8725 O.2        1 <1>        0.000
      6 H          -0.2722   -1.1827   -0.8933 H.spc      1 <1>        0.000
      7 H          -1.6231    1.2305    0.4495 H.spc      1 <1>        0.000
      8 H          -2.4137   -0.0681   -0.6699 H.spc      1 <1>        0.000
      9 H           1.6410   -1.4173    0.0172 H.spc      1 <1>        0.000
@<TRIPOS>BOND
     1    1    2 1  
     2    1    3 2  
     3    2    4 1  
     4    2    5 2  
     5    1    6 1  
     6    3    7 1  
     7    3    8 1  
     8    4    9 1  
