#      Rotatable Fragment
#      Build by yxyuan
#
# Name:          frag5-620-90/138278
# Creation time: Sat Jun  5 12:53:48 2010


@<TRIPOS>MOLECULE
frag5-620-90/138278
   15    16     1     1     1
SMALL
USER_CHARGES


@<TRIPOS>ATOM
      1 C1          0.8479   -0.3985   -0.0459 C.2        1 <1>        0.000
      2 C2          2.1836   -0.2636    0.0142 C.2        1 <1>        0.000
      3 C3          0.4594    1.0046    0.0440 C.2        1 <1>        0.000
      4 C4         -0.1250   -1.4405   -0.1825 C.2        1 <1>        0.000
      5 N1          2.5375    1.0266    0.1165 N.2        1 <1>        0.000
      6 O1          1.5516    1.7606    0.0940 O.3        1 <1>        0.000
      7 C6         -0.8128    1.3830    0.1121 C.2        1 <1>        0.000
      8 C7         -1.4289   -1.0825   -0.1209 C.2        1 <1>        0.000
      9 C10        -1.8464    0.3346    0.0730 C.3        1 <1>        0.000
     10 F1         -3.1335    0.6717    0.1993 F          1 <1>        0.000
     11 H           2.8882   -1.0947   -0.0162 H.spc      1 <1>        0.000
     12 H           0.1722   -2.4788   -0.3300 H.spc      1 <1>        0.000
     13 H          -1.0827    2.4359    0.1943 H.spc      1 <1>        0.000
     14 H          -2.1948   -1.8523   -0.2158 H.spc      1 <1>        0.000
     15 H          -2.6825   -0.2388    0.4733 H.spc      1 <1>        0.000
@<TRIPOS>BOND
     1    9   10 1  
     2    1    2 2  
     3    1    3 1  
     4    1    4 1  
     5    2    5 1  
     6    3    7 2  
     7    3    6 1  
     8    4    8 2  
     9    5    6 2  
    10    7    9 1  
    11    8    9 1  
    12    2   11 1  
    13    4   12 1  
    14    7   13 1  
    15    8   14 1  
    16    9   15 1  
# Name:          frag5-620-90/138278 -- energy: -0.376948
# Creation time: Sat Jun  5 12:53:48 2010


@<TRIPOS>MOLECULE
frag5-620-90/138278 -- energy: -0.376948
   15    16     1     1     1
SMALL
USER_CHARGES


@<TRIPOS>ATOM
      1 C1          0.8479   -0.3985   -0.0459 C.2        1 <1>        0.000
      2 C2          2.1836   -0.2636    0.0142 C.2        1 <1>        0.000
      3 C3          0.4594    1.0046    0.0440 C.2        1 <1>        0.000
      4 C4         -0.1250   -1.4405   -0.1825 C.2        1 <1>        0.000
      5 N1          2.5375    1.0266    0.1165 N.2        1 <1>        0.000
      6 O1          1.5516    1.7606    0.0940 O.3        1 <1>        0.000
      7 C6         -0.8128    1.3830    0.1121 C.2        1 <1>        0.000
      8 C7         -1.4289   -1.0825   -0.1209 C.2        1 <1>        0.000
      9 C10        -1.8464    0.3346    0.0730 C.3        1 <1>        0.000
     10 F1         -3.1335    0.6717    0.1993 F          1 <1>        0.000
     11 H           2.8882   -1.0947   -0.0162 H.spc      1 <1>        0.000
     12 H           0.1722   -2.4788   -0.3300 H.spc      1 <1>        0.000
     13 H          -1.0827    2.4359    0.1943 H.spc      1 <1>        0.000
     14 H          -2.1948   -1.8523   -0.2158 H.spc      1 <1>        0.000
     15 H          -2.6825   -0.2388    0.4733 H.spc      1 <1>        0.000
@<TRIPOS>BOND
     1    9   10 1  
     2    1    2 2  
     3    1    3 1  
     4    1    4 1  
     5    2    5 1  
     6    3    7 2  
     7    3    6 1  
     8    4    8 2  
     9    5    6 2  
    10    7    9 1  
    11    8    9 1  
    12    2   11 1  
    13    4   12 1  
    14    7   13 1  
    15    8   14 1  
    16    9   15 1  
