#      Rotatable Fragment
#      Build by yxyuan
#
# Name:          frag5-548-187/138278
# Creation time: Sat Jun  5 12:53:42 2010


@<TRIPOS>MOLECULE
frag5-548-187/138278
   12    12     1     1     1
SMALL
USER_CHARGES


@<TRIPOS>ATOM
      1 C3          0.8850   -1.0777    0.0666 C.ar       1 <1>        0.000
      2 C7          1.3429    0.2381   -0.0371 C.ar       1 <1>        0.000
      3 C8         -0.4835   -1.3394    0.1053 C.ar       1 <1>        0.000
      4 C12         0.4264    1.2920   -0.1010 C.ar       1 <1>        0.000
      5 F1          2.6646    0.4950   -0.0756 F          1 <1>        0.000
      6 C13        -1.3969   -0.2878    0.0418 C.ar       1 <1>        0.000
      7 C15        -0.9423    1.0266   -0.0625 C.ar       1 <1>        0.000
      8 F2          0.8654    2.5617   -0.1998 F          1 <1>        0.000
      9 H           1.5984   -1.9002    0.1173 H.spc      1 <1>        0.000
     10 H          -0.8398   -2.3664    0.1852 H.spc      1 <1>        0.000
     11 H          -2.4669   -0.4931    0.0737 H.spc      1 <1>        0.000
     12 H          -1.6576    1.8475   -0.1140 H.spc      1 <1>        0.000
@<TRIPOS>BOND
     1    1    2 ar 
     2    1    3 ar 
     3    2    4 ar 
     4    2    5 1  
     5    3    6 ar 
     6    4    7 ar 
     7    4    8 1  
     8    6    7 ar 
     9    1    9 1  
    10    3   10 1  
    11    6   11 1  
    12    7   12 1  
# Name:          frag5-548-187/138278 -- energy: -0.010619
# Creation time: Sat Jun  5 12:53:42 2010


@<TRIPOS>MOLECULE
frag5-548-187/138278 -- energy: -0.010619
   12    12     1     1     1
SMALL
USER_CHARGES


@<TRIPOS>ATOM
      1 C3          0.8850   -1.0777    0.0666 C.ar       1 <1>        0.000
      2 C7          1.3429    0.2381   -0.0371 C.ar       1 <1>        0.000
      3 C8         -0.4835   -1.3394    0.1053 C.ar       1 <1>        0.000
      4 C12         0.4264    1.2920   -0.1010 C.ar       1 <1>        0.000
      5 F1          2.6646    0.4950   -0.0756 F          1 <1>        0.000
      6 C13        -1.3969   -0.2878    0.0418 C.ar       1 <1>        0.000
      7 C15        -0.9423    1.0266   -0.0625 C.ar       1 <1>        0.000
      8 F2          0.8654    2.5617   -0.1998 F          1 <1>        0.000
      9 H           1.5984   -1.9002    0.1173 H.spc      1 <1>        0.000
     10 H          -0.8398   -2.3664    0.1852 H.spc      1 <1>        0.000
     11 H          -2.4669   -0.4931    0.0737 H.spc      1 <1>        0.000
     12 H          -1.6576    1.8475   -0.1140 H.spc      1 <1>        0.000
@<TRIPOS>BOND
     1    1    2 ar 
     2    1    3 ar 
     3    2    4 ar 
     4    2    5 1  
     5    3    6 ar 
     6    4    7 ar 
     7    4    8 1  
     8    6    7 ar 
     9    1    9 1  
    10    3   10 1  
    11    6   11 1  
    12    7   12 1  
