#      Rotatable Fragment
#      Build by yxyuan
#
# Name:          frag5-679-23/41815
# Creation time: Sat Jun  5 12:53:03 2010


@<TRIPOS>MOLECULE
frag5-679-23/41815
   29    31     1     1     1
SMALL
USER_CHARGES


@<TRIPOS>ATOM
      1 C29        -4.5993   -2.9398    0.3645 C.3        1 <1>        0.000
      2 O11        -5.4515   -3.4128   -0.6096 O.3        1 <1>        0.000
      3 C30        -6.3576   -2.5679   -1.2214 C.3        1 <1>        0.000
      4 C31        -7.1689   -1.7701   -0.2284 C.3        1 <1>        0.000
      5 O12        -8.1872   -2.4902    0.4161 O.3        1 <1>        0.000
      6 C32        -8.9807   -1.8763    1.3745 C.3        1 <1>        0.000
      7 O13        -9.8107   -0.9256    0.7682 O.3        1 <1>        0.000
      8 C33        -9.8164    0.4340    1.0129 C.3        1 <1>        0.000
      9 C34        -9.7260    0.6191    2.5073 C.2        1 <1>        0.000
     10 C35        -8.9384   -0.3178    3.3580 C.3        1 <1>        0.000
     11 C36        -8.1106   -1.1924    2.4668 C.3        1 <1>        0.000
     12 O14        -7.0362   -0.5107    1.8648 O.3        1 <1>        0.000
     13 C37        -6.2743   -1.0931    0.8469 C.3        1 <1>        0.000
     14 C38        -5.3032   -2.1185    1.4074 C.3        1 <1>        0.000
     15 O15       -10.3845    1.5289    3.0696 O.2        1 <1>        0.000
     16 H          -3.8609   -2.3011   -0.1202 H.spc      1 <1>        0.000
     17 H          -4.1530   -3.8001    0.8632 H.spc      1 <1>        0.000
     18 H          -5.7976   -1.8654   -1.8387 H.spc      1 <1>        0.000
     19 H          -7.0468   -3.1797   -1.8035 H.spc      1 <1>        0.000
     20 H          -7.6533   -1.0132   -0.8453 H.spc      1 <1>        0.000
     21 H          -9.5911   -2.6428    1.8520 H.spc      1 <1>        0.000
     22 H          -8.9757    0.9170    0.5149 H.spc      1 <1>        0.000
     23 H         -10.7269    0.8900    0.6242 H.spc      1 <1>        0.000
     24 H          -9.6122   -0.9305    3.9570 H.spc      1 <1>        0.000
     25 H          -8.2910    0.2461    4.0295 H.spc      1 <1>        0.000
     26 H          -7.6862   -1.9566    3.1179 H.spc      1 <1>        0.000
     27 H          -5.7141   -0.2854    0.3758 H.spc      1 <1>        0.000
     28 H          -5.8838   -2.8081    2.0201 H.spc      1 <1>        0.000
     29 H          -4.5366   -1.5687    1.9534 H.spc      1 <1>        0.000
@<TRIPOS>BOND
     1    3    4 1  
     2    9   15 2  
     3    1    2 1  
     4   11   12 1  
     5    9   10 1  
     6   12   13 1  
     7   13   14 1  
     8    6    7 1  
     9    6   11 1  
    10    4    5 1  
    11    4   13 1  
    12    5    6 1  
    13    8    9 1  
    14    7    8 1  
    15   10   11 1  
    16    1   14 1  
    17    2    3 1  
    18    1   16 1  
    19    1   17 1  
    20    3   18 1  
    21    3   19 1  
    22    4   20 1  
    23    6   21 1  
    24    8   22 1  
    25    8   23 1  
    26   10   24 1  
    27   10   25 1  
    28   11   26 1  
    29   13   27 1  
    30   14   28 1  
    31   14   29 1  
# Name:          frag5-679-23/41815
# Creation time: Sat Jun  5 12:53:03 2010


@<TRIPOS>MOLECULE
frag5-679-23/41815
   29    31     1     1     1
SMALL
USER_CHARGES


@<TRIPOS>ATOM
      1 C29        -4.7647   -3.3288    0.5943 C.3        1 <1>        0.000
      2 O11        -5.6383   -3.7423   -0.3837 O.3        1 <1>        0.000
      3 C30        -6.3192   -2.8243   -1.1564 C.3        1 <1>        0.000
      4 C31        -7.0047   -1.7631   -0.3336 C.3        1 <1>        0.000
      5 O12        -8.1590   -2.2136    0.3092 O.3        1 <1>        0.000
      6 C32        -8.8369   -1.4166    1.2076 C.3        1 <1>        0.000
      7 O13        -9.5592   -0.4262    0.5560 O.3        1 <1>        0.000
      8 C33       -10.3984    0.4219    1.2204 C.3        1 <1>        0.000
      9 C34       -10.0062    0.4146    2.6881 C.2        1 <1>        0.000
     10 C35        -8.5726    0.3036    3.0890 C.3        1 <1>        0.000
     11 C36        -7.8928   -0.7374    2.2489 C.3        1 <1>        0.000
     12 O14        -6.7313   -0.2946    1.6022 O.3        1 <1>        0.000
     13 C37        -6.0498   -1.1363    0.7213 C.3        1 <1>        0.000
     14 C38        -5.3385   -2.2575    1.4702 C.3        1 <1>        0.000
     15 O15       -10.8737    0.3673    3.5641 O.2        1 <1>        0.000
     16 H          -3.8819   -2.9205    0.1023 H.spc      1 <1>        0.000
     17 H          -4.5375   -4.1888    1.2242 H.spc      1 <1>        0.000
     18 H          -5.5948   -2.3294   -1.8032 H.spc      1 <1>        0.000
     19 H          -7.0860   -3.3611   -1.7149 H.spc      1 <1>        0.000
     20 H          -7.2997   -1.0029   -1.0569 H.spc      1 <1>        0.000
     21 H          -9.5127   -2.0860    1.7399 H.spc      1 <1>        0.000
     22 H         -10.3158    1.4296    0.8132 H.spc      1 <1>        0.000
     23 H         -11.4322    0.0964    1.1049 H.spc      1 <1>        0.000
     24 H          -8.5118    0.0174    4.1390 H.spc      1 <1>        0.000
     25 H          -8.0804    1.2650    2.9420 H.spc      1 <1>        0.000
     26 H          -7.5959   -1.4829    2.9866 H.spc      1 <1>        0.000
     27 H          -5.3145   -0.5167    0.2080 H.spc      1 <1>        0.000
     28 H          -6.0820   -2.7341    2.1091 H.spc      1 <1>        0.000
     29 H          -4.5039   -1.8031    2.0041 H.spc      1 <1>        0.000
@<TRIPOS>BOND
     1    3    4 1  
     2    9   15 2  
     3    1    2 1  
     4   11   12 1  
     5    9   10 1  
     6   12   13 1  
     7   13   14 1  
     8    6    7 1  
     9    6   11 1  
    10    4    5 1  
    11    4   13 1  
    12    5    6 1  
    13    8    9 1  
    14    7    8 1  
    15   10   11 1  
    16    1   14 1  
    17    2    3 1  
    18    1   16 1  
    19    1   17 1  
    20    3   18 1  
    21    3   19 1  
    22    4   20 1  
    23    6   21 1  
    24    8   22 1  
    25    8   23 1  
    26   10   24 1  
    27   10   25 1  
    28   11   26 1  
    29   13   27 1  
    30   14   28 1  
    31   14   29 1  
# Name:          frag5-679-23/41815 -- energy: -4.458179
# Creation time: Sat Jun  5 12:53:03 2010


@<TRIPOS>MOLECULE
frag5-679-23/41815 -- energy: -4.458179
   29    31     1     1     1
SMALL
USER_CHARGES


@<TRIPOS>ATOM
      1 C29        -4.5993   -2.9398    0.3645 C.3        1 <1>        0.000
      2 O11        -5.4515   -3.4128   -0.6096 O.3        1 <1>        0.000
      3 C30        -6.3576   -2.5679   -1.2214 C.3        1 <1>        0.000
      4 C31        -7.1689   -1.7701   -0.2284 C.3        1 <1>        0.000
      5 O12        -8.1872   -2.4902    0.4161 O.3        1 <1>        0.000
      6 C32        -8.9807   -1.8763    1.3745 C.3        1 <1>        0.000
      7 O13        -9.8107   -0.9256    0.7682 O.3        1 <1>        0.000
      8 C33        -9.8164    0.4340    1.0129 C.3        1 <1>        0.000
      9 C34        -9.7260    0.6191    2.5073 C.2        1 <1>        0.000
     10 C35        -8.9384   -0.3178    3.3580 C.3        1 <1>        0.000
     11 C36        -8.1106   -1.1924    2.4668 C.3        1 <1>        0.000
     12 O14        -7.0362   -0.5107    1.8648 O.3        1 <1>        0.000
     13 C37        -6.2743   -1.0931    0.8469 C.3        1 <1>        0.000
     14 C38        -5.3032   -2.1185    1.4074 C.3        1 <1>        0.000
     15 O15       -10.3845    1.5289    3.0696 O.2        1 <1>        0.000
     16 H          -3.8609   -2.3011   -0.1202 H.spc      1 <1>        0.000
     17 H          -4.1530   -3.8001    0.8632 H.spc      1 <1>        0.000
     18 H          -5.7976   -1.8654   -1.8387 H.spc      1 <1>        0.000
     19 H          -7.0468   -3.1797   -1.8035 H.spc      1 <1>        0.000
     20 H          -7.6533   -1.0132   -0.8453 H.spc      1 <1>        0.000
     21 H          -9.5911   -2.6428    1.8520 H.spc      1 <1>        0.000
     22 H          -8.9757    0.9170    0.5149 H.spc      1 <1>        0.000
     23 H         -10.7269    0.8900    0.6242 H.spc      1 <1>        0.000
     24 H          -9.6122   -0.9305    3.9570 H.spc      1 <1>        0.000
     25 H          -8.2910    0.2461    4.0295 H.spc      1 <1>        0.000
     26 H          -7.6862   -1.9566    3.1179 H.spc      1 <1>        0.000
     27 H          -5.7141   -0.2854    0.3758 H.spc      1 <1>        0.000
     28 H          -5.8838   -2.8081    2.0201 H.spc      1 <1>        0.000
     29 H          -4.5366   -1.5687    1.9534 H.spc      1 <1>        0.000
@<TRIPOS>BOND
     1    3    4 1  
     2    9   15 2  
     3    1    2 1  
     4   11   12 1  
     5    9   10 1  
     6   12   13 1  
     7   13   14 1  
     8    6    7 1  
     9    6   11 1  
    10    4    5 1  
    11    4   13 1  
    12    5    6 1  
    13    8    9 1  
    14    7    8 1  
    15   10   11 1  
    16    1   14 1  
    17    2    3 1  
    18    1   16 1  
    19    1   17 1  
    20    3   18 1  
    21    3   19 1  
    22    4   20 1  
    23    6   21 1  
    24    8   22 1  
    25    8   23 1  
    26   10   24 1  
    27   10   25 1  
    28   11   26 1  
    29   13   27 1  
    30   14   28 1  
    31   14   29 1  
# Name:          frag5-679-23/41815 -- energy: -3.641538
# Creation time: Sat Jun  5 12:53:03 2010


@<TRIPOS>MOLECULE
frag5-679-23/41815 -- energy: -3.641538
   29    31     1     1     1
SMALL
USER_CHARGES


@<TRIPOS>ATOM
      1 C29        -4.7647   -3.3288    0.5943 C.3        1 <1>        0.000
      2 O11        -5.6383   -3.7423   -0.3837 O.3        1 <1>        0.000
      3 C30        -6.3192   -2.8243   -1.1564 C.3        1 <1>        0.000
      4 C31        -7.0047   -1.7631   -0.3336 C.3        1 <1>        0.000
      5 O12        -8.1590   -2.2136    0.3092 O.3        1 <1>        0.000
      6 C32        -8.8369   -1.4166    1.2076 C.3        1 <1>        0.000
      7 O13        -9.5592   -0.4262    0.5560 O.3        1 <1>        0.000
      8 C33       -10.3984    0.4219    1.2204 C.3        1 <1>        0.000
      9 C34       -10.0062    0.4146    2.6881 C.2        1 <1>        0.000
     10 C35        -8.5726    0.3036    3.0890 C.3        1 <1>        0.000
     11 C36        -7.8928   -0.7374    2.2489 C.3        1 <1>        0.000
     12 O14        -6.7313   -0.2946    1.6022 O.3        1 <1>        0.000
     13 C37        -6.0498   -1.1363    0.7213 C.3        1 <1>        0.000
     14 C38        -5.3385   -2.2575    1.4702 C.3        1 <1>        0.000
     15 O15       -10.8737    0.3673    3.5641 O.2        1 <1>        0.000
     16 H          -3.8819   -2.9205    0.1023 H.spc      1 <1>        0.000
     17 H          -4.5375   -4.1888    1.2242 H.spc      1 <1>        0.000
     18 H          -5.5948   -2.3294   -1.8032 H.spc      1 <1>        0.000
     19 H          -7.0860   -3.3611   -1.7149 H.spc      1 <1>        0.000
     20 H          -7.2997   -1.0029   -1.0569 H.spc      1 <1>        0.000
     21 H          -9.5127   -2.0860    1.7399 H.spc      1 <1>        0.000
     22 H         -10.3158    1.4296    0.8132 H.spc      1 <1>        0.000
     23 H         -11.4322    0.0964    1.1049 H.spc      1 <1>        0.000
     24 H          -8.5118    0.0174    4.1390 H.spc      1 <1>        0.000
     25 H          -8.0804    1.2650    2.9420 H.spc      1 <1>        0.000
     26 H          -7.5959   -1.4829    2.9866 H.spc      1 <1>        0.000
     27 H          -5.3145   -0.5167    0.2080 H.spc      1 <1>        0.000
     28 H          -6.0820   -2.7341    2.1091 H.spc      1 <1>        0.000
     29 H          -4.5039   -1.8031    2.0041 H.spc      1 <1>        0.000
@<TRIPOS>BOND
     1    3    4 1  
     2    9   15 2  
     3    1    2 1  
     4   11   12 1  
     5    9   10 1  
     6   12   13 1  
     7   13   14 1  
     8    6    7 1  
     9    6   11 1  
    10    4    5 1  
    11    4   13 1  
    12    5    6 1  
    13    8    9 1  
    14    7    8 1  
    15   10   11 1  
    16    1   14 1  
    17    2    3 1  
    18    1   16 1  
    19    1   17 1  
    20    3   18 1  
    21    3   19 1  
    22    4   20 1  
    23    6   21 1  
    24    8   22 1  
    25    8   23 1  
    26   10   24 1  
    27   10   25 1  
    28   11   26 1  
    29   13   27 1  
    30   14   28 1  
    31   14   29 1  
