#      Rotatable Fragment
#      Build by yxyuan
#
# Name:          frag5-508-464/138278
# Creation time: Sat Jun  5 12:53:40 2010


@<TRIPOS>MOLECULE
frag5-508-464/138278
   10    10     1     1     1
SMALL
USER_CHARGES


@<TRIPOS>ATOM
      1 C19         1.9215    1.0466    0.2362 C.3        1 <1>        0.000
      2 S1          3.2806    2.2073    0.5141 S.3        1 <1>        0.000
      3 C20         2.5787   -0.2264   -0.2081 C.2        1 <1>        0.000
      4 C21         4.5086    1.0088    0.0568 C.2        1 <1>        0.000
      5 N1          3.9267   -0.1655   -0.2755 N.am       1 <1>        0.000
      6 O3          1.9253   -1.2208   -0.4802 O.2        1 <1>        0.000
      7 O4          5.7153    1.1937    0.0368 O.2        1 <1>        0.000
      8 H           1.2197    1.4193   -0.5099 H.spc      1 <1>        0.000
      9 H           1.3267    0.8995    1.1377 H.spc      1 <1>        0.000
     10 H           4.4817   -0.9710   -0.5647 H.spc      1 <1>        0.000
@<TRIPOS>BOND
     1    1    2 1  
     2    1    3 1  
     3    2    4 1  
     4    3    5 am 
     5    3    6 2  
     6    4    7 2  
     7    4    5 am 
     8    1    8 1  
     9    1    9 1  
    10    5   10 1  
# Name:          frag5-508-464/138278 -- energy: -0.507512
# Creation time: Sat Jun  5 12:53:40 2010


@<TRIPOS>MOLECULE
frag5-508-464/138278 -- energy: -0.507512
   10    10     1     1     1
SMALL
USER_CHARGES


@<TRIPOS>ATOM
      1 C19         1.9215    1.0466    0.2362 C.3        1 <1>        0.000
      2 S1          3.2806    2.2073    0.5141 S.3        1 <1>        0.000
      3 C20         2.5787   -0.2264   -0.2081 C.2        1 <1>        0.000
      4 C21         4.5086    1.0088    0.0568 C.2        1 <1>        0.000
      5 N1          3.9267   -0.1655   -0.2755 N.am       1 <1>        0.000
      6 O3          1.9253   -1.2208   -0.4802 O.2        1 <1>        0.000
      7 O4          5.7153    1.1937    0.0368 O.2        1 <1>        0.000
      8 H           1.2197    1.4193   -0.5099 H.spc      1 <1>        0.000
      9 H           1.3267    0.8995    1.1377 H.spc      1 <1>        0.000
     10 H           4.4817   -0.9710   -0.5647 H.spc      1 <1>        0.000
@<TRIPOS>BOND
     1    1    2 1  
     2    1    3 1  
     3    2    4 1  
     4    3    5 am 
     5    3    6 2  
     6    4    7 2  
     7    4    5 am 
     8    1    8 1  
     9    1    9 1  
    10    5   10 1  
