#      Rotatable Fragment
#      Build by yxyuan
#
# Name:          frag2-093-1/92655
# Creation time: Sat Jun  5 12:51:58 2010


@<TRIPOS>MOLECULE
frag2-093-1/92655
   14    15     1     1     1
SMALL
USER_CHARGES


@<TRIPOS>ATOM
      1 N1          2.2892    1.2259    0.2689 N.ar       1 <1>        0.000
      2 N2          1.0643    1.5796    0.3351 N.ar       1 <1>        0.000
      3 C1          0.0417    0.6906    0.1436 C.ar       1 <1>        0.000
      4 C2          0.3446   -0.6110   -0.1282 C.ar       1 <1>        0.000
      5 N3          1.6453   -0.9890   -0.2002 N.ar       1 <1>        0.000
      6 C3          2.6237   -0.0618    0.0037 C.ar       1 <1>        0.000
      7 C11        -0.6798   -1.5443   -0.3295 C.ar       1 <1>        0.000
      8 N4         -1.9726   -1.1386   -0.2494 N.ar       1 <1>        0.000
      9 C12        -2.3148    0.1376    0.0178 C.ar       1 <1>        0.000
     10 C13        -1.3148    1.0952    0.2216 C.ar       1 <1>        0.000
     11 H           3.6725   -0.3545   -0.0462 H.spc      1 <1>        0.000
     12 H          -0.4416   -2.5852   -0.5481 H.spc      1 <1>        0.000
     13 H          -3.3654    0.4223    0.0749 H.spc      1 <1>        0.000
     14 H          -1.5739    2.1320    0.4361 H.spc      1 <1>        0.000
@<TRIPOS>BOND
     1    1    2 ar 
     2    1    6 ar 
     3    3    4 ar 
     4    2    3 ar 
     5    3   10 ar 
     6    4    5 ar 
     7    4    7 ar 
     8    5    6 ar 
     9    7    8 ar 
    10    8    9 ar 
    11    9   10 ar 
    12    6   11 1  
    13    7   12 1  
    14    9   13 1  
    15   10   14 1  
# Name:          frag2-093-1/92655 -- energy: 0.362305
# Creation time: Sat Jun  5 12:51:58 2010


@<TRIPOS>MOLECULE
frag2-093-1/92655 -- energy: 0.362305
   14    15     1     1     1
SMALL
USER_CHARGES


@<TRIPOS>ATOM
      1 N1          2.2892    1.2259    0.2689 N.ar       1 <1>        0.000
      2 N2          1.0643    1.5796    0.3351 N.ar       1 <1>        0.000
      3 C1          0.0417    0.6906    0.1436 C.ar       1 <1>        0.000
      4 C2          0.3446   -0.6110   -0.1282 C.ar       1 <1>        0.000
      5 N3          1.6453   -0.9890   -0.2002 N.ar       1 <1>        0.000
      6 C3          2.6237   -0.0618    0.0037 C.ar       1 <1>        0.000
      7 C11        -0.6798   -1.5443   -0.3295 C.ar       1 <1>        0.000
      8 N4         -1.9726   -1.1386   -0.2494 N.ar       1 <1>        0.000
      9 C12        -2.3148    0.1376    0.0178 C.ar       1 <1>        0.000
     10 C13        -1.3148    1.0952    0.2216 C.ar       1 <1>        0.000
     11 H           3.6725   -0.3545   -0.0462 H.spc      1 <1>        0.000
     12 H          -0.4416   -2.5852   -0.5481 H.spc      1 <1>        0.000
     13 H          -3.3654    0.4223    0.0749 H.spc      1 <1>        0.000
     14 H          -1.5739    2.1320    0.4361 H.spc      1 <1>        0.000
@<TRIPOS>BOND
     1    1    2 ar 
     2    1    6 ar 
     3    3    4 ar 
     4    2    3 ar 
     5    3   10 ar 
     6    4    5 ar 
     7    4    7 ar 
     8    5    6 ar 
     9    7    8 ar 
    10    8    9 ar 
    11    9   10 ar 
    12    6   11 1  
    13    7   12 1  
    14    9   13 1  
    15   10   14 1  
