#      Rotatable Fragment
#      Build by yxyuan
#
# Name:          frag5-573-43/41815
# Creation time: Sat Jun  5 12:52:54 2010


@<TRIPOS>MOLECULE
frag5-573-43/41815
   12    12     1     1     1
SMALL
USER_CHARGES


@<TRIPOS>ATOM
      1 Br1        -2.4076   -2.0486    0.6183 Br         1 <1>        0.000
      2 C1         -0.9894   -0.8385    0.2536 C.ar       1 <1>        0.000
      3 C2          0.3026   -1.3224    0.0832 C.ar       1 <1>        0.000
      4 C3          1.3444   -0.4418   -0.1841 C.ar       1 <1>        0.000
      5 C4          1.0931    0.9257   -0.2800 C.ar       1 <1>        0.000
      6 C5         -0.2047    1.4121   -0.1089 C.ar       1 <1>        0.000
      7 C6         -1.2481    0.5250    0.1590 C.ar       1 <1>        0.000
      8 H           0.4987   -2.3919    0.1592 H.spc      1 <1>        0.000
      9 H           2.3575   -0.8207   -0.3187 H.spc      1 <1>        0.000
     10 H           1.9103    1.6162   -0.4887 H.spc      1 <1>        0.000
     11 H          -0.4021    2.4814   -0.1844 H.spc      1 <1>        0.000
     12 H          -2.2629    0.8994    0.2937 H.spc      1 <1>        0.000
@<TRIPOS>BOND
     1    1    2 1  
     2    2    3 ar 
     3    2    7 ar 
     4    3    4 ar 
     5    4    5 ar 
     6    5    6 ar 
     7    6    7 ar 
     8    3    8 1  
     9    4    9 1  
    10    5   10 1  
    11    6   11 1  
    12    7   12 1  
# Name:          frag5-573-43/41815 -- energy: -0.086161
# Creation time: Sat Jun  5 12:52:54 2010


@<TRIPOS>MOLECULE
frag5-573-43/41815 -- energy: -0.086161
   12    12     1     1     1
SMALL
USER_CHARGES


@<TRIPOS>ATOM
      1 Br1        -2.4076   -2.0486    0.6183 Br         1 <1>        0.000
      2 C1         -0.9894   -0.8385    0.2536 C.ar       1 <1>        0.000
      3 C2          0.3026   -1.3224    0.0832 C.ar       1 <1>        0.000
      4 C3          1.3444   -0.4418   -0.1841 C.ar       1 <1>        0.000
      5 C4          1.0931    0.9257   -0.2800 C.ar       1 <1>        0.000
      6 C5         -0.2047    1.4121   -0.1089 C.ar       1 <1>        0.000
      7 C6         -1.2481    0.5250    0.1590 C.ar       1 <1>        0.000
      8 H           0.4987   -2.3919    0.1592 H.spc      1 <1>        0.000
      9 H           2.3575   -0.8207   -0.3187 H.spc      1 <1>        0.000
     10 H           1.9103    1.6162   -0.4887 H.spc      1 <1>        0.000
     11 H          -0.4021    2.4814   -0.1844 H.spc      1 <1>        0.000
     12 H          -2.2629    0.8994    0.2937 H.spc      1 <1>        0.000
@<TRIPOS>BOND
     1    1    2 1  
     2    2    3 ar 
     3    2    7 ar 
     4    3    4 ar 
     5    4    5 ar 
     6    5    6 ar 
     7    6    7 ar 
     8    3    8 1  
     9    4    9 1  
    10    5   10 1  
    11    6   11 1  
    12    7   12 1  
