#      Rotatable Fragment
#      Build by yxyuan
#
# Name:          frag5-651-26/41815
# Creation time: Sat Jun  5 12:53:01 2010


@<TRIPOS>MOLECULE
frag5-651-26/41815
   15    15     1     1     1
SMALL
USER_CHARGES


@<TRIPOS>ATOM
      1 N1         -2.6038    0.0421    0.1407 N.pl3      1 <1>        0.000
      2 C1         -1.1896   -0.0081    0.0443 C.ar       1 <1>        0.000
      3 C2         -0.5120   -1.2104   -0.2358 C.ar       1 <1>        0.000
      4 C3          0.8702   -1.2573   -0.3302 C.ar       1 <1>        0.000
      5 C4          1.6535   -0.1020   -0.1472 C.ar       1 <1>        0.000
      6 C5          0.9818    1.1003    0.1331 C.ar       1 <1>        0.000
      7 C6         -0.4004    1.1445    0.2255 C.ar       1 <1>        0.000
      8 O1          3.0288   -0.1456   -0.2373 O.3        1 <1>        0.000
      9 H          -3.1546   -0.8058    0.0060 H.spc      1 <1>        0.000
     10 H          -3.0700    0.9261    0.3447 H.spc      1 <1>        0.000
     11 H          -1.0873   -2.1247   -0.3817 H.spc      1 <1>        0.000
     12 H           1.3595   -2.2061   -0.5502 H.spc      1 <1>        0.000
     13 H           1.5579    2.0138    0.2804 H.spc      1 <1>        0.000
     14 H          -0.8886    2.0943    0.4437 H.spc      1 <1>        0.000
     15 H           3.3864    0.7321   -0.0842 H.spc      1 <1>        0.000
@<TRIPOS>BOND
     1    1    2 1  
     2    2    3 ar 
     3    2    7 ar 
     4    3    4 ar 
     5    4    5 ar 
     6    5    6 ar 
     7    5    8 1  
     8    6    7 ar 
     9    1    9 1  
    10    1   10 1  
    11    3   11 1  
    12    4   12 1  
    13    6   13 1  
    14    7   14 1  
    15    8   15 1  
# Name:          frag5-651-26/41815 -- energy: -0.329023
# Creation time: Sat Jun  5 12:53:01 2010


@<TRIPOS>MOLECULE
frag5-651-26/41815 -- energy: -0.329023
   15    15     1     1     1
SMALL
USER_CHARGES


@<TRIPOS>ATOM
      1 N1         -2.6038    0.0421    0.1407 N.pl3      1 <1>        0.000
      2 C1         -1.1896   -0.0081    0.0443 C.ar       1 <1>        0.000
      3 C2         -0.5120   -1.2104   -0.2358 C.ar       1 <1>        0.000
      4 C3          0.8702   -1.2573   -0.3302 C.ar       1 <1>        0.000
      5 C4          1.6535   -0.1020   -0.1472 C.ar       1 <1>        0.000
      6 C5          0.9818    1.1003    0.1331 C.ar       1 <1>        0.000
      7 C6         -0.4004    1.1445    0.2255 C.ar       1 <1>        0.000
      8 O1          3.0288   -0.1456   -0.2373 O.3        1 <1>        0.000
      9 H          -3.1546   -0.8058    0.0060 H.spc      1 <1>        0.000
     10 H          -3.0700    0.9261    0.3447 H.spc      1 <1>        0.000
     11 H          -1.0873   -2.1247   -0.3817 H.spc      1 <1>        0.000
     12 H           1.3595   -2.2061   -0.5502 H.spc      1 <1>        0.000
     13 H           1.5579    2.0138    0.2804 H.spc      1 <1>        0.000
     14 H          -0.8886    2.0943    0.4437 H.spc      1 <1>        0.000
     15 H           3.3864    0.7321   -0.0842 H.spc      1 <1>        0.000
@<TRIPOS>BOND
     1    1    2 1  
     2    2    3 ar 
     3    2    7 ar 
     4    3    4 ar 
     5    4    5 ar 
     6    5    6 ar 
     7    5    8 1  
     8    6    7 ar 
     9    1    9 1  
    10    1   10 1  
    11    3   11 1  
    12    4   12 1  
    13    6   13 1  
    14    7   14 1  
    15    8   15 1  
