#      Rotatable Fragment
#      Build by yxyuan
#
# Name:          frag4-311-366/48856
# Creation time: Sat Jun  5 12:52:47 2010


@<TRIPOS>MOLECULE
frag4-311-366/48856
   18    18     1     1     1
SMALL
USER_CHARGES


@<TRIPOS>ATOM
      1 N3          1.0841   -3.0100   -1.5742 N.4        1 <1>        0.000
      2 C12         0.5261   -3.9318   -0.5585 C.3        1 <1>        0.000
      3 C13        -1.0115   -3.8685   -0.5245 C.3        1 <1>        0.000
      4 N4         -1.4924   -2.4812   -0.3325 N.4        1 <1>        0.000
      5 C14        -0.9352   -1.5675   -1.3556 C.3        1 <1>        0.000
      6 C15         0.6026   -1.6243   -1.3719 C.3        1 <1>        0.000
      7 H           0.7835   -3.3252   -2.4965 H.spc      1 <1>        0.000
      8 H           2.1007   -3.0143   -1.4908 H.spc      1 <1>        0.000
      9 H           0.9057   -3.6383    0.4202 H.spc      1 <1>        0.000
     10 H           0.8245   -4.9486   -0.8136 H.spc      1 <1>        0.000
     11 H          -1.3640   -4.4751    0.3097 H.spc      1 <1>        0.000
     12 H          -1.3938   -4.2383   -1.4759 H.spc      1 <1>        0.000
     13 H          -2.5090   -2.4773   -0.4150 H.spc      1 <1>        0.000
     14 H          -1.1909   -2.1590    0.5871 H.spc      1 <1>        0.000
     15 H          -1.2438   -0.5493   -1.1186 H.spc      1 <1>        0.000
     16 H          -1.3056   -1.8728   -2.3342 H.spc      1 <1>        0.000
     17 H           0.9747   -1.2627   -0.4133 H.spc      1 <1>        0.000
     18 H           0.9653   -1.0061   -2.1931 H.spc      1 <1>        0.000
@<TRIPOS>BOND
     1    4    5 1  
     2    5    6 1  
     3    1    2 1  
     4    1    6 1  
     5    2    3 1  
     6    3    4 1  
     7    1    7 1  
     8    1    8 1  
     9    2    9 1  
    10    2   10 1  
    11    3   11 1  
    12    3   12 1  
    13    4   13 1  
    14    4   14 1  
    15    5   15 1  
    16    5   16 1  
    17    6   17 1  
    18    6   18 1  
# Name:          frag4-311-366/48856 -- energy: -1.597477
# Creation time: Sat Jun  5 12:52:47 2010


@<TRIPOS>MOLECULE
frag4-311-366/48856 -- energy: -1.597477
   18    18     1     1     1
SMALL
USER_CHARGES


@<TRIPOS>ATOM
      1 N3          1.0841   -3.0100   -1.5742 N.4        1 <1>        0.000
      2 C12         0.5261   -3.9318   -0.5585 C.3        1 <1>        0.000
      3 C13        -1.0115   -3.8685   -0.5245 C.3        1 <1>        0.000
      4 N4         -1.4924   -2.4812   -0.3325 N.4        1 <1>        0.000
      5 C14        -0.9352   -1.5675   -1.3556 C.3        1 <1>        0.000
      6 C15         0.6026   -1.6243   -1.3719 C.3        1 <1>        0.000
      7 H           0.7835   -3.3252   -2.4965 H.spc      1 <1>        0.000
      8 H           2.1007   -3.0143   -1.4908 H.spc      1 <1>        0.000
      9 H           0.9057   -3.6383    0.4202 H.spc      1 <1>        0.000
     10 H           0.8245   -4.9486   -0.8136 H.spc      1 <1>        0.000
     11 H          -1.3640   -4.4751    0.3097 H.spc      1 <1>        0.000
     12 H          -1.3938   -4.2383   -1.4759 H.spc      1 <1>        0.000
     13 H          -2.5090   -2.4773   -0.4150 H.spc      1 <1>        0.000
     14 H          -1.1909   -2.1590    0.5871 H.spc      1 <1>        0.000
     15 H          -1.2438   -0.5493   -1.1186 H.spc      1 <1>        0.000
     16 H          -1.3056   -1.8728   -2.3342 H.spc      1 <1>        0.000
     17 H           0.9747   -1.2627   -0.4133 H.spc      1 <1>        0.000
     18 H           0.9653   -1.0061   -2.1931 H.spc      1 <1>        0.000
@<TRIPOS>BOND
     1    4    5 1  
     2    5    6 1  
     3    1    2 1  
     4    1    6 1  
     5    2    3 1  
     6    3    4 1  
     7    1    7 1  
     8    1    8 1  
     9    2    9 1  
    10    2   10 1  
    11    3   11 1  
    12    3   12 1  
    13    4   13 1  
    14    4   14 1  
    15    5   15 1  
    16    5   16 1  
    17    6   17 1  
    18    6   18 1  
