#      Rotatable Fragment
#      Build by yxyuan
#
# Name:          frag2-084-1/319335
# Creation time: Sat Jun  5 12:52:05 2010


@<TRIPOS>MOLECULE
frag2-084-1/319335
   20    22     1     1     1
SMALL
USER_CHARGES


@<TRIPOS>ATOM
      1 C1         -1.3426   -0.5895   -0.0262 C.ar       1 <1>        0.000
      2 C2         -1.2687    0.8068    0.0728 C.ar       1 <1>        0.000
      3 C3         -2.6056   -1.1807   -0.0526 C.ar       1 <1>        0.000
      4 C4         -0.1562   -1.3312   -0.0940 C.ar       1 <1>        0.000
      5 C5         -0.0318    1.4349    0.1019 C.ar       1 <1>        0.000
      6 N1         -2.4110    1.5211    0.1382 N.ar       1 <1>        0.000
      7 N3         -3.7139   -0.4161    0.0162 N.ar       1 <1>        0.000
      8 C6          1.0850   -0.6993   -0.0636 C.ar       1 <1>        0.000
      9 C7          1.1471    0.6992    0.0354 C.ar       1 <1>        0.000
     10 C8         -3.6143    0.9265    0.1114 C.ar       1 <1>        0.000
     11 N4          2.2368   -1.4046   -0.1275 N.ar       1 <1>        0.000
     12 N5          2.3498    1.3054    0.0646 N.ar       1 <1>        0.000
     13 C12         3.4365   -0.7815   -0.0972 C.ar       1 <1>        0.000
     14 C13         3.4883    0.5957    0.0006 C.ar       1 <1>        0.000
     15 H          -2.6969   -2.2642   -0.1291 H.spc      1 <1>        0.000
     16 H          -0.2048   -2.4173   -0.1716 H.spc      1 <1>        0.000
     17 H           0.0169    2.5211    0.1780 H.spc      1 <1>        0.000
     18 H          -4.5183    1.5330    0.1670 H.spc      1 <1>        0.000
     19 H           4.3574   -1.3623   -0.1496 H.spc      1 <1>        0.000
     20 H           4.4515    1.1054    0.0258 H.spc      1 <1>        0.000
@<TRIPOS>BOND
     1    9   12 ar 
     2    3    7 ar 
     3   13   14 ar 
     4    8   11 ar 
     5    7   10 ar 
     6    8    9 ar 
     7    5    9 ar 
     8   12   14 ar 
     9    6   10 ar 
    10   11   13 ar 
    11    4    8 ar 
    12    1    2 ar 
    13    1    3 ar 
    14    1    4 ar 
    15    2    5 ar 
    16    2    6 ar 
    17    3   15 1  
    18    4   16 1  
    19    5   17 1  
    20   10   18 1  
    21   13   19 1  
    22   14   20 1  
# Name:          frag2-084-1/319335 -- energy: 0.014903
# Creation time: Sat Jun  5 12:52:05 2010


@<TRIPOS>MOLECULE
frag2-084-1/319335 -- energy: 0.014903
   20    22     1     1     1
SMALL
USER_CHARGES


@<TRIPOS>ATOM
      1 C1         -1.3426   -0.5895   -0.0262 C.ar       1 <1>        0.000
      2 C2         -1.2687    0.8068    0.0728 C.ar       1 <1>        0.000
      3 C3         -2.6056   -1.1807   -0.0526 C.ar       1 <1>        0.000
      4 C4         -0.1562   -1.3312   -0.0940 C.ar       1 <1>        0.000
      5 C5         -0.0318    1.4349    0.1019 C.ar       1 <1>        0.000
      6 N1         -2.4110    1.5211    0.1382 N.ar       1 <1>        0.000
      7 N3         -3.7139   -0.4161    0.0162 N.ar       1 <1>        0.000
      8 C6          1.0850   -0.6993   -0.0636 C.ar       1 <1>        0.000
      9 C7          1.1471    0.6992    0.0354 C.ar       1 <1>        0.000
     10 C8         -3.6143    0.9265    0.1114 C.ar       1 <1>        0.000
     11 N4          2.2368   -1.4046   -0.1275 N.ar       1 <1>        0.000
     12 N5          2.3498    1.3054    0.0646 N.ar       1 <1>        0.000
     13 C12         3.4365   -0.7815   -0.0972 C.ar       1 <1>        0.000
     14 C13         3.4883    0.5957    0.0006 C.ar       1 <1>        0.000
     15 H          -2.6969   -2.2642   -0.1291 H.spc      1 <1>        0.000
     16 H          -0.2048   -2.4173   -0.1716 H.spc      1 <1>        0.000
     17 H           0.0169    2.5211    0.1780 H.spc      1 <1>        0.000
     18 H          -4.5183    1.5330    0.1670 H.spc      1 <1>        0.000
     19 H           4.3574   -1.3623   -0.1496 H.spc      1 <1>        0.000
     20 H           4.4515    1.1054    0.0258 H.spc      1 <1>        0.000
@<TRIPOS>BOND
     1    9   12 ar 
     2    3    7 ar 
     3   13   14 ar 
     4    8   11 ar 
     5    7   10 ar 
     6    8    9 ar 
     7    5    9 ar 
     8   12   14 ar 
     9    6   10 ar 
    10   11   13 ar 
    11    4    8 ar 
    12    1    2 ar 
    13    1    3 ar 
    14    1    4 ar 
    15    2    5 ar 
    16    2    6 ar 
    17    3   15 1  
    18    4   16 1  
    19    5   17 1  
    20   10   18 1  
    21   13   19 1  
    22   14   20 1  
