#      Rotatable Fragment
#      Build by yxyuan
#
# Name:          frag3-178-8/31924
# Creation time: Sat Jun  5 12:52:09 2010


@<TRIPOS>MOLECULE
frag3-178-8/31924
    6     5     1     1     1
SMALL
USER_CHARGES


@<TRIPOS>ATOM
      1 N1         -0.0600   -0.3730    0.0537 N.pl3      1 <1>        0.000
      2 N2          0.9059    0.3720    0.3527 N.2        1 <1>        0.000
      3 O1          2.0615   -0.0084    0.2670 O.2        1 <1>        0.000
      4 O2         -1.3994    0.1203    0.1161 O.3        1 <1>        0.000
      5 H           0.1128   -1.3358   -0.2354 H.spc      1 <1>        0.000
      6 H          -2.0079   -0.5755   -0.1430 H.spc      1 <1>        0.000
@<TRIPOS>BOND
     1    1    2 1  
     2    1    4 1  
     3    2    3 2  
     4    1    5 1  
     5    4    6 1  
# Name:          frag3-178-8/31924
# Creation time: Sat Jun  5 12:52:09 2010


@<TRIPOS>MOLECULE
frag3-178-8/31924
    6     5     1     1     1
SMALL
USER_CHARGES


@<TRIPOS>ATOM
      1 N1         -0.1661   -0.5949    0.2552 N.pl3      1 <1>        0.000
      2 N2          1.0912   -0.4383    0.3885 N.2        1 <1>        0.000
      3 O1          1.6003    0.6630    0.1596 O.2        1 <1>        0.000
      4 O2         -1.0174    0.4811   -0.0138 O.3        1 <1>        0.000
      5 H          -0.5623   -1.5303    0.3472 H.spc      1 <1>        0.000
      6 H          -1.9212    0.1641   -0.0787 H.spc      1 <1>        0.000
@<TRIPOS>BOND
     1    1    2 1  
     2    1    4 1  
     3    2    3 2  
     4    1    5 1  
     5    4    6 1  
# Name:          frag3-178-8/31924 -- energy: -0.087005
# Creation time: Sat Jun  5 12:52:09 2010


@<TRIPOS>MOLECULE
frag3-178-8/31924 -- energy: -0.087005
    6     5     1     1     1
SMALL
USER_CHARGES


@<TRIPOS>ATOM
      1 N1         -0.0600   -0.3730    0.0537 N.pl3      1 <1>        0.000
      2 N2          0.9059    0.3720    0.3527 N.2        1 <1>        0.000
      3 O1          2.0615   -0.0084    0.2670 O.2        1 <1>        0.000
      4 O2         -1.3994    0.1203    0.1161 O.3        1 <1>        0.000
      5 H           0.1128   -1.3358   -0.2354 H.spc      1 <1>        0.000
      6 H          -2.0079   -0.5755   -0.1430 H.spc      1 <1>        0.000
@<TRIPOS>BOND
     1    1    2 1  
     2    1    4 1  
     3    2    3 2  
     4    1    5 1  
     5    4    6 1  
# Name:          frag3-178-8/31924 -- energy: -0.032234
# Creation time: Sat Jun  5 12:52:09 2010


@<TRIPOS>MOLECULE
frag3-178-8/31924 -- energy: -0.032234
    6     5     1     1     1
SMALL
USER_CHARGES


@<TRIPOS>ATOM
      1 N1         -0.1661   -0.5949    0.2552 N.pl3      1 <1>        0.000
      2 N2          1.0912   -0.4383    0.3885 N.2        1 <1>        0.000
      3 O1          1.6003    0.6630    0.1596 O.2        1 <1>        0.000
      4 O2         -1.0174    0.4811   -0.0138 O.3        1 <1>        0.000
      5 H          -0.5623   -1.5303    0.3472 H.spc      1 <1>        0.000
      6 H          -1.9212    0.1641   -0.0787 H.spc      1 <1>        0.000
@<TRIPOS>BOND
     1    1    2 1  
     2    1    4 1  
     3    2    3 2  
     4    1    5 1  
     5    4    6 1  
