#      Rotatable Fragment
#      Build by yxyuan
#
# Name:          frag5-557-157/138278
# Creation time: Sat Jun  5 12:53:43 2010


@<TRIPOS>MOLECULE
frag5-557-157/138278
   25    26     1     1     1
SMALL
USER_CHARGES


@<TRIPOS>ATOM
      1 N2         -0.0595    0.3555    0.5500 N.4        1 <1>        0.000
      2 C16         0.4326    1.6115   -0.0626 C.3        1 <1>        0.000
      3 C17         0.5486   -0.7982   -0.1530 C.3        1 <1>        0.000
      4 C18         1.9613    1.7576    0.1727 C.3        1 <1>        0.000
      5 C19         2.0872   -0.8008    0.0639 C.3        1 <1>        0.000
      6 N3          2.7326    0.5158    0.0896 N.pl3      1 <1>        0.000
      7 C20         4.0895    0.5799    0.1360 C.ar       1 <1>        0.000
      8 N4          4.8449   -0.2861   -0.5767 N.ar       1 <1>        0.000
      9 N5          4.6816    1.5313    0.8889 N.ar       1 <1>        0.000
     10 C21         6.1913   -0.1752   -0.6051 C.ar       1 <1>        0.000
     11 C22         6.0230    1.6732    0.9064 C.ar       1 <1>        0.000
     12 C23         6.8222    0.8225    0.1411 C.ar       1 <1>        0.000
     13 H          -1.0753    0.3096    0.4693 H.spc      1 <1>        0.000
     14 H           0.1988    0.3309    1.5364 H.spc      1 <1>        0.000
     15 H          -0.0818    2.4573    0.3936 H.spc      1 <1>        0.000
     16 H           0.2365    1.5873   -1.1345 H.spc      1 <1>        0.000
     17 H           0.3366   -0.7210   -1.2194 H.spc      1 <1>        0.000
     18 H           0.1286   -1.7224    0.2440 H.spc      1 <1>        0.000
     19 H           2.0848    2.1326    1.1887 H.spc      1 <1>        0.000
     20 H           2.3362    2.4095   -0.6163 H.spc      1 <1>        0.000
     21 H           2.2583   -1.2457    1.0441 H.spc      1 <1>        0.000
     22 H           2.5157   -1.3363   -0.7833 H.spc      1 <1>        0.000
     23 H           6.7835   -0.8628   -1.2089 H.spc      1 <1>        0.000
     24 H           6.4819    2.4508    1.5171 H.spc      1 <1>        0.000
     25 H           7.9064    0.9336    0.1263 H.spc      1 <1>        0.000
@<TRIPOS>BOND
     1    1    2 1  
     2   11   12 ar 
     3    5    6 1  
     4    1    3 1  
     5    3    5 1  
     6    6    7 1  
     7    7    9 ar 
     8    7    8 ar 
     9    9   11 ar 
    10    2    4 1  
    11   10   12 ar 
    12    8   10 ar 
    13    4    6 1  
    14    1   13 1  
    15    1   14 1  
    16    2   15 1  
    17    2   16 1  
    18    3   17 1  
    19    3   18 1  
    20    4   19 1  
    21    4   20 1  
    22    5   21 1  
    23    5   22 1  
    24   10   23 1  
    25   11   24 1  
    26   12   25 1  
# Name:          frag5-557-157/138278
# Creation time: Sat Jun  5 12:53:43 2010


@<TRIPOS>MOLECULE
frag5-557-157/138278
   25    26     1     1     1
SMALL
USER_CHARGES


@<TRIPOS>ATOM
      1 N2         -0.0444    0.0889    0.4541 N.4        1 <1>        0.000
      2 C16         0.4158    1.4839    0.6465 C.3        1 <1>        0.000
      3 C17         0.5530   -0.4522   -0.7890 C.3        1 <1>        0.000
      4 C18         1.9495    1.5112    0.8929 C.3        1 <1>        0.000
      5 C19         2.0975   -0.5367   -0.6426 C.3        1 <1>        0.000
      6 N3          2.7302    0.5525    0.1081 N.pl3      1 <1>        0.000
      7 C20         4.0872    0.6145    0.1557 C.ar       1 <1>        0.000
      8 N4          4.8269   -0.5159    0.2119 N.ar       1 <1>        0.000
      9 N5          4.6959    1.8193    0.1282 N.ar       1 <1>        0.000
     10 C21         6.1768   -0.4673    0.1716 C.ar       1 <1>        0.000
     11 C22         6.0408    1.9215    0.1031 C.ar       1 <1>        0.000
     12 C23         6.8260    0.7675    0.1108 C.ar       1 <1>        0.000
     13 H          -1.0617    0.0703    0.3820 H.spc      1 <1>        0.000
     14 H           0.2447   -0.4804    1.2495 H.spc      1 <1>        0.000
     15 H          -0.0928    1.9124    1.5101 H.spc      1 <1>        0.000
     16 H           0.1870    2.0626   -0.2484 H.spc      1 <1>        0.000
     17 H           0.3070    0.2068   -1.6217 H.spc      1 <1>        0.000
     18 H           0.1550   -1.4500   -0.9736 H.spc      1 <1>        0.000
     19 H           2.1006    1.2513    1.9406 H.spc      1 <1>        0.000
     20 H           2.2933    2.5039    0.6022 H.spc      1 <1>        0.000
     21 H           2.3036   -1.4520   -0.0879 H.spc      1 <1>        0.000
     22 H           2.5046   -0.4903   -1.6527 H.spc      1 <1>        0.000
     23 H           6.7574   -1.3897    0.1865 H.spc      1 <1>        0.000
     24 H           6.5134    2.9034    0.0769 H.spc      1 <1>        0.000
     25 H           7.9136    0.8284    0.0706 H.spc      1 <1>        0.000
@<TRIPOS>BOND
     1    1    2 1  
     2   11   12 ar 
     3    5    6 1  
     4    1    3 1  
     5    3    5 1  
     6    6    7 1  
     7    7    9 ar 
     8    7    8 ar 
     9    9   11 ar 
    10    2    4 1  
    11   10   12 ar 
    12    8   10 ar 
    13    4    6 1  
    14    1   13 1  
    15    1   14 1  
    16    2   15 1  
    17    2   16 1  
    18    3   17 1  
    19    3   18 1  
    20    4   19 1  
    21    4   20 1  
    22    5   21 1  
    23    5   22 1  
    24   10   23 1  
    25   11   24 1  
    26   12   25 1  
# Name:          frag5-557-157/138278 -- energy: -2.083303
# Creation time: Sat Jun  5 12:53:43 2010


@<TRIPOS>MOLECULE
frag5-557-157/138278 -- energy: -2.083303
   25    26     1     1     1
SMALL
USER_CHARGES


@<TRIPOS>ATOM
      1 N2         -0.0595    0.3555    0.5500 N.4        1 <1>        0.000
      2 C16         0.4326    1.6115   -0.0626 C.3        1 <1>        0.000
      3 C17         0.5486   -0.7982   -0.1530 C.3        1 <1>        0.000
      4 C18         1.9613    1.7576    0.1727 C.3        1 <1>        0.000
      5 C19         2.0872   -0.8008    0.0639 C.3        1 <1>        0.000
      6 N3          2.7326    0.5158    0.0896 N.pl3      1 <1>        0.000
      7 C20         4.0895    0.5799    0.1360 C.ar       1 <1>        0.000
      8 N4          4.8449   -0.2861   -0.5767 N.ar       1 <1>        0.000
      9 N5          4.6816    1.5313    0.8889 N.ar       1 <1>        0.000
     10 C21         6.1913   -0.1752   -0.6051 C.ar       1 <1>        0.000
     11 C22         6.0230    1.6732    0.9064 C.ar       1 <1>        0.000
     12 C23         6.8222    0.8225    0.1411 C.ar       1 <1>        0.000
     13 H          -1.0753    0.3096    0.4693 H.spc      1 <1>        0.000
     14 H           0.1988    0.3309    1.5364 H.spc      1 <1>        0.000
     15 H          -0.0818    2.4573    0.3936 H.spc      1 <1>        0.000
     16 H           0.2365    1.5873   -1.1345 H.spc      1 <1>        0.000
     17 H           0.3366   -0.7210   -1.2194 H.spc      1 <1>        0.000
     18 H           0.1286   -1.7224    0.2440 H.spc      1 <1>        0.000
     19 H           2.0848    2.1326    1.1887 H.spc      1 <1>        0.000
     20 H           2.3362    2.4095   -0.6163 H.spc      1 <1>        0.000
     21 H           2.2583   -1.2457    1.0441 H.spc      1 <1>        0.000
     22 H           2.5157   -1.3363   -0.7833 H.spc      1 <1>        0.000
     23 H           6.7835   -0.8628   -1.2089 H.spc      1 <1>        0.000
     24 H           6.4819    2.4508    1.5171 H.spc      1 <1>        0.000
     25 H           7.9064    0.9336    0.1263 H.spc      1 <1>        0.000
@<TRIPOS>BOND
     1    1    2 1  
     2   11   12 ar 
     3    5    6 1  
     4    1    3 1  
     5    3    5 1  
     6    6    7 1  
     7    7    9 ar 
     8    7    8 ar 
     9    9   11 ar 
    10    2    4 1  
    11   10   12 ar 
    12    8   10 ar 
    13    4    6 1  
    14    1   13 1  
    15    1   14 1  
    16    2   15 1  
    17    2   16 1  
    18    3   17 1  
    19    3   18 1  
    20    4   19 1  
    21    4   20 1  
    22    5   21 1  
    23    5   22 1  
    24   10   23 1  
    25   11   24 1  
    26   12   25 1  
# Name:          frag5-557-157/138278 -- energy: -2.093163
# Creation time: Sat Jun  5 12:53:43 2010


@<TRIPOS>MOLECULE
frag5-557-157/138278 -- energy: -2.093163
   25    26     1     1     1
SMALL
USER_CHARGES


@<TRIPOS>ATOM
      1 N2         -0.0444    0.0889    0.4541 N.4        1 <1>        0.000
      2 C16         0.4158    1.4839    0.6465 C.3        1 <1>        0.000
      3 C17         0.5530   -0.4522   -0.7890 C.3        1 <1>        0.000
      4 C18         1.9495    1.5112    0.8929 C.3        1 <1>        0.000
      5 C19         2.0975   -0.5367   -0.6426 C.3        1 <1>        0.000
      6 N3          2.7302    0.5525    0.1081 N.pl3      1 <1>        0.000
      7 C20         4.0872    0.6145    0.1557 C.ar       1 <1>        0.000
      8 N4          4.8269   -0.5159    0.2119 N.ar       1 <1>        0.000
      9 N5          4.6959    1.8193    0.1282 N.ar       1 <1>        0.000
     10 C21         6.1768   -0.4673    0.1716 C.ar       1 <1>        0.000
     11 C22         6.0408    1.9215    0.1031 C.ar       1 <1>        0.000
     12 C23         6.8260    0.7675    0.1108 C.ar       1 <1>        0.000
     13 H          -1.0617    0.0703    0.3820 H.spc      1 <1>        0.000
     14 H           0.2447   -0.4804    1.2495 H.spc      1 <1>        0.000
     15 H          -0.0928    1.9124    1.5101 H.spc      1 <1>        0.000
     16 H           0.1870    2.0626   -0.2484 H.spc      1 <1>        0.000
     17 H           0.3070    0.2068   -1.6217 H.spc      1 <1>        0.000
     18 H           0.1550   -1.4500   -0.9736 H.spc      1 <1>        0.000
     19 H           2.1006    1.2513    1.9406 H.spc      1 <1>        0.000
     20 H           2.2933    2.5039    0.6022 H.spc      1 <1>        0.000
     21 H           2.3036   -1.4520   -0.0879 H.spc      1 <1>        0.000
     22 H           2.5046   -0.4903   -1.6527 H.spc      1 <1>        0.000
     23 H           6.7574   -1.3897    0.1865 H.spc      1 <1>        0.000
     24 H           6.5134    2.9034    0.0769 H.spc      1 <1>        0.000
     25 H           7.9136    0.8284    0.0706 H.spc      1 <1>        0.000
@<TRIPOS>BOND
     1    1    2 1  
     2   11   12 ar 
     3    5    6 1  
     4    1    3 1  
     5    3    5 1  
     6    6    7 1  
     7    7    9 ar 
     8    7    8 ar 
     9    9   11 ar 
    10    2    4 1  
    11   10   12 ar 
    12    8   10 ar 
    13    4    6 1  
    14    1   13 1  
    15    1   14 1  
    16    2   15 1  
    17    2   16 1  
    18    3   17 1  
    19    3   18 1  
    20    4   19 1  
    21    4   20 1  
    22    5   21 1  
    23    5   22 1  
    24   10   23 1  
    25   11   24 1  
    26   12   25 1  
