#      Rotatable Fragment
#      Build by yxyuan
#
# Name:          frag5-516-388/138278
# Creation time: Sat Jun  5 12:53:40 2010


@<TRIPOS>MOLECULE
frag5-516-388/138278
   19    20     1     1     1
SMALL
USER_CHARGES


@<TRIPOS>ATOM
      1 N1         -1.6868   -1.2968   -0.1035 N.am       1 <1>        0.000
      2 C1         -1.8054    0.1301   -0.4042 C.3        1 <1>        0.000
      3 C2         -0.5087   -1.8817   -0.1587 C.2        1 <1>        0.000
      4 C3         -2.8914   -1.6886    0.2463 C.2        1 <1>        0.000
      5 C4         -3.2175   -0.2444    0.1238 C.3        1 <1>        0.000
      6 C5         -0.3625    0.3633    0.0044 C.3        1 <1>        0.000
      7 C6          0.4507   -0.9151   -0.1700 C.2        1 <1>        0.000
      8 C7         -0.2703   -3.3524   -0.1669 C.2        1 <1>        0.000
      9 O1         -3.4599   -2.7032    0.5586 O.2        1 <1>        0.000
     10 S1          2.1354   -0.9789   -0.2723 S.3        1 <1>        0.000
     11 O2         -0.7831   -4.1172   -1.1510 O.3        1 <1>        0.000
     12 O3          0.3859   -3.8960    0.7116 O.2        1 <1>        0.000
     13 H          -1.9049    0.9916   -1.0646 H.spc      1 <1>        0.000
     14 H          -3.5853    0.2731    1.0098 H.spc      1 <1>        0.000
     15 H          -4.0798    0.0349   -0.4816 H.spc      1 <1>        0.000
     16 H           0.0636    1.1446   -0.6250 H.spc      1 <1>        0.000
     17 H          -0.3335    0.6632    1.0519 H.spc      1 <1>        0.000
     18 H           2.6268    0.2566   -0.2434 H.spc      1 <1>        0.000
     19 H          -1.2700   -3.5626   -1.7650 H.spc      1 <1>        0.000
@<TRIPOS>BOND
     1    4    5 1  
     2    8   12 2  
     3    8   11 1  
     4    7   10 1  
     5    3    8 1  
     6    3    7 2  
     7    6    7 1  
     8    4    9 2  
     9    1    2 1  
    10    1    3 1  
    11    1    4 am 
    12    2    6 1  
    13    2    5 1  
    14    2   13 1  
    15    5   14 1  
    16    5   15 1  
    17    6   16 1  
    18    6   17 1  
    19   10   18 1  
    20   11   19 1  
# Name:          frag5-516-388/138278
# Creation time: Sat Jun  5 12:53:40 2010


@<TRIPOS>MOLECULE
frag5-516-388/138278
   19    20     1     1     1
SMALL
USER_CHARGES


@<TRIPOS>ATOM
      1 N1         -1.6783   -1.2970   -0.1453 N.am       1 <1>        0.000
      2 C1         -1.7739    0.1427   -0.4036 C.3        1 <1>        0.000
      3 C2         -0.4980   -1.8807   -0.1376 C.2        1 <1>        0.000
      4 C3         -2.9071   -1.6984    0.0812 C.2        1 <1>        0.000
      5 C4         -3.2231   -0.2508   -0.0051 C.3        1 <1>        0.000
      6 C5         -0.3685    0.3556    0.1284 C.3        1 <1>        0.000
      7 C6          0.4578   -0.9153   -0.0417 C.2        1 <1>        0.000
      8 C7         -0.2571   -3.3519   -0.1916 C.2        1 <1>        0.000
      9 O1         -3.4951   -2.7248    0.3083 O.2        1 <1>        0.000
     10 S1          2.1452   -0.9802   -0.0124 S.3        1 <1>        0.000
     11 O2         -1.1219   -4.1735    0.4304 O.3        1 <1>        0.000
     12 O3          0.7064   -3.8065   -0.7929 O.2        1 <1>        0.000
     13 H          -1.8212    1.0285   -1.0371 H.spc      1 <1>        0.000
     14 H          -3.6600    0.2294    0.8705 H.spc      1 <1>        0.000
     15 H          -4.0350    0.0560   -0.6645 H.spc      1 <1>        0.000
     16 H           0.1043    1.1654   -0.4273 H.spc      1 <1>        0.000
     17 H          -0.4224    0.6068    1.1877 H.spc      1 <1>        0.000
     18 H           2.6329    0.2525    0.0951 H.spc      1 <1>        0.000
     19 H          -1.8120   -3.6530    0.8481 H.spc      1 <1>        0.000
@<TRIPOS>BOND
     1    4    5 1  
     2    8   12 2  
     3    8   11 1  
     4    7   10 1  
     5    3    8 1  
     6    3    7 2  
     7    6    7 1  
     8    4    9 2  
     9    1    2 1  
    10    1    3 1  
    11    1    4 am 
    12    2    6 1  
    13    2    5 1  
    14    2   13 1  
    15    5   14 1  
    16    5   15 1  
    17    6   16 1  
    18    6   17 1  
    19   10   18 1  
    20   11   19 1  
# Name:          frag5-516-388/138278 -- energy: -2.798297
# Creation time: Sat Jun  5 12:53:40 2010


@<TRIPOS>MOLECULE
frag5-516-388/138278 -- energy: -2.798297
   19    20     1     1     1
SMALL
USER_CHARGES


@<TRIPOS>ATOM
      1 N1         -1.6868   -1.2968   -0.1035 N.am       1 <1>        0.000
      2 C1         -1.8054    0.1301   -0.4042 C.3        1 <1>        0.000
      3 C2         -0.5087   -1.8817   -0.1587 C.2        1 <1>        0.000
      4 C3         -2.8914   -1.6886    0.2463 C.2        1 <1>        0.000
      5 C4         -3.2175   -0.2444    0.1238 C.3        1 <1>        0.000
      6 C5         -0.3625    0.3633    0.0044 C.3        1 <1>        0.000
      7 C6          0.4507   -0.9151   -0.1700 C.2        1 <1>        0.000
      8 C7         -0.2703   -3.3524   -0.1669 C.2        1 <1>        0.000
      9 O1         -3.4599   -2.7032    0.5586 O.2        1 <1>        0.000
     10 S1          2.1354   -0.9789   -0.2723 S.3        1 <1>        0.000
     11 O2         -0.7831   -4.1172   -1.1510 O.3        1 <1>        0.000
     12 O3          0.3859   -3.8960    0.7116 O.2        1 <1>        0.000
     13 H          -1.9049    0.9916   -1.0646 H.spc      1 <1>        0.000
     14 H          -3.5853    0.2731    1.0098 H.spc      1 <1>        0.000
     15 H          -4.0798    0.0349   -0.4816 H.spc      1 <1>        0.000
     16 H           0.0636    1.1446   -0.6250 H.spc      1 <1>        0.000
     17 H          -0.3335    0.6632    1.0519 H.spc      1 <1>        0.000
     18 H           2.6268    0.2566   -0.2434 H.spc      1 <1>        0.000
     19 H          -1.2700   -3.5626   -1.7650 H.spc      1 <1>        0.000
@<TRIPOS>BOND
     1    4    5 1  
     2    8   12 2  
     3    8   11 1  
     4    7   10 1  
     5    3    8 1  
     6    3    7 2  
     7    6    7 1  
     8    4    9 2  
     9    1    2 1  
    10    1    3 1  
    11    1    4 am 
    12    2    6 1  
    13    2    5 1  
    14    2   13 1  
    15    5   14 1  
    16    5   15 1  
    17    6   16 1  
    18    6   17 1  
    19   10   18 1  
    20   11   19 1  
# Name:          frag5-516-388/138278 -- energy: -0.335402
# Creation time: Sat Jun  5 12:53:40 2010


@<TRIPOS>MOLECULE
frag5-516-388/138278 -- energy: -0.335402
   19    20     1     1     1
SMALL
USER_CHARGES


@<TRIPOS>ATOM
      1 N1         -1.6783   -1.2970   -0.1453 N.am       1 <1>        0.000
      2 C1         -1.7739    0.1427   -0.4036 C.3        1 <1>        0.000
      3 C2         -0.4980   -1.8807   -0.1376 C.2        1 <1>        0.000
      4 C3         -2.9071   -1.6984    0.0812 C.2        1 <1>        0.000
      5 C4         -3.2231   -0.2508   -0.0051 C.3        1 <1>        0.000
      6 C5         -0.3685    0.3556    0.1284 C.3        1 <1>        0.000
      7 C6          0.4578   -0.9153   -0.0417 C.2        1 <1>        0.000
      8 C7         -0.2571   -3.3519   -0.1916 C.2        1 <1>        0.000
      9 O1         -3.4951   -2.7248    0.3083 O.2        1 <1>        0.000
     10 S1          2.1452   -0.9802   -0.0124 S.3        1 <1>        0.000
     11 O2         -1.1219   -4.1735    0.4304 O.3        1 <1>        0.000
     12 O3          0.7064   -3.8065   -0.7929 O.2        1 <1>        0.000
     13 H          -1.8212    1.0285   -1.0371 H.spc      1 <1>        0.000
     14 H          -3.6600    0.2294    0.8705 H.spc      1 <1>        0.000
     15 H          -4.0350    0.0560   -0.6645 H.spc      1 <1>        0.000
     16 H           0.1043    1.1654   -0.4273 H.spc      1 <1>        0.000
     17 H          -0.4224    0.6068    1.1877 H.spc      1 <1>        0.000
     18 H           2.6329    0.2525    0.0951 H.spc      1 <1>        0.000
     19 H          -1.8120   -3.6530    0.8481 H.spc      1 <1>        0.000
@<TRIPOS>BOND
     1    4    5 1  
     2    8   12 2  
     3    8   11 1  
     4    7   10 1  
     5    3    8 1  
     6    3    7 2  
     7    6    7 1  
     8    4    9 2  
     9    1    2 1  
    10    1    3 1  
    11    1    4 am 
    12    2    6 1  
    13    2    5 1  
    14    2   13 1  
    15    5   14 1  
    16    5   15 1  
    17    6   16 1  
    18    6   17 1  
    19   10   18 1  
    20   11   19 1  
