#      Rotatable Fragment
#      Build by yxyuan
#
# Name:          frag2-031-368/92655
# Creation time: Sat Jun  5 12:51:56 2010


@<TRIPOS>MOLECULE
frag2-031-368/92655
   10    10     1     1     1
SMALL
USER_CHARGES


@<TRIPOS>ATOM
      1 C5          1.5743    0.0254   -0.0621 C.ar       1 <1>        0.000
      2 N3          0.9462   -1.1747   -0.0120 N.ar       1 <1>        0.000
      3 C6         -0.4104   -1.1904    0.0414 C.ar       1 <1>        0.000
      4 C7         -1.1237   -0.0211    0.0444 C.ar       1 <1>        0.000
      5 C8         -0.4481    1.1765   -0.0077 C.ar       1 <1>        0.000
      6 N4          0.9146    1.2080   -0.0608 N.ar       1 <1>        0.000
      7 H           2.6633    0.0392   -0.1055 H.spc      1 <1>        0.000
      8 H          -0.9374   -2.1436    0.0823 H.spc      1 <1>        0.000
      9 H          -2.2127   -0.0390    0.0875 H.spc      1 <1>        0.000
     10 H          -1.0086    2.1113   -0.0065 H.spc      1 <1>        0.000
@<TRIPOS>BOND
     1    1    2 ar 
     2    1    6 ar 
     3    2    3 ar 
     4    3    4 ar 
     5    4    5 ar 
     6    5    6 ar 
     7    1    7 1  
     8    3    8 1  
     9    4    9 1  
    10    5   10 1  
# Name:          frag2-031-368/92655 -- energy: 0.347480
# Creation time: Sat Jun  5 12:51:56 2010


@<TRIPOS>MOLECULE
frag2-031-368/92655 -- energy: 0.347480
   10    10     1     1     1
SMALL
USER_CHARGES


@<TRIPOS>ATOM
      1 C5          1.5743    0.0254   -0.0621 C.ar       1 <1>        0.000
      2 N3          0.9462   -1.1747   -0.0120 N.ar       1 <1>        0.000
      3 C6         -0.4104   -1.1904    0.0414 C.ar       1 <1>        0.000
      4 C7         -1.1237   -0.0211    0.0444 C.ar       1 <1>        0.000
      5 C8         -0.4481    1.1765   -0.0077 C.ar       1 <1>        0.000
      6 N4          0.9146    1.2080   -0.0608 N.ar       1 <1>        0.000
      7 H           2.6633    0.0392   -0.1055 H.spc      1 <1>        0.000
      8 H          -0.9374   -2.1436    0.0823 H.spc      1 <1>        0.000
      9 H          -2.2127   -0.0390    0.0875 H.spc      1 <1>        0.000
     10 H          -1.0086    2.1113   -0.0065 H.spc      1 <1>        0.000
@<TRIPOS>BOND
     1    1    2 ar 
     2    1    6 ar 
     3    2    3 ar 
     4    3    4 ar 
     5    4    5 ar 
     6    5    6 ar 
     7    1    7 1  
     8    3    8 1  
     9    4    9 1  
    10    5   10 1  
