#      Rotatable Fragment
#      Build by yxyuan
#
# Name:          frag3-204-8/96164
# Creation time: Sat Jun  5 12:53:10 2010


@<TRIPOS>MOLECULE
frag3-204-8/96164
   10     9     1     1     1
SMALL
USER_CHARGES


@<TRIPOS>ATOM
      1 C17         1.8585   -0.1023    0.0904 C.2        1 <1>        0.000
      2 N2          0.5653    0.4505   -0.0505 N.am       1 <1>        0.000
      3 O1          2.8801    0.6030    0.1895 O.2        1 <1>        0.000
      4 C21         0.2683    1.7740   -0.3090 C.2        1 <1>        0.000
      5 N3          1.1820    2.7603   -0.5802 N.am       1 <1>        0.000
      6 S1         -1.3042    2.3000   -0.3549 S.2        1 <1>        0.000
      7 H           1.9657   -1.1868    0.1132 H.spc      1 <1>        0.000
      8 H          -0.2233   -0.1888    0.0481 H.spc      1 <1>        0.000
      9 H           0.8642    3.7080   -0.7835 H.spc      1 <1>        0.000
     10 H           2.1793    2.5461   -0.5786 H.spc      1 <1>        0.000
@<TRIPOS>BOND
     1    1    2 am 
     2    1    3 2  
     3    2    4 am 
     4    4    5 am 
     5    4    6 2  
     6    1    7 1  
     7    2    8 1  
     8    5    9 1  
     9    5   10 1  
# Name:          frag3-204-8/96164
# Creation time: Sat Jun  5 12:53:10 2010


@<TRIPOS>MOLECULE
frag3-204-8/96164
   10     9     1     1     1
SMALL
USER_CHARGES


@<TRIPOS>ATOM
      1 C17         2.1843    0.3913   -0.1622 C.2        1 <1>        0.000
      2 N2          0.8154    0.7106   -0.0179 N.am       1 <1>        0.000
      3 O1          2.7822   -0.3718    0.6142 O.2        1 <1>        0.000
      4 C21         0.2089    1.9134   -0.3595 C.2        1 <1>        0.000
      5 N3          0.8741    3.0108   -0.8718 N.am       1 <1>        0.000
      6 S1         -1.4149    2.1311   -0.2175 S.2        1 <1>        0.000
      7 H           2.7390    0.8334   -0.9899 H.spc      1 <1>        0.000
      8 H           0.2134   -0.0127    0.3756 H.spc      1 <1>        0.000
      9 H           0.3537    3.8518   -1.1215 H.spc      1 <1>        0.000
     10 H           1.8855    2.9799   -1.0003 H.spc      1 <1>        0.000
@<TRIPOS>BOND
     1    1    2 am 
     2    1    3 2  
     3    2    4 am 
     4    4    5 am 
     5    4    6 2  
     6    1    7 1  
     7    2    8 1  
     8    5    9 1  
     9    5   10 1  
# Name:          frag3-204-8/96164
# Creation time: Sat Jun  5 12:53:10 2010


@<TRIPOS>MOLECULE
frag3-204-8/96164
   10     9     1     1     1
SMALL
USER_CHARGES


@<TRIPOS>ATOM
      1 C17         1.5994    0.1076    0.4104 C.2        1 <1>        0.000
      2 N2          1.4733    1.2024   -0.4764 N.am       1 <1>        0.000
      3 O1          2.5993   -0.6259    0.4460 O.2        1 <1>        0.000
      4 C21         0.4173    2.0959   -0.4897 C.2        1 <1>        0.000
      5 N3          0.4575    3.3934   -0.9128 N.am       1 <1>        0.000
      6 S1         -1.0966    1.6119    0.0077 S.2        1 <1>        0.000
      7 H           0.7781   -0.1017    1.0958 H.spc      1 <1>        0.000
      8 H           2.2183    1.3439   -1.1585 H.spc      1 <1>        0.000
      9 H          -0.3906    3.9600   -0.9015 H.spc      1 <1>        0.000
     10 H           1.3356    3.7961   -1.2402 H.spc      1 <1>        0.000
@<TRIPOS>BOND
     1    1    2 am 
     2    1    3 2  
     3    2    4 am 
     4    4    5 am 
     5    4    6 2  
     6    1    7 1  
     7    2    8 1  
     8    5    9 1  
     9    5   10 1  
# Name:          frag3-204-8/96164 -- energy: -0.151004
# Creation time: Sat Jun  5 12:53:10 2010


@<TRIPOS>MOLECULE
frag3-204-8/96164 -- energy: -0.151004
   10     9     1     1     1
SMALL
USER_CHARGES


@<TRIPOS>ATOM
      1 C17         1.8585   -0.1023    0.0904 C.2        1 <1>        0.000
      2 N2          0.5653    0.4505   -0.0505 N.am       1 <1>        0.000
      3 O1          2.8801    0.6030    0.1895 O.2        1 <1>        0.000
      4 C21         0.2683    1.7740   -0.3090 C.2        1 <1>        0.000
      5 N3          1.1820    2.7603   -0.5802 N.am       1 <1>        0.000
      6 S1         -1.3042    2.3000   -0.3549 S.2        1 <1>        0.000
      7 H           1.9657   -1.1868    0.1132 H.spc      1 <1>        0.000
      8 H          -0.2233   -0.1888    0.0481 H.spc      1 <1>        0.000
      9 H           0.8642    3.7080   -0.7835 H.spc      1 <1>        0.000
     10 H           2.1793    2.5461   -0.5786 H.spc      1 <1>        0.000
@<TRIPOS>BOND
     1    1    2 am 
     2    1    3 2  
     3    2    4 am 
     4    4    5 am 
     5    4    6 2  
     6    1    7 1  
     7    2    8 1  
     8    5    9 1  
     9    5   10 1  
# Name:          frag3-204-8/96164 -- energy: -0.612261
# Creation time: Sat Jun  5 12:53:10 2010


@<TRIPOS>MOLECULE
frag3-204-8/96164 -- energy: -0.612261
   10     9     1     1     1
SMALL
USER_CHARGES


@<TRIPOS>ATOM
      1 C17         2.1843    0.3913   -0.1622 C.2        1 <1>        0.000
      2 N2          0.8154    0.7106   -0.0179 N.am       1 <1>        0.000
      3 O1          2.7822   -0.3718    0.6142 O.2        1 <1>        0.000
      4 C21         0.2089    1.9134   -0.3595 C.2        1 <1>        0.000
      5 N3          0.8741    3.0108   -0.8718 N.am       1 <1>        0.000
      6 S1         -1.4149    2.1311   -0.2175 S.2        1 <1>        0.000
      7 H           2.7390    0.8334   -0.9899 H.spc      1 <1>        0.000
      8 H           0.2134   -0.0127    0.3756 H.spc      1 <1>        0.000
      9 H           0.3537    3.8518   -1.1215 H.spc      1 <1>        0.000
     10 H           1.8855    2.9799   -1.0003 H.spc      1 <1>        0.000
@<TRIPOS>BOND
     1    1    2 am 
     2    1    3 2  
     3    2    4 am 
     4    4    5 am 
     5    4    6 2  
     6    1    7 1  
     7    2    8 1  
     8    5    9 1  
     9    5   10 1  
# Name:          frag3-204-8/96164 -- energy: -0.492632
# Creation time: Sat Jun  5 12:53:10 2010


@<TRIPOS>MOLECULE
frag3-204-8/96164 -- energy: -0.492632
   10     9     1     1     1
SMALL
USER_CHARGES


@<TRIPOS>ATOM
      1 C17         1.5994    0.1076    0.4104 C.2        1 <1>        0.000
      2 N2          1.4733    1.2024   -0.4764 N.am       1 <1>        0.000
      3 O1          2.5993   -0.6259    0.4460 O.2        1 <1>        0.000
      4 C21         0.4173    2.0959   -0.4897 C.2        1 <1>        0.000
      5 N3          0.4575    3.3934   -0.9128 N.am       1 <1>        0.000
      6 S1         -1.0966    1.6119    0.0077 S.2        1 <1>        0.000
      7 H           0.7781   -0.1017    1.0958 H.spc      1 <1>        0.000
      8 H           2.2183    1.3439   -1.1585 H.spc      1 <1>        0.000
      9 H          -0.3906    3.9600   -0.9015 H.spc      1 <1>        0.000
     10 H           1.3356    3.7961   -1.2402 H.spc      1 <1>        0.000
@<TRIPOS>BOND
     1    1    2 am 
     2    1    3 2  
     3    2    4 am 
     4    4    5 am 
     5    4    6 2  
     6    1    7 1  
     7    2    8 1  
     8    5    9 1  
     9    5   10 1  
