#      Rotatable Fragment
#      Build by yxyuan
#
# Name:          frag5-521-126/41815
# Creation time: Sat Jun  5 12:52:51 2010


@<TRIPOS>MOLECULE
frag5-521-126/41815
   21    22     1     1     1
SMALL
USER_CHARGES


@<TRIPOS>ATOM
      1 O1          0.2038    0.4133    1.6409 O.3        1 <1>        0.000
      2 C1         -0.2975    0.1798    0.3221 C.3        1 <1>        0.000
      3 C2         -0.0814    1.4294   -0.5488 C.3        1 <1>        0.000
      4 C3          1.3648    1.8352   -0.5030 C.2        1 <1>        0.000
      5 C4          2.2162    1.3700    0.6663 C.ar       1 <1>        0.000
      6 C5          1.5685    0.6600    1.6899 C.ar       1 <1>        0.000
      7 C6          2.3207    0.1889    2.7677 C.ar       1 <1>        0.000
      8 C7          3.6940    0.4290    2.8659 C.ar       1 <1>        0.000
      9 C8          4.3111    1.1575    1.8413 C.ar       1 <1>        0.000
     10 C9          3.5945    1.6329    0.7371 C.ar       1 <1>        0.000
     11 O2          4.2659    2.3442   -0.2464 O.3        1 <1>        0.000
     12 O3          4.4029   -0.0495    3.9569 O.3        1 <1>        0.000
     13 O4          1.8450    2.5208   -1.3927 O.2        1 <1>        0.000
     14 H           0.2334   -0.6631   -0.1204 H.spc      1 <1>        0.000
     15 H          -1.3636   -0.0407    0.3764 H.spc      1 <1>        0.000
     16 H          -0.3612    1.2051   -1.5781 H.spc      1 <1>        0.000
     17 H          -0.6975    2.2448   -0.1698 H.spc      1 <1>        0.000
     18 H           1.8240   -0.3810    3.5529 H.spc      1 <1>        0.000
     19 H           5.3802    1.3601    1.9057 H.spc      1 <1>        0.000
     20 H           3.6463    2.6016   -0.9330 H.spc      1 <1>        0.000
     21 H           5.3261    0.1996    3.8715 H.spc      1 <1>        0.000
@<TRIPOS>BOND
     1    3    4 1  
     2    9   10 ar 
     3    4    5 1  
     4    7    8 ar 
     5    4   13 2  
     6   10   11 1  
     7    6    7 ar 
     8    5   10 ar 
     9    2    3 1  
    10    5    6 ar 
    11    1    2 1  
    12    1    6 1  
    13    8   12 1  
    14    8    9 ar 
    15    2   14 1  
    16    2   15 1  
    17    3   16 1  
    18    3   17 1  
    19    7   18 1  
    20    9   19 1  
    21   11   20 1  
    22   12   21 1  
