#      Rotatable Fragment
#      Build by yxyuan
#
# Name:          frag5-622-89/138278
# Creation time: Sat Jun  5 12:53:48 2010


@<TRIPOS>MOLECULE
frag5-622-89/138278
   23    24     1     1     1
SMALL
USER_CHARGES


@<TRIPOS>ATOM
      1 C1         -1.3657   -0.1587    0.1903 C.ar       1 <1>        0.000
      2 C2         -1.3455   -1.5641    0.0048 C.ar       1 <1>        0.000
      3 C3         -2.6692    0.5897    0.3936 C.3        1 <1>        0.000
      4 C4         -0.1460    0.5306    0.1781 C.ar       1 <1>        0.000
      5 C5         -0.1222   -2.2584   -0.1110 C.ar       1 <1>        0.000
      6 C6         -2.6386   -2.3569   -0.0930 C.3        1 <1>        0.000
      7 C8         -3.9621   -0.1452    0.0212 C.3        1 <1>        0.000
      8 C9          1.0601   -0.1310   -0.0005 C.ar       1 <1>        0.000
      9 C10         1.0687   -1.5143   -0.1160 C.ar       1 <1>        0.000
     10 O1         -0.1342   -3.6259   -0.2240 O.3        1 <1>        0.000
     11 C11        -3.6274   -1.4054   -0.7842 C.3        1 <1>        0.000
     12 H          -2.6199    1.4560   -0.2660 H.spc      1 <1>        0.000
     13 H          -2.7360    0.7837    1.4641 H.spc      1 <1>        0.000
     14 H          -0.1448    1.6123    0.3121 H.spc      1 <1>        0.000
     15 H          -2.9964   -2.6742    0.8865 H.spc      1 <1>        0.000
     16 H          -2.5067   -3.2831   -0.6523 H.spc      1 <1>        0.000
     17 H          -4.4913   -0.4283    0.9311 H.spc      1 <1>        0.000
     18 H          -4.5902    0.5116   -0.5806 H.spc      1 <1>        0.000
     19 H           1.9930    0.4305   -0.0497 H.spc      1 <1>        0.000
     20 H           2.0215   -2.0348   -0.2128 H.spc      1 <1>        0.000
     21 H          -1.0410   -3.9400   -0.1992 H.spc      1 <1>        0.000
     22 H          -3.1594   -1.0769   -1.7122 H.spc      1 <1>        0.000
     23 H          -4.5588   -1.9552   -0.9194 H.spc      1 <1>        0.000
@<TRIPOS>BOND
     1    2    6 1  
     2    7   11 1  
     3    1    4 ar 
     4    5   10 1  
     5    4    8 ar 
     6    8    9 ar 
     7    1    3 1  
     8    5    9 ar 
     9    1    2 ar 
    10    2    5 ar 
    11    3    7 1  
    12    6   11 1  
    13    3   12 1  
    14    3   13 1  
    15    4   14 1  
    16    6   15 1  
    17    6   16 1  
    18    7   17 1  
    19    7   18 1  
    20    8   19 1  
    21    9   20 1  
    22   10   21 1  
    23   11   22 1  
    24   11   23 1  
# Name:          frag5-622-89/138278 -- energy: 1.774813
# Creation time: Sat Jun  5 12:53:48 2010


@<TRIPOS>MOLECULE
frag5-622-89/138278 -- energy: 1.774813
   23    24     1     1     1
SMALL
USER_CHARGES


@<TRIPOS>ATOM
      1 C1         -1.3657   -0.1587    0.1903 C.ar       1 <1>        0.000
      2 C2         -1.3455   -1.5641    0.0048 C.ar       1 <1>        0.000
      3 C3         -2.6692    0.5897    0.3936 C.3        1 <1>        0.000
      4 C4         -0.1460    0.5306    0.1781 C.ar       1 <1>        0.000
      5 C5         -0.1222   -2.2584   -0.1110 C.ar       1 <1>        0.000
      6 C6         -2.6386   -2.3569   -0.0930 C.3        1 <1>        0.000
      7 C8         -3.9621   -0.1452    0.0212 C.3        1 <1>        0.000
      8 C9          1.0601   -0.1310   -0.0005 C.ar       1 <1>        0.000
      9 C10         1.0687   -1.5143   -0.1160 C.ar       1 <1>        0.000
     10 O1         -0.1342   -3.6259   -0.2240 O.3        1 <1>        0.000
     11 C11        -3.6274   -1.4054   -0.7842 C.3        1 <1>        0.000
     12 H          -2.6199    1.4560   -0.2660 H.spc      1 <1>        0.000
     13 H          -2.7360    0.7837    1.4641 H.spc      1 <1>        0.000
     14 H          -0.1448    1.6123    0.3121 H.spc      1 <1>        0.000
     15 H          -2.9964   -2.6742    0.8865 H.spc      1 <1>        0.000
     16 H          -2.5067   -3.2831   -0.6523 H.spc      1 <1>        0.000
     17 H          -4.4913   -0.4283    0.9311 H.spc      1 <1>        0.000
     18 H          -4.5902    0.5116   -0.5806 H.spc      1 <1>        0.000
     19 H           1.9930    0.4305   -0.0497 H.spc      1 <1>        0.000
     20 H           2.0215   -2.0348   -0.2128 H.spc      1 <1>        0.000
     21 H          -1.0410   -3.9400   -0.1992 H.spc      1 <1>        0.000
     22 H          -3.1594   -1.0769   -1.7122 H.spc      1 <1>        0.000
     23 H          -4.5588   -1.9552   -0.9194 H.spc      1 <1>        0.000
@<TRIPOS>BOND
     1    2    6 1  
     2    7   11 1  
     3    1    4 ar 
     4    5   10 1  
     5    4    8 ar 
     6    8    9 ar 
     7    1    3 1  
     8    5    9 ar 
     9    1    2 ar 
    10    2    5 ar 
    11    3    7 1  
    12    6   11 1  
    13    3   12 1  
    14    3   13 1  
    15    4   14 1  
    16    6   15 1  
    17    6   16 1  
    18    7   17 1  
    19    7   18 1  
    20    8   19 1  
    21    9   20 1  
    22   10   21 1  
    23   11   22 1  
    24   11   23 1  
