#      Rotatable Fragment
#      Build by yxyuan
#
# Name:          frag4-354-374/150395
# Creation time: Sat Jun  5 12:53:32 2010


@<TRIPOS>MOLECULE
frag4-354-374/150395
   13    14     1     1     1
SMALL
USER_CHARGES


@<TRIPOS>ATOM
      1 C1          0.3005   -0.9636   -0.0447 C.2        1 <1>        0.000
      2 C2          0.6432    0.5048    0.0291 C.2        1 <1>        0.000
      3 N1         -1.1367   -1.4020   -0.0681 N.2        1 <1>        0.000
      4 N2          1.4100   -1.5919   -0.0767 N.2        1 <1>        0.000
      5 N3          1.9252    0.6718    0.0382 N.2        1 <1>        0.000
      6 C3         -0.5320    1.3976    0.0720 C.2        1 <1>        0.000
      7 C4         -1.9785   -0.4516   -0.0242 C.2        1 <1>        0.000
      8 C6          2.4860   -0.6785   -0.0349 C.3        1 <1>        0.000
      9 N4         -1.7375    0.9187    0.0437 N.2        1 <1>        0.000
     10 H          -0.3845    2.4761    0.1283 H.spc      1 <1>        0.000
     11 H          -3.0275   -0.7473   -0.0420 H.spc      1 <1>        0.000
     12 H           3.1055   -0.7829   -0.9257 H.spc      1 <1>        0.000
     13 H           3.1147   -0.8743    0.8337 H.spc      1 <1>        0.000
@<TRIPOS>BOND
     1    7    9 1  
     2    1    2 1  
     3    1    3 1  
     4    1    4 2  
     5    2    5 2  
     6    2    6 1  
     7    3    7 2  
     8    4    8 1  
     9    5    8 1  
    10    6    9 2  
    11    6   10 1  
    12    7   11 1  
    13    8   12 1  
    14    8   13 1  
# Name:          frag4-354-374/150395 -- energy: -0.426920
# Creation time: Sat Jun  5 12:53:32 2010


@<TRIPOS>MOLECULE
frag4-354-374/150395 -- energy: -0.426920
   13    14     1     1     1
SMALL
USER_CHARGES


@<TRIPOS>ATOM
      1 C1          0.3005   -0.9636   -0.0447 C.2        1 <1>        0.000
      2 C2          0.6432    0.5048    0.0291 C.2        1 <1>        0.000
      3 N1         -1.1367   -1.4020   -0.0681 N.2        1 <1>        0.000
      4 N2          1.4100   -1.5919   -0.0767 N.2        1 <1>        0.000
      5 N3          1.9252    0.6718    0.0382 N.2        1 <1>        0.000
      6 C3         -0.5320    1.3976    0.0720 C.2        1 <1>        0.000
      7 C4         -1.9785   -0.4516   -0.0242 C.2        1 <1>        0.000
      8 C6          2.4860   -0.6785   -0.0349 C.3        1 <1>        0.000
      9 N4         -1.7375    0.9187    0.0437 N.2        1 <1>        0.000
     10 H          -0.3845    2.4761    0.1283 H.spc      1 <1>        0.000
     11 H          -3.0275   -0.7473   -0.0420 H.spc      1 <1>        0.000
     12 H           3.1055   -0.7829   -0.9257 H.spc      1 <1>        0.000
     13 H           3.1147   -0.8743    0.8337 H.spc      1 <1>        0.000
@<TRIPOS>BOND
     1    7    9 1  
     2    1    2 1  
     3    1    3 1  
     4    1    4 2  
     5    2    5 2  
     6    2    6 1  
     7    3    7 2  
     8    4    8 1  
     9    5    8 1  
    10    6    9 2  
    11    6   10 1  
    12    7   11 1  
    13    8   12 1  
    14    8   13 1  
