#      Rotatable Fragment
#      Build by yxyuan
#
# Name:          frag4-358-103/48856
# Creation time: Sat Jun  5 12:53:14 2010


@<TRIPOS>MOLECULE
frag4-358-103/48856
   25    26     1     1     1
SMALL
USER_CHARGES


@<TRIPOS>ATOM
      1 C9          1.5511    1.8741    1.5675 C.3        1 <1>        0.000
      2 C10         0.0860    1.9432    1.2927 C.3        1 <1>        0.000
      3 C11        -0.1828    1.5834   -0.1660 C.3        1 <1>        0.000
      4 C12        -1.6958    1.5616   -0.2303 C.3        1 <1>        0.000
      5 C13        -2.1216    0.9837    1.1268 C.3        1 <1>        0.000
      6 C14        -0.8857    1.0558    2.0358 C.3        1 <1>        0.000
      7 C23         0.5918    2.4432   -1.1396 C.3        1 <1>        0.000
      8 C24         2.0932    2.3601   -0.8509 C.3        1 <1>        0.000
      9 C25         2.4509    2.6348    0.6277 C.3        1 <1>        0.000
     10 H           1.6943    2.3229    2.5504 H.spc      1 <1>        0.000
     11 H           1.8273    0.8247    1.4650 H.spc      1 <1>        0.000
     12 H          -0.1052    2.9647    1.6216 H.spc      1 <1>        0.000
     13 H           0.1975    0.6166   -0.4959 H.spc      1 <1>        0.000
     14 H          -2.1146    2.5526   -0.4052 H.spc      1 <1>        0.000
     15 H          -2.0636    0.9652   -1.0652 H.spc      1 <1>        0.000
     16 H          -2.4709   -0.0435    1.0223 H.spc      1 <1>        0.000
     17 H          -2.9517    1.5495    1.5497 H.spc      1 <1>        0.000
     18 H          -1.1283    1.4540    3.0210 H.spc      1 <1>        0.000
     19 H          -0.4669    0.0687    2.2316 H.spc      1 <1>        0.000
     20 H           0.2675    3.4784   -1.0337 H.spc      1 <1>        0.000
     21 H           0.4056    2.0868   -2.1527 H.spc      1 <1>        0.000
     22 H           2.4167    1.3456   -1.0839 H.spc      1 <1>        0.000
     23 H           2.5863    3.1217   -1.4549 H.spc      1 <1>        0.000
     24 H           3.4781    2.3129    0.7988 H.spc      1 <1>        0.000
     25 H           2.3266    3.7006    0.8195 H.spc      1 <1>        0.000
@<TRIPOS>BOND
     1    1    9 1  
     2    4    5 1  
     3    2    3 1  
     4    2    6 1  
     5    8    9 1  
     6    3    7 1  
     7    7    8 1  
     8    1    2 1  
     9    3    4 1  
    10    5    6 1  
    11    1   10 1  
    12    1   11 1  
    13    2   12 1  
    14    3   13 1  
    15    4   14 1  
    16    4   15 1  
    17    5   16 1  
    18    5   17 1  
    19    6   18 1  
    20    6   19 1  
    21    7   20 1  
    22    7   21 1  
    23    8   22 1  
    24    8   23 1  
    25    9   24 1  
    26    9   25 1  
# Name:          frag4-358-103/48856 -- energy: -3.190532
# Creation time: Sat Jun  5 12:53:14 2010


@<TRIPOS>MOLECULE
frag4-358-103/48856 -- energy: -3.190532
   25    26     1     1     1
SMALL
USER_CHARGES


@<TRIPOS>ATOM
      1 C9          1.5511    1.8741    1.5675 C.3        1 <1>        0.000
      2 C10         0.0860    1.9432    1.2927 C.3        1 <1>        0.000
      3 C11        -0.1828    1.5834   -0.1660 C.3        1 <1>        0.000
      4 C12        -1.6958    1.5616   -0.2303 C.3        1 <1>        0.000
      5 C13        -2.1216    0.9837    1.1268 C.3        1 <1>        0.000
      6 C14        -0.8857    1.0558    2.0358 C.3        1 <1>        0.000
      7 C23         0.5918    2.4432   -1.1396 C.3        1 <1>        0.000
      8 C24         2.0932    2.3601   -0.8509 C.3        1 <1>        0.000
      9 C25         2.4509    2.6348    0.6277 C.3        1 <1>        0.000
     10 H           1.6943    2.3229    2.5504 H.spc      1 <1>        0.000
     11 H           1.8273    0.8247    1.4650 H.spc      1 <1>        0.000
     12 H          -0.1052    2.9647    1.6216 H.spc      1 <1>        0.000
     13 H           0.1975    0.6166   -0.4959 H.spc      1 <1>        0.000
     14 H          -2.1146    2.5526   -0.4052 H.spc      1 <1>        0.000
     15 H          -2.0636    0.9652   -1.0652 H.spc      1 <1>        0.000
     16 H          -2.4709   -0.0435    1.0223 H.spc      1 <1>        0.000
     17 H          -2.9517    1.5495    1.5497 H.spc      1 <1>        0.000
     18 H          -1.1283    1.4540    3.0210 H.spc      1 <1>        0.000
     19 H          -0.4669    0.0687    2.2316 H.spc      1 <1>        0.000
     20 H           0.2675    3.4784   -1.0337 H.spc      1 <1>        0.000
     21 H           0.4056    2.0868   -2.1527 H.spc      1 <1>        0.000
     22 H           2.4167    1.3456   -1.0839 H.spc      1 <1>        0.000
     23 H           2.5863    3.1217   -1.4549 H.spc      1 <1>        0.000
     24 H           3.4781    2.3129    0.7988 H.spc      1 <1>        0.000
     25 H           2.3266    3.7006    0.8195 H.spc      1 <1>        0.000
@<TRIPOS>BOND
     1    1    9 1  
     2    4    5 1  
     3    2    3 1  
     4    2    6 1  
     5    8    9 1  
     6    3    7 1  
     7    7    8 1  
     8    1    2 1  
     9    3    4 1  
    10    5    6 1  
    11    1   10 1  
    12    1   11 1  
    13    2   12 1  
    14    3   13 1  
    15    4   14 1  
    16    4   15 1  
    17    5   16 1  
    18    5   17 1  
    19    6   18 1  
    20    6   19 1  
    21    7   20 1  
    22    7   21 1  
    23    8   22 1  
    24    8   23 1  
    25    9   24 1  
    26    9   25 1  
