#      Rotatable Fragment
#      Build by yxyuan
#
# Name:          frag4-406-190/150395
# Creation time: Sat Jun  5 12:53:34 2010


@<TRIPOS>MOLECULE
frag4-406-190/150395
   18    19     1     1     1
SMALL
USER_CHARGES


@<TRIPOS>ATOM
      1 C1          0.8784   -0.1986    0.0481 C.ar       1 <1>        0.000
      2 C2          1.1443    1.1926   -0.1886 C.ar       1 <1>        0.000
      3 C3          2.0715   -1.1255    0.0063 C.2        1 <1>        0.000
      4 C4         -0.4339   -0.7455    0.2846 C.ar       1 <1>        0.000
      5 O1          2.4291    1.6733   -0.4475 O.3        1 <1>        0.000
      6 C5         -0.0333    2.0797   -0.1947 C.ar       1 <1>        0.000
      7 C6          3.3044   -0.6132   -0.0485 C.2        1 <1>        0.000
      8 C7         -1.5442    0.2227    0.1799 C.ar       1 <1>        0.000
      9 C8          3.5436    0.8759   -0.0096 C.3        1 <1>        0.000
     10 C9         -1.4188    1.6563   -0.0424 C.ar       1 <1>        0.000
     11 H           1.9270   -2.2058    0.0208 H.spc      1 <1>        0.000
     12 H          -0.5951   -1.7968    0.5233 H.spc      1 <1>        0.000
     13 H           0.1489    3.1465   -0.3246 H.spc      1 <1>        0.000
     14 H           4.1577   -1.2873   -0.1231 H.spc      1 <1>        0.000
     15 H          -2.5547   -0.1740    0.2785 H.spc      1 <1>        0.000
     16 H           3.7347    1.1403    1.0304 H.spc      1 <1>        0.000
     17 H           4.3697    1.0832   -0.6898 H.spc      1 <1>        0.000
     18 H          -2.2682    2.3377   -0.0897 H.spc      1 <1>        0.000
@<TRIPOS>BOND
     1    5    9 1  
     2    8   10 ar 
     3    7    9 1  
     4    6   10 ar 
     5    1    2 ar 
     6    1    4 ar 
     7    1    3 1  
     8    2    5 1  
     9    2    6 ar 
    10    3    7 2  
    11    4    8 ar 
    12    3   11 1  
    13    4   12 1  
    14    6   13 1  
    15    7   14 1  
    16    8   15 1  
    17    9   16 1  
    18    9   17 1  
    19   10   18 1  
# Name:          frag4-406-190/150395 -- energy: -0.887792
# Creation time: Sat Jun  5 12:53:34 2010


@<TRIPOS>MOLECULE
frag4-406-190/150395 -- energy: -0.887792
   18    19     1     1     1
SMALL
USER_CHARGES


@<TRIPOS>ATOM
      1 C1          0.8784   -0.1986    0.0481 C.ar       1 <1>        0.000
      2 C2          1.1443    1.1926   -0.1886 C.ar       1 <1>        0.000
      3 C3          2.0715   -1.1255    0.0063 C.2        1 <1>        0.000
      4 C4         -0.4339   -0.7455    0.2846 C.ar       1 <1>        0.000
      5 O1          2.4291    1.6733   -0.4475 O.3        1 <1>        0.000
      6 C5         -0.0333    2.0797   -0.1947 C.ar       1 <1>        0.000
      7 C6          3.3044   -0.6132   -0.0485 C.2        1 <1>        0.000
      8 C7         -1.5442    0.2227    0.1799 C.ar       1 <1>        0.000
      9 C8          3.5436    0.8759   -0.0096 C.3        1 <1>        0.000
     10 C9         -1.4188    1.6563   -0.0424 C.ar       1 <1>        0.000
     11 H           1.9270   -2.2058    0.0208 H.spc      1 <1>        0.000
     12 H          -0.5951   -1.7968    0.5233 H.spc      1 <1>        0.000
     13 H           0.1489    3.1465   -0.3246 H.spc      1 <1>        0.000
     14 H           4.1577   -1.2873   -0.1231 H.spc      1 <1>        0.000
     15 H          -2.5547   -0.1740    0.2785 H.spc      1 <1>        0.000
     16 H           3.7347    1.1403    1.0304 H.spc      1 <1>        0.000
     17 H           4.3697    1.0832   -0.6898 H.spc      1 <1>        0.000
     18 H          -2.2682    2.3377   -0.0897 H.spc      1 <1>        0.000
@<TRIPOS>BOND
     1    5    9 1  
     2    8   10 ar 
     3    7    9 1  
     4    6   10 ar 
     5    1    2 ar 
     6    1    4 ar 
     7    1    3 1  
     8    2    5 1  
     9    2    6 ar 
    10    3    7 2  
    11    4    8 ar 
    12    3   11 1  
    13    4   12 1  
    14    6   13 1  
    15    7   14 1  
    16    8   15 1  
    17    9   16 1  
    18    9   17 1  
    19   10   18 1  
