#      Rotatable Fragment
#      Build by yxyuan
#
# Name:          frag5-638-28/41815
# Creation time: Sat Jun  5 12:53:00 2010


@<TRIPOS>MOLECULE
frag5-638-28/41815
   15    15     1     1     1
SMALL
USER_CHARGES


@<TRIPOS>ATOM
      1 O2         -3.0466    0.2764    0.2650 O.3        1 <1>        0.000
      2 C16        -1.6794    0.1773    0.1505 C.ar       1 <1>        0.000
      3 C17        -1.0333   -1.0721    0.0276 C.ar       1 <1>        0.000
      4 C18         0.3773   -1.1770   -0.0913 C.ar       1 <1>        0.000
      5 C19         1.1873   -0.0232   -0.0896 C.ar       1 <1>        0.000
      6 C20         0.5474    1.2327    0.0331 C.ar       1 <1>        0.000
      7 C21        -0.8651    1.3233    0.1505 C.ar       1 <1>        0.000
      8 C22         2.6401   -0.1188   -0.2085 C.2        1 <1>        0.000
      9 O3          3.2492    0.5794   -1.0117 O.2        1 <1>        0.000
     10 H          -3.2943    1.2010    0.3376 H.spc      1 <1>        0.000
     11 H          -1.6344   -1.9814    0.0239 H.spc      1 <1>        0.000
     12 H           0.8390   -2.1599   -0.1849 H.spc      1 <1>        0.000
     13 H           1.1467    2.1432    0.0376 H.spc      1 <1>        0.000
     14 H          -1.3291    2.3053    0.2428 H.spc      1 <1>        0.000
     15 H           3.1882   -0.8178    0.4231 H.spc      1 <1>        0.000
@<TRIPOS>BOND
     1    8    9 2  
     2    1    2 1  
     3    2    3 ar 
     4    2    7 ar 
     5    3    4 ar 
     6    4    5 ar 
     7    5    6 ar 
     8    5    8 1  
     9    6    7 ar 
    10    1   10 1  
    11    3   11 1  
    12    4   12 1  
    13    6   13 1  
    14    7   14 1  
    15    8   15 1  
# Name:          frag5-638-28/41815 -- energy: -0.564459
# Creation time: Sat Jun  5 12:53:00 2010


@<TRIPOS>MOLECULE
frag5-638-28/41815 -- energy: -0.564459
   15    15     1     1     1
SMALL
USER_CHARGES


@<TRIPOS>ATOM
      1 O2         -3.0466    0.2764    0.2650 O.3        1 <1>        0.000
      2 C16        -1.6794    0.1773    0.1505 C.ar       1 <1>        0.000
      3 C17        -1.0333   -1.0721    0.0276 C.ar       1 <1>        0.000
      4 C18         0.3773   -1.1770   -0.0913 C.ar       1 <1>        0.000
      5 C19         1.1873   -0.0232   -0.0896 C.ar       1 <1>        0.000
      6 C20         0.5474    1.2327    0.0331 C.ar       1 <1>        0.000
      7 C21        -0.8651    1.3233    0.1505 C.ar       1 <1>        0.000
      8 C22         2.6401   -0.1188   -0.2085 C.2        1 <1>        0.000
      9 O3          3.2492    0.5794   -1.0117 O.2        1 <1>        0.000
     10 H          -3.2943    1.2010    0.3376 H.spc      1 <1>        0.000
     11 H          -1.6344   -1.9814    0.0239 H.spc      1 <1>        0.000
     12 H           0.8390   -2.1599   -0.1849 H.spc      1 <1>        0.000
     13 H           1.1467    2.1432    0.0376 H.spc      1 <1>        0.000
     14 H          -1.3291    2.3053    0.2428 H.spc      1 <1>        0.000
     15 H           3.1882   -0.8178    0.4231 H.spc      1 <1>        0.000
@<TRIPOS>BOND
     1    8    9 2  
     2    1    2 1  
     3    2    3 ar 
     4    2    7 ar 
     5    3    4 ar 
     6    4    5 ar 
     7    5    6 ar 
     8    5    8 1  
     9    6    7 ar 
    10    1   10 1  
    11    3   11 1  
    12    4   12 1  
    13    6   13 1  
    14    7   14 1  
    15    8   15 1  
