#      Rotatable Fragment
#      Build by yxyuan
#
# Name:          frag4-443-43/48856
# Creation time: Sat Jun  5 12:52:47 2010


@<TRIPOS>MOLECULE
frag4-443-43/48856
   17    17     1     1     1
SMALL
USER_CHARGES


@<TRIPOS>ATOM
      1 N2         -4.7883   -0.0205    0.9909 N.3        1 <1>        0.000
      2 C6         -4.1151    0.9566    0.2213 C.3        1 <1>        0.000
      3 C7         -2.6295    1.0394    0.1572 C.3        1 <1>        0.000
      4 N3         -1.8686    0.1007    0.9845 N.4        1 <1>        0.000
      5 C8         -2.5472   -1.1358    1.3895 C.3        1 <1>        0.000
      6 C9         -4.0209   -1.0355    1.6039 C.3        1 <1>        0.000
      7 H          -5.2175    0.4931    1.7606 H.spc      1 <1>        0.000
      8 H          -4.3999    1.8943    0.6986 H.spc      1 <1>        0.000
      9 H          -4.3987    0.7114   -0.8022 H.spc      1 <1>        0.000
     10 H          -2.3730    2.0326    0.5257 H.spc      1 <1>        0.000
     11 H          -2.3650    0.8055   -0.8740 H.spc      1 <1>        0.000
     12 H          -1.6602    0.5991    1.8497 H.spc      1 <1>        0.000
     13 H          -1.0753   -0.1921    0.4140 H.spc      1 <1>        0.000
     14 H          -2.1174   -1.4195    2.3502 H.spc      1 <1>        0.000
     15 H          -2.4048   -1.8438    0.5731 H.spc      1 <1>        0.000
     16 H          -4.4105   -1.9555    1.1681 H.spc      1 <1>        0.000
     17 H          -4.1152   -0.8256    2.6693 H.spc      1 <1>        0.000
@<TRIPOS>BOND
     1    1    6 1  
     2    1    2 1  
     3    2    3 1  
     4    3    4 1  
     5    4    5 1  
     6    5    6 1  
     7    1    7 1  
     8    2    8 1  
     9    2    9 1  
    10    3   10 1  
    11    3   11 1  
    12    4   12 1  
    13    4   13 1  
    14    5   14 1  
    15    5   15 1  
    16    6   16 1  
    17    6   17 1  
# Name:          frag4-443-43/48856 -- energy: -0.737549
# Creation time: Sat Jun  5 12:52:47 2010


@<TRIPOS>MOLECULE
frag4-443-43/48856 -- energy: -0.737549
   17    17     1     1     1
SMALL
USER_CHARGES


@<TRIPOS>ATOM
      1 N2         -4.7883   -0.0205    0.9909 N.3        1 <1>        0.000
      2 C6         -4.1151    0.9566    0.2213 C.3        1 <1>        0.000
      3 C7         -2.6295    1.0394    0.1572 C.3        1 <1>        0.000
      4 N3         -1.8686    0.1007    0.9845 N.4        1 <1>        0.000
      5 C8         -2.5472   -1.1358    1.3895 C.3        1 <1>        0.000
      6 C9         -4.0209   -1.0355    1.6039 C.3        1 <1>        0.000
      7 H          -5.2175    0.4931    1.7606 H.spc      1 <1>        0.000
      8 H          -4.3999    1.8943    0.6986 H.spc      1 <1>        0.000
      9 H          -4.3987    0.7114   -0.8022 H.spc      1 <1>        0.000
     10 H          -2.3730    2.0326    0.5257 H.spc      1 <1>        0.000
     11 H          -2.3650    0.8055   -0.8740 H.spc      1 <1>        0.000
     12 H          -1.6602    0.5991    1.8497 H.spc      1 <1>        0.000
     13 H          -1.0753   -0.1921    0.4140 H.spc      1 <1>        0.000
     14 H          -2.1174   -1.4195    2.3502 H.spc      1 <1>        0.000
     15 H          -2.4048   -1.8438    0.5731 H.spc      1 <1>        0.000
     16 H          -4.4105   -1.9555    1.1681 H.spc      1 <1>        0.000
     17 H          -4.1152   -0.8256    2.6693 H.spc      1 <1>        0.000
@<TRIPOS>BOND
     1    1    6 1  
     2    1    2 1  
     3    2    3 1  
     4    3    4 1  
     5    4    5 1  
     6    5    6 1  
     7    1    7 1  
     8    2    8 1  
     9    2    9 1  
    10    3   10 1  
    11    3   11 1  
    12    4   12 1  
    13    4   13 1  
    14    5   14 1  
    15    5   15 1  
    16    6   16 1  
    17    6   17 1  
