#      Rotatable Fragment
#      Build by yxyuan
#
# Name:          frag4-378-264/150395
# Creation time: Sat Jun  5 12:53:32 2010


@<TRIPOS>MOLECULE
frag4-378-264/150395
   16    17     1     1     1
SMALL
USER_CHARGES


@<TRIPOS>ATOM
      1 C1          0.4093    0.6771   -0.0540 C.2        1 <1>        0.000
      2 N1          1.6153    1.1284   -0.0620 N.2        1 <1>        0.000
      3 C2          0.3046   -0.8190    0.1069 C.2        1 <1>        0.000
      4 C3         -0.8491    1.4467   -0.1796 C.2        1 <1>        0.000
      5 C4          2.4373    0.0087    0.1089 C.3        1 <1>        0.000
      6 C6          1.5994   -1.1563    0.2082 C.2        1 <1>        0.000
      7 C7         -0.9580   -1.4531    0.1110 C.2        1 <1>        0.000
      8 C8         -2.0000    0.7312   -0.1705 C.2        1 <1>        0.000
      9 C10        -2.0685   -0.7015   -0.0299 C.2        1 <1>        0.000
     10 H          -0.8499    2.5326   -0.2745 H.spc      1 <1>        0.000
     11 H           3.0342    0.1180    1.0143 H.spc      1 <1>        0.000
     12 H           3.1155   -0.0899   -0.7387 H.spc      1 <1>        0.000
     13 H           1.9659   -2.1734    0.3467 H.spc      1 <1>        0.000
     14 H          -1.0332   -2.5344    0.2264 H.spc      1 <1>        0.000
     15 H          -2.9378    1.2765   -0.2768 H.spc      1 <1>        0.000
     16 H          -3.0429   -1.1899   -0.0377 H.spc      1 <1>        0.000
@<TRIPOS>BOND
     1    8    9 1  
     2    7    9 2  
     3    1    2 2  
     4    1    3 1  
     5    2    5 1  
     6    1    4 1  
     7    3    6 2  
     8    3    7 1  
     9    4    8 2  
    10    5    6 1  
    11    4   10 1  
    12    5   11 1  
    13    5   12 1  
    14    6   13 1  
    15    7   14 1  
    16    8   15 1  
    17    9   16 1  
# Name:          frag4-378-264/150395 -- energy: -0.776652
# Creation time: Sat Jun  5 12:53:32 2010


@<TRIPOS>MOLECULE
frag4-378-264/150395 -- energy: -0.776652
   16    17     1     1     1
SMALL
USER_CHARGES


@<TRIPOS>ATOM
      1 C1          0.4093    0.6771   -0.0540 C.2        1 <1>        0.000
      2 N1          1.6153    1.1284   -0.0620 N.2        1 <1>        0.000
      3 C2          0.3046   -0.8190    0.1069 C.2        1 <1>        0.000
      4 C3         -0.8491    1.4467   -0.1796 C.2        1 <1>        0.000
      5 C4          2.4373    0.0087    0.1089 C.3        1 <1>        0.000
      6 C6          1.5994   -1.1563    0.2082 C.2        1 <1>        0.000
      7 C7         -0.9580   -1.4531    0.1110 C.2        1 <1>        0.000
      8 C8         -2.0000    0.7312   -0.1705 C.2        1 <1>        0.000
      9 C10        -2.0685   -0.7015   -0.0299 C.2        1 <1>        0.000
     10 H          -0.8499    2.5326   -0.2745 H.spc      1 <1>        0.000
     11 H           3.0342    0.1180    1.0143 H.spc      1 <1>        0.000
     12 H           3.1155   -0.0899   -0.7387 H.spc      1 <1>        0.000
     13 H           1.9659   -2.1734    0.3467 H.spc      1 <1>        0.000
     14 H          -1.0332   -2.5344    0.2264 H.spc      1 <1>        0.000
     15 H          -2.9378    1.2765   -0.2768 H.spc      1 <1>        0.000
     16 H          -3.0429   -1.1899   -0.0377 H.spc      1 <1>        0.000
@<TRIPOS>BOND
     1    8    9 1  
     2    7    9 2  
     3    1    2 2  
     4    1    3 1  
     5    2    5 1  
     6    1    4 1  
     7    3    6 2  
     8    3    7 1  
     9    4    8 2  
    10    5    6 1  
    11    4   10 1  
    12    5   11 1  
    13    5   12 1  
    14    6   13 1  
    15    7   14 1  
    16    8   15 1  
    17    9   16 1  
