#      Rotatable Fragment
#      Build by yxyuan
#
# Name:          frag3-168-14/96164
# Creation time: Sat Jun  5 12:53:07 2010


@<TRIPOS>MOLECULE
frag3-168-14/96164
   11    10     1     1     1
SMALL
USER_CHARGES


@<TRIPOS>ATOM
      1 N1         -1.6402   -0.7477    0.1512 N.pl3      1 <1>        0.000
      2 C7         -0.5234   -0.0257   -0.0123 C.cat      1 <1>        0.000
      3 N2          0.6898   -0.5449    0.3181 N.pl3      1 <1>        0.000
      4 N3         -0.6126    1.2127   -0.5176 N.pl3      1 <1>        0.000
      5 N4          1.0138   -1.6368    1.0204 N.3        1 <1>        0.000
      6 H          -2.5447   -0.3537   -0.1078 H.spc      1 <1>        0.000
      7 H           1.4874   -0.0116   -0.0281 H.spc      1 <1>        0.000
      8 H          -1.5232    1.5951   -0.7727 H.spc      1 <1>        0.000
      9 H           0.2301    1.7726   -0.6470 H.spc      1 <1>        0.000
     10 H           2.0293   -1.7189    1.0699 H.spc      1 <1>        0.000
     11 H           0.6315   -1.5593    1.9628 H.spc      1 <1>        0.000
@<TRIPOS>BOND
     1    1    2 ar 
     2    2    3 ar 
     3    2    4 ar 
     4    3    5 1  
     5    1    6 1  
     6    3    7 1  
     7    4    8 1  
     8    4    9 1  
     9    5   10 1  
    10    5   11 1  
# Name:          frag3-168-14/96164
# Creation time: Sat Jun  5 12:53:07 2010


@<TRIPOS>MOLECULE
frag3-168-14/96164
   11    10     1     1     1
SMALL
USER_CHARGES


@<TRIPOS>ATOM
      1 N1         -1.9489   -0.4991   -0.0686 N.pl3      1 <1>        0.000
      2 C7         -0.6545   -0.1897    0.0461 C.cat      1 <1>        0.000
      3 N2          0.2200   -1.0859    0.5676 N.pl3      1 <1>        0.000
      4 N3         -0.2301    1.0138   -0.3534 N.pl3      1 <1>        0.000
      5 N4          1.5411   -0.9815    0.7680 N.3        1 <1>        0.000
      6 H          -2.6030    0.1799   -0.4579 H.spc      1 <1>        0.000
      7 H          -0.1907   -1.9756    0.8506 H.spc      1 <1>        0.000
      8 H          -0.8927    1.6853   -0.7413 H.spc      1 <1>        0.000
      9 H           0.7562    1.2603   -0.2703 H.spc      1 <1>        0.000
     10 H           1.8906   -1.8464    1.1805 H.spc      1 <1>        0.000
     11 H           2.0071   -0.8164   -0.1242 H.spc      1 <1>        0.000
@<TRIPOS>BOND
     1    1    2 ar 
     2    2    3 ar 
     3    2    4 ar 
     4    3    5 1  
     5    1    6 1  
     6    3    7 1  
     7    4    8 1  
     8    4    9 1  
     9    5   10 1  
    10    5   11 1  
# Name:          frag3-168-14/96164 -- energy: -0.499940
# Creation time: Sat Jun  5 12:53:07 2010


@<TRIPOS>MOLECULE
frag3-168-14/96164 -- energy: -0.499940
   11    10     1     1     1
SMALL
USER_CHARGES


@<TRIPOS>ATOM
      1 N1         -1.6402   -0.7477    0.1512 N.pl3      1 <1>        0.000
      2 C7         -0.5234   -0.0257   -0.0123 C.cat      1 <1>        0.000
      3 N2          0.6898   -0.5449    0.3181 N.pl3      1 <1>        0.000
      4 N3         -0.6126    1.2127   -0.5176 N.pl3      1 <1>        0.000
      5 N4          1.0138   -1.6368    1.0204 N.3        1 <1>        0.000
      6 H          -2.5447   -0.3537   -0.1078 H.spc      1 <1>        0.000
      7 H           1.4874   -0.0116   -0.0281 H.spc      1 <1>        0.000
      8 H          -1.5232    1.5951   -0.7727 H.spc      1 <1>        0.000
      9 H           0.2301    1.7726   -0.6470 H.spc      1 <1>        0.000
     10 H           2.0293   -1.7189    1.0699 H.spc      1 <1>        0.000
     11 H           0.6315   -1.5593    1.9628 H.spc      1 <1>        0.000
@<TRIPOS>BOND
     1    1    2 ar 
     2    2    3 ar 
     3    2    4 ar 
     4    3    5 1  
     5    1    6 1  
     6    3    7 1  
     7    4    8 1  
     8    4    9 1  
     9    5   10 1  
    10    5   11 1  
# Name:          frag3-168-14/96164 -- energy: -0.554615
# Creation time: Sat Jun  5 12:53:07 2010


@<TRIPOS>MOLECULE
frag3-168-14/96164 -- energy: -0.554615
   11    10     1     1     1
SMALL
USER_CHARGES


@<TRIPOS>ATOM
      1 N1         -1.9489   -0.4991   -0.0686 N.pl3      1 <1>        0.000
      2 C7         -0.6545   -0.1897    0.0461 C.cat      1 <1>        0.000
      3 N2          0.2200   -1.0859    0.5676 N.pl3      1 <1>        0.000
      4 N3         -0.2301    1.0138   -0.3534 N.pl3      1 <1>        0.000
      5 N4          1.5411   -0.9815    0.7680 N.3        1 <1>        0.000
      6 H          -2.6030    0.1799   -0.4579 H.spc      1 <1>        0.000
      7 H          -0.1907   -1.9756    0.8506 H.spc      1 <1>        0.000
      8 H          -0.8927    1.6853   -0.7413 H.spc      1 <1>        0.000
      9 H           0.7562    1.2603   -0.2703 H.spc      1 <1>        0.000
     10 H           1.8906   -1.8464    1.1805 H.spc      1 <1>        0.000
     11 H           2.0071   -0.8164   -0.1242 H.spc      1 <1>        0.000
@<TRIPOS>BOND
     1    1    2 ar 
     2    2    3 ar 
     3    2    4 ar 
     4    3    5 1  
     5    1    6 1  
     6    3    7 1  
     7    4    8 1  
     8    4    9 1  
     9    5   10 1  
    10    5   11 1  
