#      Rotatable Fragment
#      Build by yxyuan
#
# Name:          frag4-472-97/150395
# Creation time: Sat Jun  5 12:53:37 2010


@<TRIPOS>MOLECULE
frag4-472-97/150395
   13    13     1     1     1
SMALL
USER_CHARGES


@<TRIPOS>ATOM
      1 C2          1.2984    1.2796    0.6931 C.3        1 <1>        0.000
      2 N1          2.4702    0.5182    0.3122 N.4        1 <1>        0.000
      3 S1          1.7153    2.9236    1.0077 S.3        1 <1>        0.000
      4 C7          3.5023    1.4301   -0.1848 C.3        1 <1>        0.000
      5 C8          3.3015    2.8874    0.1816 C.3        1 <1>        0.000
      6 H           0.8741    0.8443    1.5979 H.spc      1 <1>        0.000
      7 H           0.5774    1.2490   -0.1238 H.spc      1 <1>        0.000
      8 H           2.2213   -0.1463   -0.4205 H.spc      1 <1>        0.000
      9 H           2.8253    0.0112    1.1229 H.spc      1 <1>        0.000
     10 H           3.4747    1.3729   -1.2729 H.spc      1 <1>        0.000
     11 H           4.4426    1.1184    0.2699 H.spc      1 <1>        0.000
     12 H           3.3222    3.5364   -0.6939 H.spc      1 <1>        0.000
     13 H           4.1029    3.2641    0.8171 H.spc      1 <1>        0.000
@<TRIPOS>BOND
     1    1    2 1  
     2    1    3 1  
     3    2    4 1  
     4    4    5 1  
     5    3    5 1  
     6    1    6 1  
     7    1    7 1  
     8    2    8 1  
     9    2    9 1  
    10    4   10 1  
    11    4   11 1  
    12    5   12 1  
    13    5   13 1  
# Name:          frag4-472-97/150395 -- energy: -0.684869
# Creation time: Sat Jun  5 12:53:37 2010


@<TRIPOS>MOLECULE
frag4-472-97/150395 -- energy: -0.684869
   13    13     1     1     1
SMALL
USER_CHARGES


@<TRIPOS>ATOM
      1 C2          1.2984    1.2796    0.6931 C.3        1 <1>        0.000
      2 N1          2.4702    0.5182    0.3122 N.4        1 <1>        0.000
      3 S1          1.7153    2.9236    1.0077 S.3        1 <1>        0.000
      4 C7          3.5023    1.4301   -0.1848 C.3        1 <1>        0.000
      5 C8          3.3015    2.8874    0.1816 C.3        1 <1>        0.000
      6 H           0.8741    0.8443    1.5979 H.spc      1 <1>        0.000
      7 H           0.5774    1.2490   -0.1238 H.spc      1 <1>        0.000
      8 H           2.2213   -0.1463   -0.4205 H.spc      1 <1>        0.000
      9 H           2.8253    0.0112    1.1229 H.spc      1 <1>        0.000
     10 H           3.4747    1.3729   -1.2729 H.spc      1 <1>        0.000
     11 H           4.4426    1.1184    0.2699 H.spc      1 <1>        0.000
     12 H           3.3222    3.5364   -0.6939 H.spc      1 <1>        0.000
     13 H           4.1029    3.2641    0.8171 H.spc      1 <1>        0.000
@<TRIPOS>BOND
     1    1    2 1  
     2    1    3 1  
     3    2    4 1  
     4    4    5 1  
     5    3    5 1  
     6    1    6 1  
     7    1    7 1  
     8    2    8 1  
     9    2    9 1  
    10    4   10 1  
    11    4   11 1  
    12    5   12 1  
    13    5   13 1  
