#      Rotatable Fragment
#      Build by yxyuan
#
# Name:          frag4-416-52/48856
# Creation time: Sat Jun  5 12:52:02 2010


@<TRIPOS>MOLECULE
frag4-416-52/48856
   12    12     1     1     1
SMALL
USER_CHARGES


@<TRIPOS>ATOM
      1 S1         -5.0335    0.0190    3.0437 S.3        1 <1>        0.000
      2 C1         -6.0043   -0.8678    1.8743 C.3        1 <1>        0.000
      3 C2         -7.4475   -0.4251    1.9817 C.3        1 <1>        0.000
      4 N1         -7.5895    0.5592    2.9772 N.3        1 <1>        0.000
      5 C3         -6.3991    0.9001    3.6270 C.3        1 <1>        0.000
      6 H          -5.9348   -1.9362    2.0786 H.spc      1 <1>        0.000
      7 H          -5.6357   -0.6676    0.8682 H.spc      1 <1>        0.000
      8 H          -8.0627   -1.2855    2.2448 H.spc      1 <1>        0.000
      9 H          -7.7617   -0.0083    1.0248 H.spc      1 <1>        0.000
     10 H          -8.2188    0.1804    3.6849 H.spc      1 <1>        0.000
     11 H          -6.2132    1.9585    3.4445 H.spc      1 <1>        0.000
     12 H          -6.5192    0.6636    4.6842 H.spc      1 <1>        0.000
@<TRIPOS>BOND
     1    1    2 1  
     2    1    5 1  
     3    2    3 1  
     4    3    4 1  
     5    4    5 1  
     6    2    6 1  
     7    2    7 1  
     8    3    8 1  
     9    3    9 1  
    10    4   10 1  
    11    5   11 1  
    12    5   12 1  
# Name:          frag4-416-52/48856 -- energy: -0.506002
# Creation time: Sat Jun  5 12:52:02 2010


@<TRIPOS>MOLECULE
frag4-416-52/48856 -- energy: -0.506002
   12    12     1     1     1
SMALL
USER_CHARGES


@<TRIPOS>ATOM
      1 S1         -5.0335    0.0190    3.0437 S.3        1 <1>        0.000
      2 C1         -6.0043   -0.8678    1.8743 C.3        1 <1>        0.000
      3 C2         -7.4475   -0.4251    1.9817 C.3        1 <1>        0.000
      4 N1         -7.5895    0.5592    2.9772 N.3        1 <1>        0.000
      5 C3         -6.3991    0.9001    3.6270 C.3        1 <1>        0.000
      6 H          -5.9348   -1.9362    2.0786 H.spc      1 <1>        0.000
      7 H          -5.6357   -0.6676    0.8682 H.spc      1 <1>        0.000
      8 H          -8.0627   -1.2855    2.2448 H.spc      1 <1>        0.000
      9 H          -7.7617   -0.0083    1.0248 H.spc      1 <1>        0.000
     10 H          -8.2188    0.1804    3.6849 H.spc      1 <1>        0.000
     11 H          -6.2132    1.9585    3.4445 H.spc      1 <1>        0.000
     12 H          -6.5192    0.6636    4.6842 H.spc      1 <1>        0.000
@<TRIPOS>BOND
     1    1    2 1  
     2    1    5 1  
     3    2    3 1  
     4    3    4 1  
     5    4    5 1  
     6    2    6 1  
     7    2    7 1  
     8    3    8 1  
     9    3    9 1  
    10    4   10 1  
    11    5   11 1  
    12    5   12 1  
