#      Rotatable Fragment
#      Build by yxyuan
#
# Name:          frag4-372-83/48856
# Creation time: Sat Jun  5 12:53:32 2010


@<TRIPOS>MOLECULE
frag4-372-83/48856
   17    18     1     1     1
SMALL
USER_CHARGES


@<TRIPOS>ATOM
      1 C4          2.3331    0.5733    0.1972 C.ar       1 <1>        0.000
      2 C5          1.1705    1.3435    0.2405 C.ar       1 <1>        0.000
      3 C6         -0.0763    0.7431    0.1106 C.ar       1 <1>        0.000
      4 N1         -1.4117    1.2134    0.1179 N.pl3      1 <1>        0.000
      5 C7         -2.4162    0.1399   -0.1242 C.3        1 <1>        0.000
      6 N2         -1.5186   -1.0408   -0.2279 N.pl3      1 <1>        0.000
      7 C8         -0.1476   -0.7199   -0.1021 C.ar       1 <1>        0.000
      8 C9          1.0236   -1.4703   -0.1361 C.ar       1 <1>        0.000
      9 C10         2.2597   -0.8395    0.0086 C.ar       1 <1>        0.000
     10 H           3.3049    1.0543    0.3083 H.spc      1 <1>        0.000
     11 H           1.2404    2.4227    0.3770 H.spc      1 <1>        0.000
     12 H          -1.6613    2.1901    0.2734 H.spc      1 <1>        0.000
     13 H          -3.0457    0.3033   -0.9989 H.spc      1 <1>        0.000
     14 H          -3.1796    0.0568    0.6494 H.spc      1 <1>        0.000
     15 H          -1.8592   -1.9908   -0.3756 H.spc      1 <1>        0.000
     16 H           0.9755   -2.5503   -0.2757 H.spc      1 <1>        0.000
     17 H           3.1755   -1.4297   -0.0226 H.spc      1 <1>        0.000
@<TRIPOS>BOND
     1    6    7 1  
     2    8    9 ar 
     3    7    8 ar 
     4    1    2 ar 
     5    1    9 ar 
     6    2    3 ar 
     7    3    4 1  
     8    3    7 ar 
     9    4    5 1  
    10    5    6 1  
    11    1   10 1  
    12    2   11 1  
    13    4   12 1  
    14    5   13 1  
    15    5   14 1  
    16    6   15 1  
    17    8   16 1  
    18    9   17 1  
# Name:          frag4-372-83/48856 -- energy: -0.746106
# Creation time: Sat Jun  5 12:53:32 2010


@<TRIPOS>MOLECULE
frag4-372-83/48856 -- energy: -0.746106
   17    18     1     1     1
SMALL
USER_CHARGES


@<TRIPOS>ATOM
      1 C4          2.3331    0.5733    0.1972 C.ar       1 <1>        0.000
      2 C5          1.1705    1.3435    0.2405 C.ar       1 <1>        0.000
      3 C6         -0.0763    0.7431    0.1106 C.ar       1 <1>        0.000
      4 N1         -1.4117    1.2134    0.1179 N.pl3      1 <1>        0.000
      5 C7         -2.4162    0.1399   -0.1242 C.3        1 <1>        0.000
      6 N2         -1.5186   -1.0408   -0.2279 N.pl3      1 <1>        0.000
      7 C8         -0.1476   -0.7199   -0.1021 C.ar       1 <1>        0.000
      8 C9          1.0236   -1.4703   -0.1361 C.ar       1 <1>        0.000
      9 C10         2.2597   -0.8395    0.0086 C.ar       1 <1>        0.000
     10 H           3.3049    1.0543    0.3083 H.spc      1 <1>        0.000
     11 H           1.2404    2.4227    0.3770 H.spc      1 <1>        0.000
     12 H          -1.6613    2.1901    0.2734 H.spc      1 <1>        0.000
     13 H          -3.0457    0.3033   -0.9989 H.spc      1 <1>        0.000
     14 H          -3.1796    0.0568    0.6494 H.spc      1 <1>        0.000
     15 H          -1.8592   -1.9908   -0.3756 H.spc      1 <1>        0.000
     16 H           0.9755   -2.5503   -0.2757 H.spc      1 <1>        0.000
     17 H           3.1755   -1.4297   -0.0226 H.spc      1 <1>        0.000
@<TRIPOS>BOND
     1    6    7 1  
     2    8    9 ar 
     3    7    8 ar 
     4    1    2 ar 
     5    1    9 ar 
     6    2    3 ar 
     7    3    4 1  
     8    3    7 ar 
     9    4    5 1  
    10    5    6 1  
    11    1   10 1  
    12    2   11 1  
    13    4   12 1  
    14    5   13 1  
    15    5   14 1  
    16    6   15 1  
    17    8   16 1  
    18    9   17 1  
