#      Rotatable Fragment
#      Build by yxyuan
#
# Name:          frag4-328-684/150395
# Creation time: Sat Jun  5 12:53:31 2010


@<TRIPOS>MOLECULE
frag4-328-684/150395
   22    23     1     1     1
SMALL
USER_CHARGES


@<TRIPOS>ATOM
      1 C1         -0.8032   -1.0791    0.9269 C.3        1 <1>        0.000
      2 C3         -0.2394    0.1335    0.1578 C.3        1 <1>        0.000
      3 C4         -2.3104   -1.1580    0.7132 C.3        1 <1>        0.000
      4 C5         -0.5681   -0.0298   -1.3384 C.3        1 <1>        0.000
      5 C6         -0.9440    1.3898    0.6716 C.3        1 <1>        0.000
      6 N2         -2.7557   -0.1134   -0.2174 N.4        1 <1>        0.000
      7 C8         -2.0350   -0.4340   -1.4863 C.3        1 <1>        0.000
      8 C9         -2.4258    1.2174    0.3869 C.3        1 <1>        0.000
      9 H          -0.3352   -1.9925    0.5598 H.spc      1 <1>        0.000
     10 H          -0.5918   -0.9660    1.9902 H.spc      1 <1>        0.000
     11 H           0.8389    0.2067    0.2996 H.spc      1 <1>        0.000
     12 H          -2.8109   -1.0146    1.6708 H.spc      1 <1>        0.000
     13 H          -2.5571   -2.1333    0.2937 H.spc      1 <1>        0.000
     14 H          -0.3930    0.9125   -1.8575 H.spc      1 <1>        0.000
     15 H           0.0701   -0.7995   -1.7724 H.spc      1 <1>        0.000
     16 H          -0.5571    2.2791    0.1741 H.spc      1 <1>        0.000
     17 H          -0.7696    1.5196    1.7397 H.spc      1 <1>        0.000
     18 H          -3.7577   -0.0756   -0.4046 H.spc      1 <1>        0.000
     19 H          -2.4861    0.1126   -2.3144 H.spc      1 <1>        0.000
     20 H          -2.1040   -1.5027   -1.6893 H.spc      1 <1>        0.000
     21 H          -2.9568    1.2916    1.3359 H.spc      1 <1>        0.000
     22 H          -2.7183    1.9875   -0.3268 H.spc      1 <1>        0.000
@<TRIPOS>BOND
     1    1    3 1  
     2    2    5 1  
     3    6    8 1  
     4    5    8 1  
     5    3    6 1  
     6    6    7 1  
     7    4    7 1  
     8    2    4 1  
     9    1    2 1  
    10    1    9 1  
    11    1   10 1  
    12    2   11 1  
    13    3   12 1  
    14    3   13 1  
    15    4   14 1  
    16    4   15 1  
    17    5   16 1  
    18    5   17 1  
    19    6   18 1  
    20    7   19 1  
    21    7   20 1  
    22    8   21 1  
    23    8   22 1  
# Name:          frag4-328-684/150395 -- energy: -1.397113
# Creation time: Sat Jun  5 12:53:31 2010


@<TRIPOS>MOLECULE
frag4-328-684/150395 -- energy: -1.397113
   22    23     1     1     1
SMALL
USER_CHARGES


@<TRIPOS>ATOM
      1 C1         -0.8032   -1.0791    0.9269 C.3        1 <1>        0.000
      2 C3         -0.2394    0.1335    0.1578 C.3        1 <1>        0.000
      3 C4         -2.3104   -1.1580    0.7132 C.3        1 <1>        0.000
      4 C5         -0.5681   -0.0298   -1.3384 C.3        1 <1>        0.000
      5 C6         -0.9440    1.3898    0.6716 C.3        1 <1>        0.000
      6 N2         -2.7557   -0.1134   -0.2174 N.4        1 <1>        0.000
      7 C8         -2.0350   -0.4340   -1.4863 C.3        1 <1>        0.000
      8 C9         -2.4258    1.2174    0.3869 C.3        1 <1>        0.000
      9 H          -0.3352   -1.9925    0.5598 H.spc      1 <1>        0.000
     10 H          -0.5918   -0.9660    1.9902 H.spc      1 <1>        0.000
     11 H           0.8389    0.2067    0.2996 H.spc      1 <1>        0.000
     12 H          -2.8109   -1.0146    1.6708 H.spc      1 <1>        0.000
     13 H          -2.5571   -2.1333    0.2937 H.spc      1 <1>        0.000
     14 H          -0.3930    0.9125   -1.8575 H.spc      1 <1>        0.000
     15 H           0.0701   -0.7995   -1.7724 H.spc      1 <1>        0.000
     16 H          -0.5571    2.2791    0.1741 H.spc      1 <1>        0.000
     17 H          -0.7696    1.5196    1.7397 H.spc      1 <1>        0.000
     18 H          -3.7577   -0.0756   -0.4046 H.spc      1 <1>        0.000
     19 H          -2.4861    0.1126   -2.3144 H.spc      1 <1>        0.000
     20 H          -2.1040   -1.5027   -1.6893 H.spc      1 <1>        0.000
     21 H          -2.9568    1.2916    1.3359 H.spc      1 <1>        0.000
     22 H          -2.7183    1.9875   -0.3268 H.spc      1 <1>        0.000
@<TRIPOS>BOND
     1    1    3 1  
     2    2    5 1  
     3    6    8 1  
     4    5    8 1  
     5    3    6 1  
     6    6    7 1  
     7    4    7 1  
     8    2    4 1  
     9    1    2 1  
    10    1    9 1  
    11    1   10 1  
    12    2   11 1  
    13    3   12 1  
    14    3   13 1  
    15    4   14 1  
    16    4   15 1  
    17    5   16 1  
    18    5   17 1  
    19    6   18 1  
    20    7   19 1  
    21    7   20 1  
    22    8   21 1  
    23    8   22 1  
