#      Rotatable Fragment
#      Build by yxyuan
#
# Name:          frag4-310-383/48856
# Creation time: Sat Jun  5 12:52:47 2010


@<TRIPOS>MOLECULE
frag4-310-383/48856
   36    39     1     1     1
SMALL
USER_CHARGES


@<TRIPOS>ATOM
      1 C6         -1.0594   -0.9993    1.4211 C.3        1 <1>        0.000
      2 C7         -0.9628   -2.3188    2.1709 C.3        1 <1>        0.000
      3 C8          0.0770   -2.2324    3.2655 C.3        1 <1>        0.000
      4 C9          1.4580   -1.9987    2.6730 C.3        1 <1>        0.000
      5 C10         1.4666   -0.8994    1.6376 C.ar       1 <1>        0.000
      6 C11         0.2935   -0.4509    1.0344 C.ar       1 <1>        0.000
      7 C12         0.3799    0.5831    0.0688 C.ar       1 <1>        0.000
      8 C20         4.2629    4.3656   -3.1048 C.ar       1 <1>        0.000
      9 C13         1.6116    1.1471   -0.3305 C.ar       1 <1>        0.000
     10 C14         2.7792    0.6868    0.2534 C.ar       1 <1>        0.000
     11 C15         2.6998   -0.3358    1.2244 C.ar       1 <1>        0.000
     12 C16         4.0956    1.2532   -0.1339 C.3        1 <1>        0.000
     13 C17         4.1538    2.3262   -1.1603 C.ar       1 <1>        0.000
     14 C18         2.9551    2.7995   -1.7586 C.ar       1 <1>        0.000
     15 C19         3.0247    3.8197   -2.7262 C.ar       1 <1>        0.000
     16 C21         5.4367    3.8986   -2.5231 C.ar       1 <1>        0.000
     17 C22         5.3856    2.8826   -1.5538 C.ar       1 <1>        0.000
     18 C23         1.6476    2.2184   -1.3574 C.3        1 <1>        0.000
     19 H          -1.6246   -1.1742    0.5057 H.spc      1 <1>        0.000
     20 H          -1.5399   -0.2744    2.0782 H.spc      1 <1>        0.000
     21 H          -0.6751   -3.1032    1.4709 H.spc      1 <1>        0.000
     22 H          -1.9308   -2.5425    2.6194 H.spc      1 <1>        0.000
     23 H           0.0846   -3.1703    3.8209 H.spc      1 <1>        0.000
     24 H          -0.1709   -1.3997    3.9238 H.spc      1 <1>        0.000
     25 H           2.1249   -1.7024    3.4827 H.spc      1 <1>        0.000
     26 H           1.7747   -2.9210    2.1860 H.spc      1 <1>        0.000
     27 H          -0.5390    0.9571   -0.3827 H.spc      1 <1>        0.000
     28 H           4.3035    5.1555   -3.8548 H.spc      1 <1>        0.000
     29 H           3.6218   -0.7056    1.6730 H.spc      1 <1>        0.000
     30 H           4.6387    0.4173   -0.5749 H.spc      1 <1>        0.000
     31 H           4.4764    1.7179    0.7756 H.spc      1 <1>        0.000
     32 H           2.1086    4.1900   -3.1864 H.spc      1 <1>        0.000
     33 H           6.3969    4.3210   -2.8193 H.spc      1 <1>        0.000
     34 H           6.3094    2.5215   -1.1018 H.spc      1 <1>        0.000
     35 H           1.0996    3.0487   -0.9120 H.spc      1 <1>        0.000
     36 H           1.2630    1.7485   -2.2626 H.spc      1 <1>        0.000
@<TRIPOS>BOND
     1    6    7 ar 
     2    9   10 ar 
     3    1    6 1  
     4    5   11 ar 
     5    5    6 ar 
     6    4    5 1  
     7    1    2 1  
     8    2    3 1  
     9   10   11 ar 
    10    3    4 1  
    11    9   18 1  
    12   10   12 1  
    13    7    9 ar 
    14   16   17 ar 
    15    8   16 ar 
    16   15    8 ar 
    17   14   18 1  
    18   14   15 ar 
    19   13   17 ar 
    20   13   14 ar 
    21   12   13 1  
    22    1   19 1  
    23    1   20 1  
    24    2   21 1  
    25    2   22 1  
    26    3   23 1  
    27    3   24 1  
    28    4   25 1  
    29    4   26 1  
    30    7   27 1  
    31    8   28 1  
    32   11   29 1  
    33   12   30 1  
    34   12   31 1  
    35   15   32 1  
    36   16   33 1  
    37   17   34 1  
    38   18   35 1  
    39   18   36 1  
# Name:          frag4-310-383/48856 -- energy: -3.559224
# Creation time: Sat Jun  5 12:52:47 2010


@<TRIPOS>MOLECULE
frag4-310-383/48856 -- energy: -3.559224
   36    39     1     1     1
SMALL
USER_CHARGES


@<TRIPOS>ATOM
      1 C6         -1.0594   -0.9993    1.4211 C.3        1 <1>        0.000
      2 C7         -0.9628   -2.3188    2.1709 C.3        1 <1>        0.000
      3 C8          0.0770   -2.2324    3.2655 C.3        1 <1>        0.000
      4 C9          1.4580   -1.9987    2.6730 C.3        1 <1>        0.000
      5 C10         1.4666   -0.8994    1.6376 C.ar       1 <1>        0.000
      6 C11         0.2935   -0.4509    1.0344 C.ar       1 <1>        0.000
      7 C12         0.3799    0.5831    0.0688 C.ar       1 <1>        0.000
      8 C20         4.2629    4.3656   -3.1048 C.ar       1 <1>        0.000
      9 C13         1.6116    1.1471   -0.3305 C.ar       1 <1>        0.000
     10 C14         2.7792    0.6868    0.2534 C.ar       1 <1>        0.000
     11 C15         2.6998   -0.3358    1.2244 C.ar       1 <1>        0.000
     12 C16         4.0956    1.2532   -0.1339 C.3        1 <1>        0.000
     13 C17         4.1538    2.3262   -1.1603 C.ar       1 <1>        0.000
     14 C18         2.9551    2.7995   -1.7586 C.ar       1 <1>        0.000
     15 C19         3.0247    3.8197   -2.7262 C.ar       1 <1>        0.000
     16 C21         5.4367    3.8986   -2.5231 C.ar       1 <1>        0.000
     17 C22         5.3856    2.8826   -1.5538 C.ar       1 <1>        0.000
     18 C23         1.6476    2.2184   -1.3574 C.3        1 <1>        0.000
     19 H          -1.6246   -1.1742    0.5057 H.spc      1 <1>        0.000
     20 H          -1.5399   -0.2744    2.0782 H.spc      1 <1>        0.000
     21 H          -0.6751   -3.1032    1.4709 H.spc      1 <1>        0.000
     22 H          -1.9308   -2.5425    2.6194 H.spc      1 <1>        0.000
     23 H           0.0846   -3.1703    3.8209 H.spc      1 <1>        0.000
     24 H          -0.1709   -1.3997    3.9238 H.spc      1 <1>        0.000
     25 H           2.1249   -1.7024    3.4827 H.spc      1 <1>        0.000
     26 H           1.7747   -2.9210    2.1860 H.spc      1 <1>        0.000
     27 H          -0.5390    0.9571   -0.3827 H.spc      1 <1>        0.000
     28 H           4.3035    5.1555   -3.8548 H.spc      1 <1>        0.000
     29 H           3.6218   -0.7056    1.6730 H.spc      1 <1>        0.000
     30 H           4.6387    0.4173   -0.5749 H.spc      1 <1>        0.000
     31 H           4.4764    1.7179    0.7756 H.spc      1 <1>        0.000
     32 H           2.1086    4.1900   -3.1864 H.spc      1 <1>        0.000
     33 H           6.3969    4.3210   -2.8193 H.spc      1 <1>        0.000
     34 H           6.3094    2.5215   -1.1018 H.spc      1 <1>        0.000
     35 H           1.0996    3.0487   -0.9120 H.spc      1 <1>        0.000
     36 H           1.2630    1.7485   -2.2626 H.spc      1 <1>        0.000
@<TRIPOS>BOND
     1    6    7 ar 
     2    9   10 ar 
     3    1    6 1  
     4    5   11 ar 
     5    5    6 ar 
     6    4    5 1  
     7    1    2 1  
     8    2    3 1  
     9   10   11 ar 
    10    3    4 1  
    11    9   18 1  
    12   10   12 1  
    13    7    9 ar 
    14   16   17 ar 
    15    8   16 ar 
    16   15    8 ar 
    17   14   18 1  
    18   14   15 ar 
    19   13   17 ar 
    20   13   14 ar 
    21   12   13 1  
    22    1   19 1  
    23    1   20 1  
    24    2   21 1  
    25    2   22 1  
    26    3   23 1  
    27    3   24 1  
    28    4   25 1  
    29    4   26 1  
    30    7   27 1  
    31    8   28 1  
    32   11   29 1  
    33   12   30 1  
    34   12   31 1  
    35   15   32 1  
    36   16   33 1  
    37   17   34 1  
    38   18   35 1  
    39   18   36 1  
