#      Rotatable Fragment
#      Build by yxyuan
#
# Name:          frag4-429-134/150395
# Creation time: Sat Jun  5 12:53:35 2010


@<TRIPOS>MOLECULE
frag4-429-134/150395
   17    17     1     1     1
SMALL
USER_CHARGES


@<TRIPOS>ATOM
      1 C1          0.1032   -0.9784   -0.5070 C.3        1 <1>        0.000
      2 C4          0.0038   -2.4587   -0.3633 C.3        1 <1>        0.000
      3 C5         -1.0679   -0.2732    0.1225 C.3        1 <1>        0.000
      4 N1         -1.0935   -3.0866    0.2186 N.3        1 <1>        0.000
      5 C10        -2.3703   -0.9478   -0.1963 C.3        1 <1>        0.000
      6 C15        -2.2977   -2.3869    0.1833 C.3        1 <1>        0.000
      7 H           0.1153   -0.7384   -1.5702 H.spc      1 <1>        0.000
      8 H           1.0120   -0.6467   -0.0048 H.spc      1 <1>        0.000
      9 H           0.8200   -2.6993    0.3179 H.spc      1 <1>        0.000
     10 H          -0.0257   -2.8088   -1.3951 H.spc      1 <1>        0.000
     11 H          -1.1054    0.7424   -0.2716 H.spc      1 <1>        0.000
     12 H          -0.9328   -0.2882    1.2040 H.spc      1 <1>        0.000
     13 H          -0.8627   -3.2038    1.2052 H.spc      1 <1>        0.000
     14 H          -2.5671   -0.8659   -1.2653 H.spc      1 <1>        0.000
     15 H          -3.1724   -0.4669    0.3635 H.spc      1 <1>        0.000
     16 H          -2.6254   -2.3924    1.2228 H.spc      1 <1>        0.000
     17 H          -2.8590   -2.8866   -0.6062 H.spc      1 <1>        0.000
@<TRIPOS>BOND
     1    1    2 1  
     2    1    3 1  
     3    2    4 1  
     4    3    5 1  
     5    4    6 1  
     6    5    6 1  
     7    1    7 1  
     8    1    8 1  
     9    2    9 1  
    10    2   10 1  
    11    3   11 1  
    12    3   12 1  
    13    4   13 1  
    14    5   14 1  
    15    5   15 1  
    16    6   16 1  
    17    6   17 1  
# Name:          frag4-429-134/150395 -- energy: -0.919415
# Creation time: Sat Jun  5 12:53:35 2010


@<TRIPOS>MOLECULE
frag4-429-134/150395 -- energy: -0.919415
   17    17     1     1     1
SMALL
USER_CHARGES


@<TRIPOS>ATOM
      1 C1          0.1032   -0.9784   -0.5070 C.3        1 <1>        0.000
      2 C4          0.0038   -2.4587   -0.3633 C.3        1 <1>        0.000
      3 C5         -1.0679   -0.2732    0.1225 C.3        1 <1>        0.000
      4 N1         -1.0935   -3.0866    0.2186 N.3        1 <1>        0.000
      5 C10        -2.3703   -0.9478   -0.1963 C.3        1 <1>        0.000
      6 C15        -2.2977   -2.3869    0.1833 C.3        1 <1>        0.000
      7 H           0.1153   -0.7384   -1.5702 H.spc      1 <1>        0.000
      8 H           1.0120   -0.6467   -0.0048 H.spc      1 <1>        0.000
      9 H           0.8200   -2.6993    0.3179 H.spc      1 <1>        0.000
     10 H          -0.0257   -2.8088   -1.3951 H.spc      1 <1>        0.000
     11 H          -1.1054    0.7424   -0.2716 H.spc      1 <1>        0.000
     12 H          -0.9328   -0.2882    1.2040 H.spc      1 <1>        0.000
     13 H          -0.8627   -3.2038    1.2052 H.spc      1 <1>        0.000
     14 H          -2.5671   -0.8659   -1.2653 H.spc      1 <1>        0.000
     15 H          -3.1724   -0.4669    0.3635 H.spc      1 <1>        0.000
     16 H          -2.6254   -2.3924    1.2228 H.spc      1 <1>        0.000
     17 H          -2.8590   -2.8866   -0.6062 H.spc      1 <1>        0.000
@<TRIPOS>BOND
     1    1    2 1  
     2    1    3 1  
     3    2    4 1  
     4    3    5 1  
     5    4    6 1  
     6    5    6 1  
     7    1    7 1  
     8    1    8 1  
     9    2    9 1  
    10    2   10 1  
    11    3   11 1  
    12    3   12 1  
    13    4   13 1  
    14    5   14 1  
    15    5   15 1  
    16    6   16 1  
    17    6   17 1  
