#      Rotatable Fragment
#      Build by yxyuan
#
# Name:          frag4-300-1064/48856
# Creation time: Sat Jun  5 12:52:47 2010


@<TRIPOS>MOLECULE
frag4-300-1064/48856
   14    14     1     1     1
SMALL
USER_CHARGES


@<TRIPOS>ATOM
      1 N1          2.7646    3.5438   -0.5788 N.3        1 <1>        0.000
      2 C1          3.9758    4.1151   -0.0443 C.3        1 <1>        0.000
      3 C2          4.8162    4.1687   -1.3057 C.3        1 <1>        0.000
      4 C3          3.8155    4.4100   -2.4003 C.3        1 <1>        0.000
      5 C4          2.5944    3.6083   -1.9939 C.3        1 <1>        0.000
      6 H           1.9986    4.0859   -0.1791 H.spc      1 <1>        0.000
      7 H           4.4217    3.5464    0.7717 H.spc      1 <1>        0.000
      8 H           3.8415    5.0771    0.4503 H.spc      1 <1>        0.000
      9 H           5.3857    3.2525   -1.4616 H.spc      1 <1>        0.000
     10 H           5.5766    4.9484   -1.2623 H.spc      1 <1>        0.000
     11 H           4.1972    4.1019   -3.3737 H.spc      1 <1>        0.000
     12 H           3.5857    5.4695   -2.5131 H.spc      1 <1>        0.000
     13 H           1.6507    4.0578   -2.3030 H.spc      1 <1>        0.000
     14 H           2.5302    2.6317   -2.4738 H.spc      1 <1>        0.000
@<TRIPOS>BOND
     1    1    2 1  
     2    1    5 1  
     3    2    3 1  
     4    3    4 1  
     5    4    5 1  
     6    1    6 1  
     7    2    7 1  
     8    2    8 1  
     9    3    9 1  
    10    3   10 1  
    11    4   11 1  
    12    4   12 1  
    13    5   13 1  
    14    5   14 1  
# Name:          frag4-300-1064/48856 -- energy: -0.842355
# Creation time: Sat Jun  5 12:52:47 2010


@<TRIPOS>MOLECULE
frag4-300-1064/48856 -- energy: -0.842355
   14    14     1     1     1
SMALL
USER_CHARGES


@<TRIPOS>ATOM
      1 N1          2.7646    3.5438   -0.5788 N.3        1 <1>        0.000
      2 C1          3.9758    4.1151   -0.0443 C.3        1 <1>        0.000
      3 C2          4.8162    4.1687   -1.3057 C.3        1 <1>        0.000
      4 C3          3.8155    4.4100   -2.4003 C.3        1 <1>        0.000
      5 C4          2.5944    3.6083   -1.9939 C.3        1 <1>        0.000
      6 H           1.9986    4.0859   -0.1791 H.spc      1 <1>        0.000
      7 H           4.4217    3.5464    0.7717 H.spc      1 <1>        0.000
      8 H           3.8415    5.0771    0.4503 H.spc      1 <1>        0.000
      9 H           5.3857    3.2525   -1.4616 H.spc      1 <1>        0.000
     10 H           5.5766    4.9484   -1.2623 H.spc      1 <1>        0.000
     11 H           4.1972    4.1019   -3.3737 H.spc      1 <1>        0.000
     12 H           3.5857    5.4695   -2.5131 H.spc      1 <1>        0.000
     13 H           1.6507    4.0578   -2.3030 H.spc      1 <1>        0.000
     14 H           2.5302    2.6317   -2.4738 H.spc      1 <1>        0.000
@<TRIPOS>BOND
     1    1    2 1  
     2    1    5 1  
     3    2    3 1  
     4    3    4 1  
     5    4    5 1  
     6    1    6 1  
     7    2    7 1  
     8    2    8 1  
     9    3    9 1  
    10    3   10 1  
    11    4   11 1  
    12    4   12 1  
    13    5   13 1  
    14    5   14 1  
