#      Rotatable Fragment
#      Build by yxyuan
#
# Name:          frag3-196-9/96164
# Creation time: Sat Jun  5 12:53:09 2010


@<TRIPOS>MOLECULE
frag3-196-9/96164
    4     3     1     1     1
SMALL
USER_CHARGES


@<TRIPOS>ATOM
      1 O1          0.5549    0.4568   -0.0876 O.3        1 <1>        0.000
      2 O2         -0.5434   -0.4247   -0.2118 O.3        1 <1>        0.000
      3 H           0.9622    0.5820   -0.9479 H.spc      1 <1>        0.000
      4 H          -0.9507   -0.5499    0.6485 H.spc      1 <1>        0.000
@<TRIPOS>BOND
     1    1    2 1  
     2    1    3 1  
     3    2    4 1  
# Name:          frag3-196-9/96164 -- energy: -0.014763
# Creation time: Sat Jun  5 12:53:09 2010


@<TRIPOS>MOLECULE
frag3-196-9/96164 -- energy: -0.014763
    4     3     1     1     1
SMALL
USER_CHARGES


@<TRIPOS>ATOM
      1 O1          0.5549    0.4568   -0.0876 O.3        1 <1>        0.000
      2 O2         -0.5434   -0.4247   -0.2118 O.3        1 <1>        0.000
      3 H           0.9622    0.5820   -0.9479 H.spc      1 <1>        0.000
      4 H          -0.9507   -0.5499    0.6485 H.spc      1 <1>        0.000
@<TRIPOS>BOND
     1    1    2 1  
     2    1    3 1  
     3    2    4 1  
