#      Rotatable Fragment
#      Build by yxyuan
#
# Name:          frag5-515-168/41815
# Creation time: Sat Jun  5 12:52:51 2010


@<TRIPOS>MOLECULE
frag5-515-168/41815
   16    16     1     1     1
SMALL
USER_CHARGES


@<TRIPOS>ATOM
      1 N1         -1.0679   -0.6920   -0.6919 N.am       1 <1>        0.000
      2 C10        -1.2972    0.6046   -0.4064 C.2        1 <1>        0.000
      3 O3         -0.4218    1.3647   -0.0238 O.2        1 <1>        0.000
      4 C11        -2.6780    1.1774   -0.5649 C.ar       1 <1>        0.000
      5 C12        -3.2175    2.1056    0.3487 C.ar       1 <1>        0.000
      6 C13        -4.5274    2.5837    0.2100 C.ar       1 <1>        0.000
      7 C14        -5.2990    2.1921   -0.8819 C.ar       1 <1>        0.000
      8 C15        -4.7680    1.3204   -1.8293 C.ar       1 <1>        0.000
      9 C16        -3.4727    0.8180   -1.6669 C.ar       1 <1>        0.000
     10 H          -0.1292   -1.0781   -0.5914 H.spc      1 <1>        0.000
     11 H          -1.8331   -1.2875   -1.0086 H.spc      1 <1>        0.000
     12 H          -2.6045    2.4579    1.1783 H.spc      1 <1>        0.000
     13 H          -4.9424    3.2616    0.9559 H.spc      1 <1>        0.000
     14 H          -6.3162    2.5672   -0.9944 H.spc      1 <1>        0.000
     15 H          -5.3611    1.0299   -2.6964 H.spc      1 <1>        0.000
     16 H          -3.0704    0.1319   -2.4123 H.spc      1 <1>        0.000
@<TRIPOS>BOND
     1    7    8 ar 
     2    8    9 ar 
     3    1    2 am 
     4    2    3 2  
     5    4    5 ar 
     6    2    4 1  
     7    4    9 ar 
     8    5    6 ar 
     9    6    7 ar 
    10    1   10 1  
    11    1   11 1  
    12    5   12 1  
    13    6   13 1  
    14    7   14 1  
    15    8   15 1  
    16    9   16 1  
# Name:          frag5-515-168/41815
# Creation time: Sat Jun  5 12:52:51 2010


@<TRIPOS>MOLECULE
frag5-515-168/41815
   16    16     1     1     1
SMALL
USER_CHARGES


@<TRIPOS>ATOM
      1 N1         -0.7292   -0.1402   -1.3635 N.am       1 <1>        0.000
      2 C10        -1.2990    0.6002   -0.3931 C.2        1 <1>        0.000
      3 O3         -0.7428    0.8658    0.6603 O.2        1 <1>        0.000
      4 C11        -2.6884    1.1438   -0.5809 C.ar       1 <1>        0.000
      5 C12        -3.6549    0.5140   -1.3899 C.ar       1 <1>        0.000
      6 C13        -4.9246    1.0765   -1.5775 C.ar       1 <1>        0.000
      7 C14        -5.2731    2.2480   -0.9089 C.ar       1 <1>        0.000
      8 C15        -4.3565    2.8586   -0.0572 C.ar       1 <1>        0.000
      9 C16        -3.0811    2.3077    0.1044 C.ar       1 <1>        0.000
     10 H           0.2132   -0.5092   -1.2366 H.spc      1 <1>        0.000
     11 H          -1.2401   -0.3318   -2.2252 H.spc      1 <1>        0.000
     12 H          -3.4103   -0.4288   -1.8792 H.spc      1 <1>        0.000
     13 H          -5.6395    0.5975   -2.2465 H.spc      1 <1>        0.000
     14 H          -6.2611    2.6855   -1.0523 H.spc      1 <1>        0.000
     15 H          -4.6324    3.7644    0.4827 H.spc      1 <1>        0.000
     16 H          -2.3741    2.7922    0.7779 H.spc      1 <1>        0.000
@<TRIPOS>BOND
     1    7    8 ar 
     2    8    9 ar 
     3    1    2 am 
     4    2    3 2  
     5    4    5 ar 
     6    2    4 1  
     7    4    9 ar 
     8    5    6 ar 
     9    6    7 ar 
    10    1   10 1  
    11    1   11 1  
    12    5   12 1  
    13    6   13 1  
    14    7   14 1  
    15    8   15 1  
    16    9   16 1  
# Name:          frag5-515-168/41815 -- energy: -0.698419
# Creation time: Sat Jun  5 12:52:51 2010


@<TRIPOS>MOLECULE
frag5-515-168/41815 -- energy: -0.698419
   16    16     1     1     1
SMALL
USER_CHARGES


@<TRIPOS>ATOM
      1 N1         -1.0679   -0.6920   -0.6919 N.am       1 <1>        0.000
      2 C10        -1.2972    0.6046   -0.4064 C.2        1 <1>        0.000
      3 O3         -0.4218    1.3647   -0.0238 O.2        1 <1>        0.000
      4 C11        -2.6780    1.1774   -0.5649 C.ar       1 <1>        0.000
      5 C12        -3.2175    2.1056    0.3487 C.ar       1 <1>        0.000
      6 C13        -4.5274    2.5837    0.2100 C.ar       1 <1>        0.000
      7 C14        -5.2990    2.1921   -0.8819 C.ar       1 <1>        0.000
      8 C15        -4.7680    1.3204   -1.8293 C.ar       1 <1>        0.000
      9 C16        -3.4727    0.8180   -1.6669 C.ar       1 <1>        0.000
     10 H          -0.1292   -1.0781   -0.5914 H.spc      1 <1>        0.000
     11 H          -1.8331   -1.2875   -1.0086 H.spc      1 <1>        0.000
     12 H          -2.6045    2.4579    1.1783 H.spc      1 <1>        0.000
     13 H          -4.9424    3.2616    0.9559 H.spc      1 <1>        0.000
     14 H          -6.3162    2.5672   -0.9944 H.spc      1 <1>        0.000
     15 H          -5.3611    1.0299   -2.6964 H.spc      1 <1>        0.000
     16 H          -3.0704    0.1319   -2.4123 H.spc      1 <1>        0.000
@<TRIPOS>BOND
     1    7    8 ar 
     2    8    9 ar 
     3    1    2 am 
     4    2    3 2  
     5    4    5 ar 
     6    2    4 1  
     7    4    9 ar 
     8    5    6 ar 
     9    6    7 ar 
    10    1   10 1  
    11    1   11 1  
    12    5   12 1  
    13    6   13 1  
    14    7   14 1  
    15    8   15 1  
    16    9   16 1  
# Name:          frag5-515-168/41815 -- energy: -0.580003
# Creation time: Sat Jun  5 12:52:51 2010


@<TRIPOS>MOLECULE
frag5-515-168/41815 -- energy: -0.580003
   16    16     1     1     1
SMALL
USER_CHARGES


@<TRIPOS>ATOM
      1 N1         -0.7292   -0.1402   -1.3635 N.am       1 <1>        0.000
      2 C10        -1.2990    0.6002   -0.3931 C.2        1 <1>        0.000
      3 O3         -0.7428    0.8658    0.6603 O.2        1 <1>        0.000
      4 C11        -2.6884    1.1438   -0.5809 C.ar       1 <1>        0.000
      5 C12        -3.6549    0.5140   -1.3899 C.ar       1 <1>        0.000
      6 C13        -4.9246    1.0765   -1.5775 C.ar       1 <1>        0.000
      7 C14        -5.2731    2.2480   -0.9089 C.ar       1 <1>        0.000
      8 C15        -4.3565    2.8586   -0.0572 C.ar       1 <1>        0.000
      9 C16        -3.0811    2.3077    0.1044 C.ar       1 <1>        0.000
     10 H           0.2132   -0.5092   -1.2366 H.spc      1 <1>        0.000
     11 H          -1.2401   -0.3318   -2.2252 H.spc      1 <1>        0.000
     12 H          -3.4103   -0.4288   -1.8792 H.spc      1 <1>        0.000
     13 H          -5.6395    0.5975   -2.2465 H.spc      1 <1>        0.000
     14 H          -6.2611    2.6855   -1.0523 H.spc      1 <1>        0.000
     15 H          -4.6324    3.7644    0.4827 H.spc      1 <1>        0.000
     16 H          -2.3741    2.7922    0.7779 H.spc      1 <1>        0.000
@<TRIPOS>BOND
     1    7    8 ar 
     2    8    9 ar 
     3    1    2 am 
     4    2    3 2  
     5    4    5 ar 
     6    2    4 1  
     7    4    9 ar 
     8    5    6 ar 
     9    6    7 ar 
    10    1   10 1  
    11    1   11 1  
    12    5   12 1  
    13    6   13 1  
    14    7   14 1  
    15    8   15 1  
    16    9   16 1  
