#      Rotatable Fragment
#      Build by yxyuan
#
# Name:          frag4-457-38/48856
# Creation time: Sat Jun  5 12:52:48 2010


@<TRIPOS>MOLECULE
frag4-457-38/48856
   20    20     1     1     1
SMALL
USER_CHARGES


@<TRIPOS>ATOM
      1 N5         -4.4038   -2.3890   -1.9016 N.3        1 <1>        0.000
      2 C13        -4.7224   -2.9269   -0.6199 C.3        1 <1>        0.000
      3 C14        -5.9036   -3.8541   -0.3995 C.3        1 <1>        0.000
      4 C15        -7.2636   -3.2059   -0.5392 C.3        1 <1>        0.000
      5 C16        -7.3610   -1.7901   -1.0936 C.3        1 <1>        0.000
      6 C17        -6.7800   -1.7649   -2.4818 C.3        1 <1>        0.000
      7 C18        -5.3067   -1.5269   -2.5282 C.3        1 <1>        0.000
      8 H          -4.3501   -3.2004   -2.5173 H.spc      1 <1>        0.000
      9 H          -4.9786   -2.0457   -0.0317 H.spc      1 <1>        0.000
     10 H          -3.8614   -3.5533   -0.3867 H.spc      1 <1>        0.000
     11 H          -5.8320   -4.2149    0.6265 H.spc      1 <1>        0.000
     12 H          -5.8438   -4.6261   -1.1666 H.spc      1 <1>        0.000
     13 H          -7.7942   -3.8252   -1.2624 H.spc      1 <1>        0.000
     14 H          -7.6431   -3.1325    0.4800 H.spc      1 <1>        0.000
     15 H          -6.8070   -1.1055   -0.4513 H.spc      1 <1>        0.000
     16 H          -8.4054   -1.4801   -1.1271 H.spc      1 <1>        0.000
     17 H          -6.9601   -2.7455   -2.9223 H.spc      1 <1>        0.000
     18 H          -7.2547   -0.9398   -3.0128 H.spc      1 <1>        0.000
     19 H          -5.1798   -0.5859   -1.9929 H.spc      1 <1>        0.000
     20 H          -5.0627   -1.6214   -3.5863 H.spc      1 <1>        0.000
@<TRIPOS>BOND
     1    4    5 1  
     2    6    7 1  
     3    5    6 1  
     4    1    2 1  
     5    1    7 1  
     6    2    3 1  
     7    3    4 1  
     8    1    8 1  
     9    2    9 1  
    10    2   10 1  
    11    3   11 1  
    12    3   12 1  
    13    4   13 1  
    14    4   14 1  
    15    5   15 1  
    16    5   16 1  
    17    6   17 1  
    18    6   18 1  
    19    7   19 1  
    20    7   20 1  
# Name:          frag4-457-38/48856
# Creation time: Sat Jun  5 12:52:48 2010


@<TRIPOS>MOLECULE
frag4-457-38/48856
   20    20     1     1     1
SMALL
USER_CHARGES


@<TRIPOS>ATOM
      1 N5         -4.4884   -2.5362   -2.0264 N.3        1 <1>        0.000
      2 C13        -4.8387   -3.5133   -1.0597 C.3        1 <1>        0.000
      3 C14        -5.7681   -3.0096    0.0268 C.3        1 <1>        0.000
      4 C15        -7.2056   -3.1528   -0.4108 C.3        1 <1>        0.000
      5 C16        -7.5013   -2.5662   -1.7687 C.3        1 <1>        0.000
      6 C17        -6.7189   -1.3133   -2.0874 C.3        1 <1>        0.000
      7 C18        -5.2202   -1.3663   -2.2376 C.3        1 <1>        0.000
      8 H          -4.5977   -3.0370   -2.9082 H.spc      1 <1>        0.000
      9 H          -3.9159   -3.8280   -0.5723 H.spc      1 <1>        0.000
     10 H          -5.3624   -4.3117   -1.5854 H.spc      1 <1>        0.000
     11 H          -5.5562   -1.9578    0.2188 H.spc      1 <1>        0.000
     12 H          -5.6102   -3.5958    0.9321 H.spc      1 <1>        0.000
     13 H          -7.4188   -4.2202   -0.4687 H.spc      1 <1>        0.000
     14 H          -7.8167   -2.6127    0.3123 H.spc      1 <1>        0.000
     15 H          -8.5574   -2.2966   -1.7790 H.spc      1 <1>        0.000
     16 H          -7.2232   -3.3156   -2.5097 H.spc      1 <1>        0.000
     17 H          -7.0775   -1.0158   -3.0728 H.spc      1 <1>        0.000
     18 H          -6.8799   -0.6687   -1.2233 H.spc      1 <1>        0.000
     19 H          -4.8635   -0.6995   -1.4526 H.spc      1 <1>        0.000
     20 H          -5.0644   -1.1580   -3.2961 H.spc      1 <1>        0.000
@<TRIPOS>BOND
     1    4    5 1  
     2    6    7 1  
     3    5    6 1  
     4    1    2 1  
     5    1    7 1  
     6    2    3 1  
     7    3    4 1  
     8    1    8 1  
     9    2    9 1  
    10    2   10 1  
    11    3   11 1  
    12    3   12 1  
    13    4   13 1  
    14    4   14 1  
    15    5   15 1  
    16    5   16 1  
    17    6   17 1  
    18    6   18 1  
    19    7   19 1  
    20    7   20 1  
# Name:          frag4-457-38/48856
# Creation time: Sat Jun  5 12:52:48 2010


@<TRIPOS>MOLECULE
frag4-457-38/48856
   20    20     1     1     1
SMALL
USER_CHARGES


@<TRIPOS>ATOM
      1 N5         -4.4483   -2.1362   -1.5419 N.3        1 <1>        0.000
      2 C13        -4.7282   -3.4884   -1.1677 C.3        1 <1>        0.000
      3 C14        -6.0032   -3.7732   -0.3745 C.3        1 <1>        0.000
      4 C15        -6.8978   -2.5834   -0.1528 C.3        1 <1>        0.000
      5 C16        -7.5846   -2.2191   -1.4385 C.3        1 <1>        0.000
      6 C17        -6.7120   -1.8950   -2.6290 C.3        1 <1>        0.000
      7 C18        -5.3671   -1.3624   -2.2593 C.3        1 <1>        0.000
      8 H          -3.6566   -2.2220   -2.1793 H.spc      1 <1>        0.000
      9 H          -3.9102   -3.7778   -0.5080 H.spc      1 <1>        0.000
     10 H          -4.8501   -4.0261   -2.1080 H.spc      1 <1>        0.000
     11 H          -5.6890   -4.1170    0.6110 H.spc      1 <1>        0.000
     12 H          -6.5788   -4.4943   -0.9549 H.spc      1 <1>        0.000
     13 H          -7.6470   -2.8300    0.5995 H.spc      1 <1>        0.000
     14 H          -6.2983   -1.7393    0.1882 H.spc      1 <1>        0.000
     15 H          -8.1405   -1.3061   -1.2254 H.spc      1 <1>        0.000
     16 H          -8.1563   -3.1016   -1.7257 H.spc      1 <1>        0.000
     17 H          -6.5553   -2.8220   -3.1805 H.spc      1 <1>        0.000
     18 H          -7.2211   -1.1231   -3.2060 H.spc      1 <1>        0.000
     19 H          -5.5903   -0.5332   -1.5879 H.spc      1 <1>        0.000
     20 H          -4.8778   -1.1999   -3.2196 H.spc      1 <1>        0.000
@<TRIPOS>BOND
     1    4    5 1  
     2    6    7 1  
     3    5    6 1  
     4    1    2 1  
     5    1    7 1  
     6    2    3 1  
     7    3    4 1  
     8    1    8 1  
     9    2    9 1  
    10    2   10 1  
    11    3   11 1  
    12    3   12 1  
    13    4   13 1  
    14    4   14 1  
    15    5   15 1  
    16    5   16 1  
    17    6   17 1  
    18    6   18 1  
    19    7   19 1  
    20    7   20 1  
# Name:          frag4-457-38/48856 -- energy: -1.982984
# Creation time: Sat Jun  5 12:52:48 2010


@<TRIPOS>MOLECULE
frag4-457-38/48856 -- energy: -1.982984
   20    20     1     1     1
SMALL
USER_CHARGES


@<TRIPOS>ATOM
      1 N5         -4.4038   -2.3890   -1.9016 N.3        1 <1>        0.000
      2 C13        -4.7224   -2.9269   -0.6199 C.3        1 <1>        0.000
      3 C14        -5.9036   -3.8541   -0.3995 C.3        1 <1>        0.000
      4 C15        -7.2636   -3.2059   -0.5392 C.3        1 <1>        0.000
      5 C16        -7.3610   -1.7901   -1.0936 C.3        1 <1>        0.000
      6 C17        -6.7800   -1.7649   -2.4818 C.3        1 <1>        0.000
      7 C18        -5.3067   -1.5269   -2.5282 C.3        1 <1>        0.000
      8 H          -4.3501   -3.2004   -2.5173 H.spc      1 <1>        0.000
      9 H          -4.9786   -2.0457   -0.0317 H.spc      1 <1>        0.000
     10 H          -3.8614   -3.5533   -0.3867 H.spc      1 <1>        0.000
     11 H          -5.8320   -4.2149    0.6265 H.spc      1 <1>        0.000
     12 H          -5.8438   -4.6261   -1.1666 H.spc      1 <1>        0.000
     13 H          -7.7942   -3.8252   -1.2624 H.spc      1 <1>        0.000
     14 H          -7.6431   -3.1325    0.4800 H.spc      1 <1>        0.000
     15 H          -6.8070   -1.1055   -0.4513 H.spc      1 <1>        0.000
     16 H          -8.4054   -1.4801   -1.1271 H.spc      1 <1>        0.000
     17 H          -6.9601   -2.7455   -2.9223 H.spc      1 <1>        0.000
     18 H          -7.2547   -0.9398   -3.0128 H.spc      1 <1>        0.000
     19 H          -5.1798   -0.5859   -1.9929 H.spc      1 <1>        0.000
     20 H          -5.0627   -1.6214   -3.5863 H.spc      1 <1>        0.000
@<TRIPOS>BOND
     1    4    5 1  
     2    6    7 1  
     3    5    6 1  
     4    1    2 1  
     5    1    7 1  
     6    2    3 1  
     7    3    4 1  
     8    1    8 1  
     9    2    9 1  
    10    2   10 1  
    11    3   11 1  
    12    3   12 1  
    13    4   13 1  
    14    4   14 1  
    15    5   15 1  
    16    5   16 1  
    17    6   17 1  
    18    6   18 1  
    19    7   19 1  
    20    7   20 1  
# Name:          frag4-457-38/48856 -- energy: -1.701721
# Creation time: Sat Jun  5 12:52:48 2010


@<TRIPOS>MOLECULE
frag4-457-38/48856 -- energy: -1.701721
   20    20     1     1     1
SMALL
USER_CHARGES


@<TRIPOS>ATOM
      1 N5         -4.4884   -2.5362   -2.0264 N.3        1 <1>        0.000
      2 C13        -4.8387   -3.5133   -1.0597 C.3        1 <1>        0.000
      3 C14        -5.7681   -3.0096    0.0268 C.3        1 <1>        0.000
      4 C15        -7.2056   -3.1528   -0.4108 C.3        1 <1>        0.000
      5 C16        -7.5013   -2.5662   -1.7687 C.3        1 <1>        0.000
      6 C17        -6.7189   -1.3133   -2.0874 C.3        1 <1>        0.000
      7 C18        -5.2202   -1.3663   -2.2376 C.3        1 <1>        0.000
      8 H          -4.5977   -3.0370   -2.9082 H.spc      1 <1>        0.000
      9 H          -3.9159   -3.8280   -0.5723 H.spc      1 <1>        0.000
     10 H          -5.3624   -4.3117   -1.5854 H.spc      1 <1>        0.000
     11 H          -5.5562   -1.9578    0.2188 H.spc      1 <1>        0.000
     12 H          -5.6102   -3.5958    0.9321 H.spc      1 <1>        0.000
     13 H          -7.4188   -4.2202   -0.4687 H.spc      1 <1>        0.000
     14 H          -7.8167   -2.6127    0.3123 H.spc      1 <1>        0.000
     15 H          -8.5574   -2.2966   -1.7790 H.spc      1 <1>        0.000
     16 H          -7.2232   -3.3156   -2.5097 H.spc      1 <1>        0.000
     17 H          -7.0775   -1.0158   -3.0728 H.spc      1 <1>        0.000
     18 H          -6.8799   -0.6687   -1.2233 H.spc      1 <1>        0.000
     19 H          -4.8635   -0.6995   -1.4526 H.spc      1 <1>        0.000
     20 H          -5.0644   -1.1580   -3.2961 H.spc      1 <1>        0.000
@<TRIPOS>BOND
     1    4    5 1  
     2    6    7 1  
     3    5    6 1  
     4    1    2 1  
     5    1    7 1  
     6    2    3 1  
     7    3    4 1  
     8    1    8 1  
     9    2    9 1  
    10    2   10 1  
    11    3   11 1  
    12    3   12 1  
    13    4   13 1  
    14    4   14 1  
    15    5   15 1  
    16    5   16 1  
    17    6   17 1  
    18    6   18 1  
    19    7   19 1  
    20    7   20 1  
# Name:          frag4-457-38/48856 -- energy: -1.837985
# Creation time: Sat Jun  5 12:52:48 2010


@<TRIPOS>MOLECULE
frag4-457-38/48856 -- energy: -1.837985
   20    20     1     1     1
SMALL
USER_CHARGES


@<TRIPOS>ATOM
      1 N5         -4.4483   -2.1362   -1.5419 N.3        1 <1>        0.000
      2 C13        -4.7282   -3.4884   -1.1677 C.3        1 <1>        0.000
      3 C14        -6.0032   -3.7732   -0.3745 C.3        1 <1>        0.000
      4 C15        -6.8978   -2.5834   -0.1528 C.3        1 <1>        0.000
      5 C16        -7.5846   -2.2191   -1.4385 C.3        1 <1>        0.000
      6 C17        -6.7120   -1.8950   -2.6290 C.3        1 <1>        0.000
      7 C18        -5.3671   -1.3624   -2.2593 C.3        1 <1>        0.000
      8 H          -3.6566   -2.2220   -2.1793 H.spc      1 <1>        0.000
      9 H          -3.9102   -3.7778   -0.5080 H.spc      1 <1>        0.000
     10 H          -4.8501   -4.0261   -2.1080 H.spc      1 <1>        0.000
     11 H          -5.6890   -4.1170    0.6110 H.spc      1 <1>        0.000
     12 H          -6.5788   -4.4943   -0.9549 H.spc      1 <1>        0.000
     13 H          -7.6470   -2.8300    0.5995 H.spc      1 <1>        0.000
     14 H          -6.2983   -1.7393    0.1882 H.spc      1 <1>        0.000
     15 H          -8.1405   -1.3061   -1.2254 H.spc      1 <1>        0.000
     16 H          -8.1563   -3.1016   -1.7257 H.spc      1 <1>        0.000
     17 H          -6.5553   -2.8220   -3.1805 H.spc      1 <1>        0.000
     18 H          -7.2211   -1.1231   -3.2060 H.spc      1 <1>        0.000
     19 H          -5.5903   -0.5332   -1.5879 H.spc      1 <1>        0.000
     20 H          -4.8778   -1.1999   -3.2196 H.spc      1 <1>        0.000
@<TRIPOS>BOND
     1    4    5 1  
     2    6    7 1  
     3    5    6 1  
     4    1    2 1  
     5    1    7 1  
     6    2    3 1  
     7    3    4 1  
     8    1    8 1  
     9    2    9 1  
    10    2   10 1  
    11    3   11 1  
    12    3   12 1  
    13    4   13 1  
    14    4   14 1  
    15    5   15 1  
    16    5   16 1  
    17    6   17 1  
    18    6   18 1  
    19    7   19 1  
    20    7   20 1  
