#      Rotatable Fragment
#      Build by yxyuan
#
# Name:          frag2-047-103/319335
# Creation time: Sat Jun  5 12:53:38 2010


@<TRIPOS>MOLECULE
frag2-047-103/319335
    3     2     1     1     1
SMALL
USER_CHARGES


@<TRIPOS>ATOM
      1 N3          0.1162    0.3871    0.0000 N.2        1 <1>        0.000
      2 O6         -1.0012   -0.1500    0.0000 O.2        1 <1>        0.000
      3 H           0.4136    0.9456    0.8000 H.spc      1 <1>        0.000
@<TRIPOS>BOND
     1    1    2 2  
     2    1    3 1  
# Name:          frag2-047-103/319335 -- energy: 0.000000
# Creation time: Sat Jun  5 12:53:38 2010


@<TRIPOS>MOLECULE
frag2-047-103/319335 -- energy: 0.000000
    3     2     1     1     1
SMALL
USER_CHARGES


@<TRIPOS>ATOM
      1 N3          0.1162    0.3871    0.0000 N.2        1 <1>        0.000
      2 O6         -1.0012   -0.1500    0.0000 O.2        1 <1>        0.000
      3 H           0.4136    0.9456    0.8000 H.spc      1 <1>        0.000
@<TRIPOS>BOND
     1    1    2 2  
     2    1    3 1  
