#      Rotatable Fragment
#      Build by yxyuan
#
# Name:          frag5-625-31/41815
# Creation time: Sat Jun  5 12:52:59 2010


@<TRIPOS>MOLECULE
frag5-625-31/41815
   37    41     1     1     1
SMALL
USER_CHARGES


@<TRIPOS>ATOM
      1 N1          4.3683    1.7784   -0.3092 N.4        1 <1>        0.000
      2 C1          3.3898    2.3619    0.6470 C.3        1 <1>        0.000
      3 C2          2.0820    2.7665   -0.1032 C.3        1 <1>        0.000
      4 C3          1.5072    1.4784   -0.7412 C.3        1 <1>        0.000
      5 C4          0.0589    1.5272   -1.3386 C.3        1 <1>        0.000
      6 O1         -0.6115    0.3057   -0.9592 O.3        1 <1>        0.000
      7 C5          0.0296   -0.0948    0.1886 C.ar       1 <1>        0.000
      8 C6          1.2231    0.5709    0.4296 C.ar       1 <1>        0.000
      9 C14        -0.2565    3.3337    0.4858 C.2        1 <1>        0.000
     10 C7          1.9558    0.4449    1.6133 C.ar       1 <1>        0.000
     11 C8          1.5350   -0.5718    2.4752 C.ar       1 <1>        0.000
     12 C9          0.3860   -1.3140    2.2082 C.ar       1 <1>        0.000
     13 C10        -0.4134   -1.0785    1.0743 C.ar       1 <1>        0.000
     14 O2         -1.5760   -1.7617    0.8190 O.3        1 <1>        0.000
     15 C12         3.0979    1.4071    1.8563 C.3        1 <1>        0.000
     16 C13        -0.7274    2.7588   -0.8231 C.3        1 <1>        0.000
     17 C15         1.0429    3.3604    0.8113 C.2        1 <1>        0.000
     18 C18         2.5285    0.8074   -1.6853 C.3        1 <1>        0.000
     19 C19         3.8682    0.5587   -0.9829 C.3        1 <1>        0.000
     20 H           4.5509    2.4769   -1.0297 H.spc      1 <1>        0.000
     21 H           5.2013    1.5201    0.2197 H.spc      1 <1>        0.000
     22 H           3.8335    3.2613    1.0741 H.spc      1 <1>        0.000
     23 H           2.3265    3.5292   -0.8425 H.spc      1 <1>        0.000
     24 H           0.1119    1.6184   -2.4235 H.spc      1 <1>        0.000
     25 H          -0.9891    3.7374    1.1846 H.spc      1 <1>        0.000
     26 H           2.1157   -0.7880    3.3719 H.spc      1 <1>        0.000
     27 H           0.0967   -2.1039    2.9014 H.spc      1 <1>        0.000
     28 H          -1.7335   -2.3967    1.5215 H.spc      1 <1>        0.000
     29 H           2.8207    2.0328    2.7047 H.spc      1 <1>        0.000
     30 H           3.9950    0.8110    2.0235 H.spc      1 <1>        0.000
     31 H          -1.7525    2.4250   -0.6623 H.spc      1 <1>        0.000
     32 H          -0.5964    3.5426   -1.5691 H.spc      1 <1>        0.000
     33 H           1.3523    3.8182    1.7509 H.spc      1 <1>        0.000
     34 H           2.7019    1.4710   -2.5324 H.spc      1 <1>        0.000
     35 H           2.1234   -0.1530   -2.0040 H.spc      1 <1>        0.000
     36 H           3.7221   -0.2146   -0.2288 H.spc      1 <1>        0.000
     37 H           4.5987    0.2572   -1.7336 H.spc      1 <1>        0.000
@<TRIPOS>BOND
     1    5    6 1  
     2    3   17 1  
     3    4    5 1  
     4    1   19 1  
     5    5   16 1  
     6    4    8 1  
     7    2   15 1  
     8    7    8 ar 
     9    3    4 1  
    10    2    3 1  
    11    1    2 1  
    12    8   10 ar 
    13    6    7 1  
    14    7   13 ar 
    15    4   18 1  
    16   18   19 1  
    17    9   17 2  
    18   16    9 1  
    19   13   14 1  
    20   12   13 ar 
    21   11   12 ar 
    22   10   15 1  
    23   10   11 ar 
    24    1   20 1  
    25    1   21 1  
    26    2   22 1  
    27    3   23 1  
    28    5   24 1  
    29    9   25 1  
    30   11   26 1  
    31   12   27 1  
    32   14   28 1  
    33   15   29 1  
    34   15   30 1  
    35   16   31 1  
    36   16   32 1  
    37   17   33 1  
    38   18   34 1  
    39   18   35 1  
    40   19   36 1  
    41   19   37 1  
# Name:          frag5-625-31/41815 -- energy: -6.802856
# Creation time: Sat Jun  5 12:52:59 2010


@<TRIPOS>MOLECULE
frag5-625-31/41815 -- energy: -6.802856
   37    41     1     1     1
SMALL
USER_CHARGES


@<TRIPOS>ATOM
      1 N1          4.3683    1.7784   -0.3092 N.4        1 <1>        0.000
      2 C1          3.3898    2.3619    0.6470 C.3        1 <1>        0.000
      3 C2          2.0820    2.7665   -0.1032 C.3        1 <1>        0.000
      4 C3          1.5072    1.4784   -0.7412 C.3        1 <1>        0.000
      5 C4          0.0589    1.5272   -1.3386 C.3        1 <1>        0.000
      6 O1         -0.6115    0.3057   -0.9592 O.3        1 <1>        0.000
      7 C5          0.0296   -0.0948    0.1886 C.ar       1 <1>        0.000
      8 C6          1.2231    0.5709    0.4296 C.ar       1 <1>        0.000
      9 C14        -0.2565    3.3337    0.4858 C.2        1 <1>        0.000
     10 C7          1.9558    0.4449    1.6133 C.ar       1 <1>        0.000
     11 C8          1.5350   -0.5718    2.4752 C.ar       1 <1>        0.000
     12 C9          0.3860   -1.3140    2.2082 C.ar       1 <1>        0.000
     13 C10        -0.4134   -1.0785    1.0743 C.ar       1 <1>        0.000
     14 O2         -1.5760   -1.7617    0.8190 O.3        1 <1>        0.000
     15 C12         3.0979    1.4071    1.8563 C.3        1 <1>        0.000
     16 C13        -0.7274    2.7588   -0.8231 C.3        1 <1>        0.000
     17 C15         1.0429    3.3604    0.8113 C.2        1 <1>        0.000
     18 C18         2.5285    0.8074   -1.6853 C.3        1 <1>        0.000
     19 C19         3.8682    0.5587   -0.9829 C.3        1 <1>        0.000
     20 H           4.5509    2.4769   -1.0297 H.spc      1 <1>        0.000
     21 H           5.2013    1.5201    0.2197 H.spc      1 <1>        0.000
     22 H           3.8335    3.2613    1.0741 H.spc      1 <1>        0.000
     23 H           2.3265    3.5292   -0.8425 H.spc      1 <1>        0.000
     24 H           0.1119    1.6184   -2.4235 H.spc      1 <1>        0.000
     25 H          -0.9891    3.7374    1.1846 H.spc      1 <1>        0.000
     26 H           2.1157   -0.7880    3.3719 H.spc      1 <1>        0.000
     27 H           0.0967   -2.1039    2.9014 H.spc      1 <1>        0.000
     28 H          -1.7335   -2.3967    1.5215 H.spc      1 <1>        0.000
     29 H           2.8207    2.0328    2.7047 H.spc      1 <1>        0.000
     30 H           3.9950    0.8110    2.0235 H.spc      1 <1>        0.000
     31 H          -1.7525    2.4250   -0.6623 H.spc      1 <1>        0.000
     32 H          -0.5964    3.5426   -1.5691 H.spc      1 <1>        0.000
     33 H           1.3523    3.8182    1.7509 H.spc      1 <1>        0.000
     34 H           2.7019    1.4710   -2.5324 H.spc      1 <1>        0.000
     35 H           2.1234   -0.1530   -2.0040 H.spc      1 <1>        0.000
     36 H           3.7221   -0.2146   -0.2288 H.spc      1 <1>        0.000
     37 H           4.5987    0.2572   -1.7336 H.spc      1 <1>        0.000
@<TRIPOS>BOND
     1    5    6 1  
     2    3   17 1  
     3    4    5 1  
     4    1   19 1  
     5    5   16 1  
     6    4    8 1  
     7    2   15 1  
     8    7    8 ar 
     9    3    4 1  
    10    2    3 1  
    11    1    2 1  
    12    8   10 ar 
    13    6    7 1  
    14    7   13 ar 
    15    4   18 1  
    16   18   19 1  
    17    9   17 2  
    18   16    9 1  
    19   13   14 1  
    20   12   13 ar 
    21   11   12 ar 
    22   10   15 1  
    23   10   11 ar 
    24    1   20 1  
    25    1   21 1  
    26    2   22 1  
    27    3   23 1  
    28    5   24 1  
    29    9   25 1  
    30   11   26 1  
    31   12   27 1  
    32   14   28 1  
    33   15   29 1  
    34   15   30 1  
    35   16   31 1  
    36   16   32 1  
    37   17   33 1  
    38   18   34 1  
    39   18   35 1  
    40   19   36 1  
    41   19   37 1  
