#      Rotatable Fragment
#      Build by yxyuan
#
# Name:          frag3-290-2/31924
# Creation time: Sat Jun  5 12:52:46 2010


@<TRIPOS>MOLECULE
frag3-290-2/31924
   11    10     1     1     1
SMALL
USER_CHARGES


@<TRIPOS>ATOM
      1 N1          0.2944   -0.1638    0.3788 N.am       1 <1>        0.000
      2 C1         -0.9191    0.1072   -0.1009 C.2        1 <1>        0.000
      3 O1         -1.9445   -0.3909    0.3376 O.2        1 <1>        0.000
      4 N2         -1.2537    0.9514   -1.0984 N.am       1 <1>        0.000
      5 C2          1.3819    0.3506   -0.2244 C.2        1 <1>        0.000
      6 O2          1.5751    0.9916   -1.2520 O.2        1 <1>        0.000
      7 O3          2.4119    0.1653    0.6303 O.3        1 <1>        0.000
      8 H           0.3986   -0.7592    1.2004 H.spc      1 <1>        0.000
      9 H          -2.2330    1.0732   -1.3565 H.spc      1 <1>        0.000
     10 H          -0.5275    1.4680   -1.5945 H.spc      1 <1>        0.000
     11 H           2.1129   -0.3502    1.3829 H.spc      1 <1>        0.000
@<TRIPOS>BOND
     1    1    2 am 
     2    1    5 am 
     3    2    3 2  
     4    2    4 am 
     5    5    6 2  
     6    5    7 1  
     7    1    8 1  
     8    4    9 1  
     9    4   10 1  
    10    7   11 1  
# Name:          frag3-290-2/31924
# Creation time: Sat Jun  5 12:52:46 2010


@<TRIPOS>MOLECULE
frag3-290-2/31924
   11    10     1     1     1
SMALL
USER_CHARGES


@<TRIPOS>ATOM
      1 N1          0.2579   -0.1086    0.4657 N.am       1 <1>        0.000
      2 C1         -0.9192    0.1777   -0.0799 C.2        1 <1>        0.000
      3 O1         -0.9778    0.6678   -1.2240 O.2        1 <1>        0.000
      4 N2         -2.1555    0.0133    0.3656 N.am       1 <1>        0.000
      5 C2          1.3658    0.3246   -0.2008 C.2        1 <1>        0.000
      6 O2          1.6045    0.6511   -1.3544 O.2        1 <1>        0.000
      7 O3          2.3705    0.2855    0.6988 O.3        1 <1>        0.000
      8 H           0.3294   -0.6274    1.3410 H.spc      1 <1>        0.000
      9 H          -2.9479    0.2797   -0.2189 H.spc      1 <1>        0.000
     10 H          -2.3153   -0.3797    1.2932 H.spc      1 <1>        0.000
     11 H           2.0243    0.0134    1.5518 H.spc      1 <1>        0.000
@<TRIPOS>BOND
     1    1    2 am 
     2    1    5 am 
     3    2    3 2  
     4    2    4 am 
     5    5    6 2  
     6    5    7 1  
     7    1    8 1  
     8    4    9 1  
     9    4   10 1  
    10    7   11 1  
# Name:          frag3-290-2/31924
# Creation time: Sat Jun  5 12:52:46 2010


@<TRIPOS>MOLECULE
frag3-290-2/31924
   11    10     1     1     1
SMALL
USER_CHARGES


@<TRIPOS>ATOM
      1 N1          0.2118    1.0832   -0.3575 N.am       1 <1>        0.000
      2 C1         -0.9034    0.3492   -0.2261 C.2        1 <1>        0.000
      3 O1         -0.9506   -0.6693    0.4952 O.2        1 <1>        0.000
      4 N2         -2.1391    0.5123   -0.7094 N.am       1 <1>        0.000
      5 C2          1.4352    0.4542   -0.2649 C.2        1 <1>        0.000
      6 O2          2.3967    0.7555   -0.9549 O.2        1 <1>        0.000
      7 O3          1.4954   -0.4738    0.6886 O.3        1 <1>        0.000
      8 H           0.1557    2.0881   -0.5229 H.spc      1 <1>        0.000
      9 H          -2.8773   -0.1437   -0.4542 H.spc      1 <1>        0.000
     10 H          -2.3438    1.2928   -1.3334 H.spc      1 <1>        0.000
     11 H           0.6359   -0.5559    1.1083 H.spc      1 <1>        0.000
@<TRIPOS>BOND
     1    1    2 am 
     2    1    5 am 
     3    2    3 2  
     4    2    4 am 
     5    5    6 2  
     6    5    7 1  
     7    1    8 1  
     8    4    9 1  
     9    4   10 1  
    10    7   11 1  
# Name:          frag3-290-2/31924
# Creation time: Sat Jun  5 12:52:46 2010


@<TRIPOS>MOLECULE
frag3-290-2/31924
   11    10     1     1     1
SMALL
USER_CHARGES


@<TRIPOS>ATOM
      1 N1          0.2934    0.1335   -1.0674 N.am       1 <1>        0.000
      2 C1         -0.8267    0.1037   -0.3620 C.2        1 <1>        0.000
      3 O1         -0.9027    0.7630    0.6968 O.2        1 <1>        0.000
      4 N2         -1.9674   -0.5147   -0.5623 N.am       1 <1>        0.000
      5 C2          1.3684    0.4575   -0.2953 C.2        1 <1>        0.000
      6 O2          2.0998    1.3905   -0.5470 O.2        1 <1>        0.000
      7 O3          1.4813   -0.3221    0.8083 O.3        1 <1>        0.000
      8 H           0.3453   -0.0622   -2.0671 H.spc      1 <1>        0.000
      9 H          -2.7310   -0.4051    0.1050 H.spc      1 <1>        0.000
     10 H          -2.0900   -1.1048   -1.3852 H.spc      1 <1>        0.000
     11 H           0.7963   -0.9946    0.7951 H.spc      1 <1>        0.000
@<TRIPOS>BOND
     1    1    2 am 
     2    1    5 am 
     3    2    3 2  
     4    2    4 am 
     5    5    6 2  
     6    5    7 1  
     7    1    8 1  
     8    4    9 1  
     9    4   10 1  
    10    7   11 1  
# Name:          frag3-290-2/31924 -- energy: 1.732492
# Creation time: Sat Jun  5 12:52:46 2010


@<TRIPOS>MOLECULE
frag3-290-2/31924 -- energy: 1.732492
   11    10     1     1     1
SMALL
USER_CHARGES


@<TRIPOS>ATOM
      1 N1          0.2944   -0.1638    0.3788 N.am       1 <1>        0.000
      2 C1         -0.9191    0.1072   -0.1009 C.2        1 <1>        0.000
      3 O1         -1.9445   -0.3909    0.3376 O.2        1 <1>        0.000
      4 N2         -1.2537    0.9514   -1.0984 N.am       1 <1>        0.000
      5 C2          1.3819    0.3506   -0.2244 C.2        1 <1>        0.000
      6 O2          1.5751    0.9916   -1.2520 O.2        1 <1>        0.000
      7 O3          2.4119    0.1653    0.6303 O.3        1 <1>        0.000
      8 H           0.3986   -0.7592    1.2004 H.spc      1 <1>        0.000
      9 H          -2.2330    1.0732   -1.3565 H.spc      1 <1>        0.000
     10 H          -0.5275    1.4680   -1.5945 H.spc      1 <1>        0.000
     11 H           2.1129   -0.3502    1.3829 H.spc      1 <1>        0.000
@<TRIPOS>BOND
     1    1    2 am 
     2    1    5 am 
     3    2    3 2  
     4    2    4 am 
     5    5    6 2  
     6    5    7 1  
     7    1    8 1  
     8    4    9 1  
     9    4   10 1  
    10    7   11 1  
# Name:          frag3-290-2/31924 -- energy: 1.501799
# Creation time: Sat Jun  5 12:52:46 2010


@<TRIPOS>MOLECULE
frag3-290-2/31924 -- energy: 1.501799
   11    10     1     1     1
SMALL
USER_CHARGES


@<TRIPOS>ATOM
      1 N1          0.2579   -0.1086    0.4657 N.am       1 <1>        0.000
      2 C1         -0.9192    0.1777   -0.0799 C.2        1 <1>        0.000
      3 O1         -0.9778    0.6678   -1.2240 O.2        1 <1>        0.000
      4 N2         -2.1555    0.0133    0.3656 N.am       1 <1>        0.000
      5 C2          1.3658    0.3246   -0.2008 C.2        1 <1>        0.000
      6 O2          1.6045    0.6511   -1.3544 O.2        1 <1>        0.000
      7 O3          2.3705    0.2855    0.6988 O.3        1 <1>        0.000
      8 H           0.3294   -0.6274    1.3410 H.spc      1 <1>        0.000
      9 H          -2.9479    0.2797   -0.2189 H.spc      1 <1>        0.000
     10 H          -2.3153   -0.3797    1.2932 H.spc      1 <1>        0.000
     11 H           2.0243    0.0134    1.5518 H.spc      1 <1>        0.000
@<TRIPOS>BOND
     1    1    2 am 
     2    1    5 am 
     3    2    3 2  
     4    2    4 am 
     5    5    6 2  
     6    5    7 1  
     7    1    8 1  
     8    4    9 1  
     9    4   10 1  
    10    7   11 1  
# Name:          frag3-290-2/31924 -- energy: 1.323811
# Creation time: Sat Jun  5 12:52:46 2010


@<TRIPOS>MOLECULE
frag3-290-2/31924 -- energy: 1.323811
   11    10     1     1     1
SMALL
USER_CHARGES


@<TRIPOS>ATOM
      1 N1          0.2934    0.1335   -1.0674 N.am       1 <1>        0.000
      2 C1         -0.8267    0.1037   -0.3620 C.2        1 <1>        0.000
      3 O1         -0.9027    0.7630    0.6968 O.2        1 <1>        0.000
      4 N2         -1.9674   -0.5147   -0.5623 N.am       1 <1>        0.000
      5 C2          1.3684    0.4575   -0.2953 C.2        1 <1>        0.000
      6 O2          2.0998    1.3905   -0.5470 O.2        1 <1>        0.000
      7 O3          1.4813   -0.3221    0.8083 O.3        1 <1>        0.000
      8 H           0.3453   -0.0622   -2.0671 H.spc      1 <1>        0.000
      9 H          -2.7310   -0.4051    0.1050 H.spc      1 <1>        0.000
     10 H          -2.0900   -1.1048   -1.3852 H.spc      1 <1>        0.000
     11 H           0.7963   -0.9946    0.7951 H.spc      1 <1>        0.000
@<TRIPOS>BOND
     1    1    2 am 
     2    1    5 am 
     3    2    3 2  
     4    2    4 am 
     5    5    6 2  
     6    5    7 1  
     7    1    8 1  
     8    4    9 1  
     9    4   10 1  
    10    7   11 1  
