#      Rotatable Fragment
#      Build by yxyuan
#
# Name:          frag3-270-2/31924
# Creation time: Sat Jun  5 12:52:42 2010


@<TRIPOS>MOLECULE
frag3-270-2/31924
   17    16     1     1     1
SMALL
USER_CHARGES


@<TRIPOS>ATOM
      1 S1         -5.4214   -0.1836    1.8250 S.2        1 <1>        0.000
      2 P1         -5.8960   -0.9954    0.1869 P.3        1 <1>        0.000
      3 O1         -4.7566   -1.1564   -0.8846 O.3        1 <1>        0.000
      4 P2         -4.5120   -2.4816   -1.6668 P.3        1 <1>        0.000
      5 O2         -5.7928   -3.1136   -1.8563 O.2        1 <1>        0.000
      6 O3         -3.5334   -3.3350   -0.7924 O.3        1 <1>        0.000
      7 P3         -2.0438   -2.8844   -0.6237 P.3        1 <1>        0.000
      8 O4         -1.9935   -1.4686   -0.9445 O.2        1 <1>        0.000
      9 O5         -1.1723   -3.6758   -1.6606 O.3        1 <1>        0.000
     10 O9         -1.4956   -3.2152    0.8020 O.3        1 <1>        0.000
     11 O10        -3.7514   -2.2040   -3.0244 O.3        1 <1>        0.000
     12 O11        -6.4595   -2.5280    0.3829 O.3        1 <1>        0.000
     13 O12        -7.0109   -0.3195   -0.4741 O.2        1 <1>        0.000
     14 H          -1.2021   -4.6126   -1.4531 H.spc      1 <1>        0.000
     15 H          -1.5547   -4.1611    0.9548 H.spc      1 <1>        0.000
     16 H          -2.9086   -1.7840   -2.8376 H.spc      1 <1>        0.000
     17 H          -6.6864   -2.8964   -0.4741 H.spc      1 <1>        0.000
@<TRIPOS>BOND
     1    7    9 1  
     2    7    8 2  
     3    7   10 1  
     4    2    3 1  
     5    1    2 2  
     6    2   12 1  
     7    2   13 2  
     8    3    4 1  
     9    4    5 2  
    10    4    6 1  
    11    4   11 1  
    12    6    7 1  
    13    9   14 1  
    14   10   15 1  
    15   11   16 1  
    16   12   17 1  
# Name:          frag3-270-2/31924
# Creation time: Sat Jun  5 12:52:42 2010


@<TRIPOS>MOLECULE
frag3-270-2/31924
   17    16     1     1     1
SMALL
USER_CHARGES


@<TRIPOS>ATOM
      1 S1         -5.4741    0.5261    1.2830 S.2        1 <1>        0.000
      2 P1         -5.5116   -1.0410    0.2210 P.3        1 <1>        0.000
      3 O1         -4.5796   -1.0826   -1.0486 O.3        1 <1>        0.000
      4 P2         -4.4837   -2.2935   -2.0278 P.3        1 <1>        0.000
      5 O2         -5.3575   -3.3209   -1.4518 O.2        1 <1>        0.000
      6 O3         -3.0218   -2.8223   -1.9460 O.3        1 <1>        0.000
      7 P3         -2.2717   -2.9208   -0.5820 P.3        1 <1>        0.000
      8 O4         -2.2400   -1.5919    0.0209 O.2        1 <1>        0.000
      9 O5         -0.8474   -3.5027   -0.7452 O.3        1 <1>        0.000
     10 O9         -3.1044   -3.9413    0.3095 O.3        1 <1>        0.000
     11 O10        -4.8894   -1.8878   -3.4744 O.3        1 <1>        0.000
     12 O11        -5.1950   -2.3980    1.0388 O.3        1 <1>        0.000
     13 O12        -6.8628   -1.2844   -0.3278 O.2        1 <1>        0.000
     14 H          -0.9028   -4.3746   -1.1432 H.spc      1 <1>        0.000
     15 H          -3.1072   -4.8040   -0.1117 H.spc      1 <1>        0.000
     16 H          -4.2853   -1.2157   -3.7984 H.spc      1 <1>        0.000
     17 H          -5.2313   -3.1472    0.4397 H.spc      1 <1>        0.000
@<TRIPOS>BOND
     1    7    9 1  
     2    7    8 2  
     3    7   10 1  
     4    2    3 1  
     5    1    2 2  
     6    2   12 1  
     7    2   13 2  
     8    3    4 1  
     9    4    5 2  
    10    4    6 1  
    11    4   11 1  
    12    6    7 1  
    13    9   14 1  
    14   10   15 1  
    15   11   16 1  
    16   12   17 1  
# Name:          frag3-270-2/31924
# Creation time: Sat Jun  5 12:52:42 2010


@<TRIPOS>MOLECULE
frag3-270-2/31924
   17    16     1     1     1
SMALL
USER_CHARGES


@<TRIPOS>ATOM
      1 S1         -6.1033    0.0917    1.7121 S.2        1 <1>        0.000
      2 P1         -6.2223   -0.9403    0.1316 P.3        1 <1>        0.000
      3 O1         -4.9397   -0.9646   -0.7826 O.3        1 <1>        0.000
      4 P2         -4.3712   -2.2674   -1.3741 P.3        1 <1>        0.000
      5 O2         -5.4834   -3.1656   -1.6408 O.2        1 <1>        0.000
      6 O3         -3.3610   -2.9100   -0.3654 O.3        1 <1>        0.000
      7 P3         -1.8429   -3.0101   -0.7270 P.3        1 <1>        0.000
      8 O4         -1.3726   -1.6853   -1.0789 O.2        1 <1>        0.000
      9 O5         -1.7738   -3.9336   -2.0146 O.3        1 <1>        0.000
     10 O9         -1.0081   -3.7154    0.3806 O.3        1 <1>        0.000
     11 O10        -3.5185   -1.9857   -2.6820 O.3        1 <1>        0.000
     12 O11        -6.4976   -2.5301    0.4263 O.3        1 <1>        0.000
     13 O12        -7.3446   -0.5448   -0.7155 O.2        1 <1>        0.000
     14 H          -2.0836   -4.8146   -1.7921 H.spc      1 <1>        0.000
     15 H          -1.3801   -4.5827    0.5566 H.spc      1 <1>        0.000
     16 H          -2.7954   -1.3912   -2.4693 H.spc      1 <1>        0.000
     17 H          -6.5487   -3.0046   -0.4067 H.spc      1 <1>        0.000
@<TRIPOS>BOND
     1    7    9 1  
     2    7    8 2  
     3    7   10 1  
     4    2    3 1  
     5    1    2 2  
     6    2   12 1  
     7    2   13 2  
     8    3    4 1  
     9    4    5 2  
    10    4    6 1  
    11    4   11 1  
    12    6    7 1  
    13    9   14 1  
    14   10   15 1  
    15   11   16 1  
    16   12   17 1  
# Name:          frag3-270-2/31924
# Creation time: Sat Jun  5 12:52:42 2010


@<TRIPOS>MOLECULE
frag3-270-2/31924
   17    16     1     1     1
SMALL
USER_CHARGES


@<TRIPOS>ATOM
      1 S1         -5.0335   -0.1875    1.8303 S.2        1 <1>        0.000
      2 P1         -5.5715   -1.2031    0.3332 P.3        1 <1>        0.000
      3 O1         -4.6386   -1.1688   -0.9404 O.3        1 <1>        0.000
      4 P2         -4.5726   -2.3208   -1.9985 P.3        1 <1>        0.000
      5 O2         -5.9036   -2.8753   -2.0982 O.2        1 <1>        0.000
      6 O3         -3.5650   -3.3548   -1.3702 O.3        1 <1>        0.000
      7 P3         -2.2795   -2.8447   -0.6228 P.3        1 <1>        0.000
      8 O4         -1.7931   -1.6861   -1.3469 O.2        1 <1>        0.000
      9 O5         -1.2012   -3.9445   -0.5226 O.3        1 <1>        0.000
     10 O9         -2.7038   -2.4680    0.8649 O.3        1 <1>        0.000
     11 O10        -3.9689   -1.8620   -3.3627 O.3        1 <1>        0.000
     12 O11        -5.7001   -2.8119    0.6468 O.3        1 <1>        0.000
     13 O12        -6.9076   -0.8334   -0.1434 O.2        1 <1>        0.000
     14 H          -1.5548   -4.6946   -0.0390 H.spc      1 <1>        0.000
     15 H          -3.0201   -3.2547    1.3152 H.spc      1 <1>        0.000
     16 H          -3.0887   -1.5068   -3.2186 H.spc      1 <1>        0.000
     17 H          -5.9757   -3.2711   -0.1500 H.spc      1 <1>        0.000
@<TRIPOS>BOND
     1    7    9 1  
     2    7    8 2  
     3    7   10 1  
     4    2    3 1  
     5    1    2 2  
     6    2   12 1  
     7    2   13 2  
     8    3    4 1  
     9    4    5 2  
    10    4    6 1  
    11    4   11 1  
    12    6    7 1  
    13    9   14 1  
    14   10   15 1  
    15   11   16 1  
    16   12   17 1  
# Name:          frag3-270-2/31924
# Creation time: Sat Jun  5 12:52:42 2010


@<TRIPOS>MOLECULE
frag3-270-2/31924
   17    16     1     1     1
SMALL
USER_CHARGES


@<TRIPOS>ATOM
      1 S1         -5.4341    0.3068    1.5483 S.2        1 <1>        0.000
      2 P1         -5.7016   -1.0095    0.2206 P.3        1 <1>        0.000
      3 O1         -4.4838   -1.4432   -0.6552 O.3        1 <1>        0.000
      4 P2         -4.5085   -2.5205   -1.7869 P.3        1 <1>        0.000
      5 O2         -5.5715   -3.4386   -1.4008 O.2        1 <1>        0.000
      6 O3         -3.1333   -3.2246   -1.7902 O.3        1 <1>        0.000
      7 P3         -2.0666   -2.9024   -0.7109 P.3        1 <1>        0.000
      8 O4         -2.1150   -1.4718   -0.4456 O.2        1 <1>        0.000
      9 O5         -0.6435   -3.3213   -1.1515 O.3        1 <1>        0.000
     10 O9         -2.4063   -3.7458    0.5877 O.3        1 <1>        0.000
     11 O10        -4.7799   -1.7952   -3.1451 O.3        1 <1>        0.000
     12 O11        -6.2961   -2.4092    0.7774 O.3        1 <1>        0.000
     13 O12        -6.6991   -0.5857   -0.7781 O.2        1 <1>        0.000
     14 H          -0.6277   -4.2658   -1.3225 H.spc      1 <1>        0.000
     15 H          -2.3659   -4.6821    0.3795 H.spc      1 <1>        0.000
     16 H          -4.0479   -1.2069   -3.3443 H.spc      1 <1>        0.000
     17 H          -6.4034   -3.0231    0.0472 H.spc      1 <1>        0.000
@<TRIPOS>BOND
     1    7    9 1  
     2    7    8 2  
     3    7   10 1  
     4    2    3 1  
     5    1    2 2  
     6    2   12 1  
     7    2   13 2  
     8    3    4 1  
     9    4    5 2  
    10    4    6 1  
    11    4   11 1  
    12    6    7 1  
    13    9   14 1  
    14   10   15 1  
    15   11   16 1  
    16   12   17 1  
# Name:          frag3-270-2/31924
# Creation time: Sat Jun  5 12:52:42 2010


@<TRIPOS>MOLECULE
frag3-270-2/31924
   17    16     1     1     1
SMALL
USER_CHARGES


@<TRIPOS>ATOM
      1 S1         -5.8178   -0.5107    2.1003 S.2        1 <1>        0.000
      2 P1         -5.7345   -1.0844    0.2995 P.3        1 <1>        0.000
      3 O1         -5.0366   -2.4787    0.0213 O.3        1 <1>        0.000
      4 P2         -4.6670   -3.0055   -1.3940 P.3        1 <1>        0.000
      5 O2         -5.6867   -3.8983   -1.9040 O.2        1 <1>        0.000
      6 O3         -3.2376   -3.5775   -1.3805 O.3        1 <1>        0.000
      7 P3         -2.0225   -2.6914   -0.9402 P.3        1 <1>        0.000
      8 O4         -2.1579   -1.4030   -1.6045 O.2        1 <1>        0.000
      9 O5         -0.6745   -3.3698   -1.2856 O.3        1 <1>        0.000
     10 O9         -2.0953   -2.5392    0.6409 O.3        1 <1>        0.000
     11 O10        -4.5708   -1.6843   -2.3162 O.3        1 <1>        0.000
     12 O11        -7.1667   -1.1918   -0.4389 O.3        1 <1>        0.000
     13 O12        -4.9712   -0.1261   -0.5287 O.2        1 <1>        0.000
     14 H          -0.6174   -4.2144   -0.8329 H.spc      1 <1>        0.000
     15 H          -2.0032   -3.4032    1.0490 H.spc      1 <1>        0.000
     16 H          -3.8922   -1.1012   -1.9682 H.spc      1 <1>        0.000
     17 H          -7.0379   -1.4874   -1.3431 H.spc      1 <1>        0.000
@<TRIPOS>BOND
     1    7    9 1  
     2    7    8 2  
     3    7   10 1  
     4    2    3 1  
     5    1    2 2  
     6    2   12 1  
     7    2   13 2  
     8    3    4 1  
     9    4    5 2  
    10    4    6 1  
    11    4   11 1  
    12    6    7 1  
    13    9   14 1  
    14   10   15 1  
    15   11   16 1  
    16   12   17 1  
# Name:          frag3-270-2/31924
# Creation time: Sat Jun  5 12:52:42 2010


@<TRIPOS>MOLECULE
frag3-270-2/31924
   17    16     1     1     1
SMALL
USER_CHARGES


@<TRIPOS>ATOM
      1 S1         -5.9379    0.4352    1.4776 S.2        1 <1>        0.000
      2 P1         -5.9700   -0.9071    0.1361 P.3        1 <1>        0.000
      3 O1         -4.5946   -1.5077   -0.3142 O.3        1 <1>        0.000
      4 P2         -4.4294   -2.5143   -1.4862 P.3        1 <1>        0.000
      5 O2         -4.8288   -3.8322   -1.0119 O.2        1 <1>        0.000
      6 O3         -2.9477   -2.5716   -1.9104 O.3        1 <1>        0.000
      7 P3         -1.8283   -2.8883   -0.8757 P.3        1 <1>        0.000
      8 O4         -1.6586   -1.7537    0.0038 O.2        1 <1>        0.000
      9 O5         -0.5140   -3.2869   -1.5769 O.3        1 <1>        0.000
     10 O9         -2.3567   -4.1716   -0.0835 O.3        1 <1>        0.000
     11 O10        -5.3576   -1.9931   -2.6415 O.3        1 <1>        0.000
     12 O11        -6.8409   -2.1634    0.6581 O.3        1 <1>        0.000
     13 O12        -6.5747   -0.4062   -1.1057 O.2        1 <1>        0.000
     14 H          -0.6737   -4.0415   -2.1485 H.spc      1 <1>        0.000
     15 H          -2.4581   -4.9045   -0.6952 H.spc      1 <1>        0.000
     16 H          -5.0596   -1.1250   -2.9229 H.spc      1 <1>        0.000
     17 H          -6.8580   -2.8432   -0.0196 H.spc      1 <1>        0.000
@<TRIPOS>BOND
     1    7    9 1  
     2    7    8 2  
     3    7   10 1  
     4    2    3 1  
     5    1    2 2  
     6    2   12 1  
     7    2   13 2  
     8    3    4 1  
     9    4    5 2  
    10    4    6 1  
    11    4   11 1  
    12    6    7 1  
    13    9   14 1  
    14   10   15 1  
    15   11   16 1  
    16   12   17 1  
# Name:          frag3-270-2/31924
# Creation time: Sat Jun  5 12:52:42 2010


@<TRIPOS>MOLECULE
frag3-270-2/31924
   17    16     1     1     1
SMALL
USER_CHARGES


@<TRIPOS>ATOM
      1 S1         -5.8388    0.2454    1.5725 S.2        1 <1>        0.000
      2 P1         -5.7856   -1.0688    0.2079 P.3        1 <1>        0.000
      3 O1         -4.4414   -1.1695   -0.6243 O.3        1 <1>        0.000
      4 P2         -4.2867   -2.0670   -1.9012 P.3        1 <1>        0.000
      5 O2         -5.2054   -3.1835   -1.7089 O.2        1 <1>        0.000
      6 O3         -2.8465   -2.6220   -1.9203 O.3        1 <1>        0.000
      7 P3         -2.1875   -3.1614   -0.6052 P.3        1 <1>        0.000
      8 O4         -3.2308   -3.2071    0.4017 O.2        1 <1>        0.000
      9 O5         -1.0638   -2.1718   -0.1592 O.3        1 <1>        0.000
     10 O9         -1.5225   -4.5599   -0.8668 O.3        1 <1>        0.000
     11 O10        -4.6224   -1.2069   -3.1580 O.3        1 <1>        0.000
     12 O11        -5.9936   -2.5483    0.8399 O.3        1 <1>        0.000
     13 O12        -6.8142   -0.8401   -0.8083 O.2        1 <1>        0.000
     14 H          -0.3770   -2.1462   -0.8294 H.spc      1 <1>        0.000
     15 H          -0.8430   -4.4692   -1.5388 H.spc      1 <1>        0.000
     16 H          -3.9876   -0.4907   -3.2331 H.spc      1 <1>        0.000
     17 H          -5.9642   -3.2021    0.1375 H.spc      1 <1>        0.000
@<TRIPOS>BOND
     1    7    9 1  
     2    7    8 2  
     3    7   10 1  
     4    2    3 1  
     5    1    2 2  
     6    2   12 1  
     7    2   13 2  
     8    3    4 1  
     9    4    5 2  
    10    4    6 1  
    11    4   11 1  
    12    6    7 1  
    13    9   14 1  
    14   10   15 1  
    15   11   16 1  
    16   12   17 1  
# Name:          frag3-270-2/31924
# Creation time: Sat Jun  5 12:52:42 2010


@<TRIPOS>MOLECULE
frag3-270-2/31924
   17    16     1     1     1
SMALL
USER_CHARGES


@<TRIPOS>ATOM
      1 S1         -7.1950   -0.2267    0.5286 S.2        1 <1>        0.000
      2 P1         -5.5236   -1.1055    0.3838 P.3        1 <1>        0.000
      3 O1         -4.8265   -0.9816   -1.0285 O.3        1 <1>        0.000
      4 P2         -4.6288   -2.2131   -1.9656 P.3        1 <1>        0.000
      5 O2         -5.9018   -2.7065   -2.4220 O.2        1 <1>        0.000
      6 O3         -3.8703   -3.2496   -1.0448 O.3        1 <1>        0.000
      7 P3         -2.3879   -2.9969   -0.6067 P.3        1 <1>        0.000
      8 O4         -2.1324   -1.5825   -0.8480 O.2        1 <1>        0.000
      9 O5         -1.4656   -3.8586   -1.5243 O.3        1 <1>        0.000
     10 O9         -2.1426   -3.4102    0.8793 O.3        1 <1>        0.000
     11 O10        -3.6108   -1.9053   -3.1309 O.3        1 <1>        0.000
     12 O11        -4.4567   -0.7439    1.5203 O.3        1 <1>        0.000
     13 O12        -5.6972   -2.5806    0.5283 O.2        1 <1>        0.000
     14 H          -1.6358   -4.7896   -1.3634 H.spc      1 <1>        0.000
     15 H          -2.3243   -4.3470    0.9839 H.spc      1 <1>        0.000
     16 H          -2.7875   -1.5818   -2.7579 H.spc      1 <1>        0.000
     17 H          -3.6462   -1.2343    1.3645 H.spc      1 <1>        0.000
@<TRIPOS>BOND
     1    7    9 1  
     2    7    8 2  
     3    7   10 1  
     4    2    3 1  
     5    1    2 2  
     6    2   12 1  
     7    2   13 2  
     8    3    4 1  
     9    4    5 2  
    10    4    6 1  
    11    4   11 1  
    12    6    7 1  
    13    9   14 1  
    14   10   15 1  
    15   11   16 1  
    16   12   17 1  
# Name:          frag3-270-2/31924
# Creation time: Sat Jun  5 12:52:42 2010


@<TRIPOS>MOLECULE
frag3-270-2/31924
   17    16     1     1     1
SMALL
USER_CHARGES


@<TRIPOS>ATOM
      1 S1         -5.3834   -0.1822    1.8194 S.2        1 <1>        0.000
      2 P1         -5.8887   -0.9980    0.1838 P.3        1 <1>        0.000
      3 O1         -4.7456   -1.1653   -0.8894 O.3        1 <1>        0.000
      4 P2         -4.5123   -2.4964   -1.6785 P.3        1 <1>        0.000
      5 O2         -5.8092   -3.1155   -1.8519 O.2        1 <1>        0.000
      6 O3         -3.5396   -3.3575   -0.8105 O.3        1 <1>        0.000
      7 P3         -2.0378   -2.9630   -0.6680 P.3        1 <1>        0.000
      8 O4         -1.3442   -3.2213   -1.9057 O.2        1 <1>        0.000
      9 O5         -1.3574   -3.6315    0.5430 O.3        1 <1>        0.000
     10 O9         -2.0280   -1.3796   -0.3453 O.3        1 <1>        0.000
     11 O10        -3.7668   -2.2199   -3.0352 O.3        1 <1>        0.000
     12 O11        -6.4329   -2.5246    0.3787 O.3        1 <1>        0.000
     13 O12        -6.9931   -0.3061   -0.4708 O.2        1 <1>        0.000
     14 H          -1.8547   -3.4307    1.3392 H.spc      1 <1>        0.000
     15 H          -2.4919   -1.2194    0.4798 H.spc      1 <1>        0.000
     16 H          -2.9173   -1.8107   -2.8546 H.spc      1 <1>        0.000
     17 H          -6.6739   -2.8888   -0.4762 H.spc      1 <1>        0.000
@<TRIPOS>BOND
     1    7    9 1  
     2    7    8 2  
     3    7   10 1  
     4    2    3 1  
     5    1    2 2  
     6    2   12 1  
     7    2   13 2  
     8    3    4 1  
     9    4    5 2  
    10    4    6 1  
    11    4   11 1  
    12    6    7 1  
    13    9   14 1  
    14   10   15 1  
    15   11   16 1  
    16   12   17 1  
# Name:          frag3-270-2/31924
# Creation time: Sat Jun  5 12:52:42 2010


@<TRIPOS>MOLECULE
frag3-270-2/31924
   17    16     1     1     1
SMALL
USER_CHARGES


@<TRIPOS>ATOM
      1 S1         -6.5155    0.3344    1.5119 S.2        1 <1>        0.000
      2 P1         -6.1844   -1.0228    0.2431 P.3        1 <1>        0.000
      3 O1         -4.6883   -1.2243   -0.2175 O.3        1 <1>        0.000
      4 P2         -4.2643   -2.1364   -1.3962 P.3        1 <1>        0.000
      5 O2         -4.5226   -3.5329   -0.9794 O.2        1 <1>        0.000
      6 O3         -2.7522   -2.0350   -1.7046 O.3        1 <1>        0.000
      7 P3         -1.7253   -2.9548   -0.9876 P.3        1 <1>        0.000
      8 O4         -0.4942   -2.2794   -0.6421 O.2        1 <1>        0.000
      9 O5         -1.4732   -4.1957   -1.9007 O.3        1 <1>        0.000
     10 O9         -2.4956   -3.4946    0.3131 O.3        1 <1>        0.000
     11 O10        -5.1513   -1.7524   -2.6350 O.3        1 <1>        0.000
     12 O11        -6.6647   -2.4993    0.6868 O.3        1 <1>        0.000
     13 O12        -6.9074   -0.7678   -1.0221 O.2        1 <1>        0.000
     14 H          -2.3116   -4.6153   -2.1072 H.spc      1 <1>        0.000
     15 H          -3.3050   -3.9354    0.0444 H.spc      1 <1>        0.000
     16 H          -4.9688   -0.8447   -2.8888 H.spc      1 <1>        0.000
     17 H          -6.4596   -3.1248   -0.0120 H.spc      1 <1>        0.000
@<TRIPOS>BOND
     1    7    9 1  
     2    7    8 2  
     3    7   10 1  
     4    2    3 1  
     5    1    2 2  
     6    2   12 1  
     7    2   13 2  
     8    3    4 1  
     9    4    5 2  
    10    4    6 1  
    11    4   11 1  
    12    6    7 1  
    13    9   14 1  
    14   10   15 1  
    15   11   16 1  
    16   12   17 1  
# Name:          frag3-270-2/31924
# Creation time: Sat Jun  5 12:52:42 2010


@<TRIPOS>MOLECULE
frag3-270-2/31924
   17    16     1     1     1
SMALL
USER_CHARGES


@<TRIPOS>ATOM
      1 S1         -7.5763   -1.4270    1.0309 S.2        1 <1>        0.000
      2 P1         -5.8861   -1.0995    0.2416 P.3        1 <1>        0.000
      3 O1         -5.7549   -1.5158   -1.2738 O.3        1 <1>        0.000
      4 P2         -4.5914   -2.3682   -1.8079 P.3        1 <1>        0.000
      5 O2         -4.6479   -3.7093   -1.1995 O.2        1 <1>        0.000
      6 O3         -3.2377   -1.7419   -1.2553 O.3        1 <1>        0.000
      7 P3         -2.0921   -2.6497   -0.7073 P.3        1 <1>        0.000
      8 O4         -0.7894   -2.0041   -0.6855 O.2        1 <1>        0.000
      9 O5         -2.0642   -3.8954   -1.6843 O.3        1 <1>        0.000
     10 O9         -2.5358   -3.2081    0.7025 O.3        1 <1>        0.000
     11 O10        -4.4759   -2.4383   -3.3621 O.3        1 <1>        0.000
     12 O11        -5.3539    0.4080    0.3677 O.3        1 <1>        0.000
     13 O12        -4.8335   -1.9118    0.9026 O.2        1 <1>        0.000
     14 H          -2.9280   -4.3143   -1.6916 H.spc      1 <1>        0.000
     15 H          -3.3991   -3.6208    0.6247 H.spc      1 <1>        0.000
     16 H          -4.4418   -1.5481   -3.7198 H.spc      1 <1>        0.000
     17 H          -4.4964    0.4801   -0.0578 H.spc      1 <1>        0.000
@<TRIPOS>BOND
     1    7    9 1  
     2    7    8 2  
     3    7   10 1  
     4    2    3 1  
     5    1    2 2  
     6    2   12 1  
     7    2   13 2  
     8    3    4 1  
     9    4    5 2  
    10    4    6 1  
    11    4   11 1  
    12    6    7 1  
    13    9   14 1  
    14   10   15 1  
    15   11   16 1  
    16   12   17 1  
# Name:          frag3-270-2/31924
# Creation time: Sat Jun  5 12:52:42 2010


@<TRIPOS>MOLECULE
frag3-270-2/31924
   17    16     1     1     1
SMALL
USER_CHARGES


@<TRIPOS>ATOM
      1 S1         -5.7375    0.1704    1.7014 S.2        1 <1>        0.000
      2 P1         -5.8709   -1.2015    0.4090 P.3        1 <1>        0.000
      3 O1         -4.5514   -1.6990   -0.2695 O.3        1 <1>        0.000
      4 P2         -4.4749   -2.3742   -1.6781 P.3        1 <1>        0.000
      5 O2         -5.7458   -3.0491   -1.8540 O.2        1 <1>        0.000
      6 O3         -3.2615   -3.3264   -1.6812 O.3        1 <1>        0.000
      7 P3         -1.9460   -2.9664   -0.9373 P.3        1 <1>        0.000
      8 O4         -1.3382   -1.8152   -1.5777 O.2        1 <1>        0.000
      9 O5         -0.9754   -4.1593   -0.8310 O.3        1 <1>        0.000
     10 O9         -2.3910   -2.6164    0.5650 O.3        1 <1>        0.000
     11 O10        -4.2175   -1.2405   -2.7426 O.3        1 <1>        0.000
     12 O11        -6.6504   -2.5196    0.9152 O.3        1 <1>        0.000
     13 O12        -6.6786   -0.7638   -0.7499 O.2        1 <1>        0.000
     14 H          -1.4196   -4.8946   -0.4025 H.spc      1 <1>        0.000
     15 H          -2.7897   -3.3911    0.9681 H.spc      1 <1>        0.000
     16 H          -3.3647   -0.8330   -2.5745 H.spc      1 <1>        0.000
     17 H          -6.6763   -3.1666    0.2065 H.spc      1 <1>        0.000
@<TRIPOS>BOND
     1    7    9 1  
     2    7    8 2  
     3    7   10 1  
     4    2    3 1  
     5    1    2 2  
     6    2   12 1  
     7    2   13 2  
     8    3    4 1  
     9    4    5 2  
    10    4    6 1  
    11    4   11 1  
    12    6    7 1  
    13    9   14 1  
    14   10   15 1  
    15   11   16 1  
    16   12   17 1  
# Name:          frag3-270-2/31924
# Creation time: Sat Jun  5 12:52:42 2010


@<TRIPOS>MOLECULE
frag3-270-2/31924
   17    16     1     1     1
SMALL
USER_CHARGES


@<TRIPOS>ATOM
      1 S1         -4.8694   -0.9803    1.5591 S.2        1 <1>        0.000
      2 P1         -6.0620   -1.0477    0.0522 P.3        1 <1>        0.000
      3 O1         -5.2969   -1.1938   -1.3112 O.3        1 <1>        0.000
      4 P2         -4.5068   -2.4875   -1.6326 P.3        1 <1>        0.000
      5 O2         -5.4251   -3.5798   -1.8584 O.2        1 <1>        0.000
      6 O3         -3.5661   -2.7941   -0.4107 O.3        1 <1>        0.000
      7 P3         -2.0137   -2.7048   -0.5295 P.3        1 <1>        0.000
      8 O4         -1.6803   -1.3943   -1.0560 O.2        1 <1>        0.000
      9 O5         -1.6328   -3.7981   -1.6100 O.3        1 <1>        0.000
     10 O9         -1.2742   -3.0859    0.7799 O.3        1 <1>        0.000
     11 O10        -3.5048   -2.2755   -2.8389 O.3        1 <1>        0.000
     12 O11        -7.0625   -2.3220    0.1062 O.3        1 <1>        0.000
     13 O12        -6.9446    0.1028    0.0196 O.2        1 <1>        0.000
     14 H          -1.8495   -4.6699   -1.2716 H.spc      1 <1>        0.000
     15 H          -1.5502   -3.9621    1.0585 H.spc      1 <1>        0.000
     16 H          -2.9183   -1.5417   -2.6411 H.spc      1 <1>        0.000
     17 H          -7.6350   -2.3108   -0.6643 H.spc      1 <1>        0.000
@<TRIPOS>BOND
     1    7    9 1  
     2    7    8 2  
     3    7   10 1  
     4    2    3 1  
     5    1    2 2  
     6    2   12 1  
     7    2   13 2  
     8    3    4 1  
     9    4    5 2  
    10    4    6 1  
    11    4   11 1  
    12    6    7 1  
    13    9   14 1  
    14   10   15 1  
    15   11   16 1  
    16   12   17 1  
# Name:          frag3-270-2/31924
# Creation time: Sat Jun  5 12:52:42 2010


@<TRIPOS>MOLECULE
frag3-270-2/31924
   17    16     1     1     1
SMALL
USER_CHARGES


@<TRIPOS>ATOM
      1 S1         -6.0282   -2.3337    1.5550 S.2        1 <1>        0.000
      2 P1         -5.8154   -1.0209    0.1609 P.3        1 <1>        0.000
      3 O1         -4.6129   -1.3881   -0.7793 O.3        1 <1>        0.000
      4 P2         -4.5538   -2.7866   -1.5171 P.3        1 <1>        0.000
      5 O2         -5.7575   -3.4937   -1.1384 O.2        1 <1>        0.000
      6 O3         -3.2560   -3.4826   -1.0493 O.3        1 <1>        0.000
      7 P3         -1.9479   -2.6637   -0.7918 P.3        1 <1>        0.000
      8 O4         -1.8165   -1.7279   -1.8935 O.2        1 <1>        0.000
      9 O5         -0.7218   -3.5919   -0.6830 O.3        1 <1>        0.000
     10 O9         -2.1396   -1.9240    0.5975 O.3        1 <1>        0.000
     11 O10        -4.4530   -2.5388   -3.0642 O.3        1 <1>        0.000
     12 O11        -7.0796   -0.9224   -0.8363 O.3        1 <1>        0.000
     13 O12        -5.6569    0.3133    0.7089 O.2        1 <1>        0.000
     14 H          -0.8430   -4.1953    0.0538 H.spc      1 <1>        0.000
     15 H          -2.2223   -2.5761    1.2972 H.spc      1 <1>        0.000
     16 H          -3.6393   -2.0683   -3.2594 H.spc      1 <1>        0.000
     17 H          -6.9084   -0.2533   -1.5031 H.spc      1 <1>        0.000
@<TRIPOS>BOND
     1    7    9 1  
     2    7    8 2  
     3    7   10 1  
     4    2    3 1  
     5    1    2 2  
     6    2   12 1  
     7    2   13 2  
     8    3    4 1  
     9    4    5 2  
    10    4    6 1  
    11    4   11 1  
    12    6    7 1  
    13    9   14 1  
    14   10   15 1  
    15   11   16 1  
    16   12   17 1  
# Name:          frag3-270-2/31924
# Creation time: Sat Jun  5 12:52:42 2010


@<TRIPOS>MOLECULE
frag3-270-2/31924
   17    16     1     1     1
SMALL
USER_CHARGES


@<TRIPOS>ATOM
      1 S1         -6.0957   -0.1041    1.7646 S.2        1 <1>        0.000
      2 P1         -5.7779   -0.9233    0.0904 P.3        1 <1>        0.000
      3 O1         -5.0962   -2.3473    0.0958 O.3        1 <1>        0.000
      4 P2         -4.6573   -3.1211   -1.1736 P.3        1 <1>        0.000
      5 O2         -5.6633   -4.0767   -1.5859 O.2        1 <1>        0.000
      6 O3         -3.2434   -3.6946   -0.9828 O.3        1 <1>        0.000
      7 P3         -2.0154   -2.7472   -0.7810 P.3        1 <1>        0.000
      8 O4         -2.5445   -1.4349   -0.4343 O.2        1 <1>        0.000
      9 O5         -1.2337   -2.6454   -2.1355 O.3        1 <1>        0.000
     10 O9         -1.0293   -3.3084    0.2966 O.3        1 <1>        0.000
     11 O10        -4.4841   -1.9681   -2.3030 O.3        1 <1>        0.000
     12 O11        -7.1031   -1.1008   -0.8246 O.3        1 <1>        0.000
     13 O12        -4.8953   -0.0891   -0.7570 O.2        1 <1>        0.000
     14 H          -0.8835   -3.5087   -2.3672 H.spc      1 <1>        0.000
     15 H          -0.7118   -4.1711    0.0198 H.spc      1 <1>        0.000
     16 H          -3.8151   -1.3411   -2.0186 H.spc      1 <1>        0.000
     17 H          -6.8641   -1.5213   -1.6539 H.spc      1 <1>        0.000
@<TRIPOS>BOND
     1    7    9 1  
     2    7    8 2  
     3    7   10 1  
     4    2    3 1  
     5    1    2 2  
     6    2   12 1  
     7    2   13 2  
     8    3    4 1  
     9    4    5 2  
    10    4    6 1  
    11    4   11 1  
    12    6    7 1  
    13    9   14 1  
    14   10   15 1  
    15   11   16 1  
    16   12   17 1  
# Name:          frag3-270-2/31924
# Creation time: Sat Jun  5 12:52:42 2010


@<TRIPOS>MOLECULE
frag3-270-2/31924
   17    16     1     1     1
SMALL
USER_CHARGES


@<TRIPOS>ATOM
      1 S1         -6.0314    0.1885    1.6703 S.2        1 <1>        0.000
      2 P1         -5.7942   -1.2280    0.4507 P.3        1 <1>        0.000
      3 O1         -4.6282   -1.0986   -0.5999 O.3        1 <1>        0.000
      4 P2         -4.4716   -2.0485   -1.8229 P.3        1 <1>        0.000
      5 O2         -5.7883   -2.4306   -2.2628 O.2        1 <1>        0.000
      6 O3         -3.6489   -3.2739   -1.2874 O.3        1 <1>        0.000
      7 P3         -2.1610   -3.0842   -0.8266 P.3        1 <1>        0.000
      8 O4         -1.5087   -2.2402   -1.8117 O.2        1 <1>        0.000
      9 O5         -1.4325   -4.4303   -0.6487 O.3        1 <1>        0.000
     10 O9         -2.2052   -2.3762    0.6029 O.3        1 <1>        0.000
     11 O10        -3.5962   -1.4197   -2.9654 O.3        1 <1>        0.000
     12 O11        -5.5758   -2.6851    1.1493 O.3        1 <1>        0.000
     13 O12        -6.9971   -1.4343   -0.3783 O.2        1 <1>        0.000
     14 H          -1.8928   -4.9576    0.0083 H.spc      1 <1>        0.000
     15 H          -2.6407   -2.9556    1.2324 H.spc      1 <1>        0.000
     16 H          -2.7338   -1.1859   -2.6143 H.spc      1 <1>        0.000
     17 H          -5.4628   -3.3517    0.4678 H.spc      1 <1>        0.000
@<TRIPOS>BOND
     1    7    9 1  
     2    7    8 2  
     3    7   10 1  
     4    2    3 1  
     5    1    2 2  
     6    2   12 1  
     7    2   13 2  
     8    3    4 1  
     9    4    5 2  
    10    4    6 1  
    11    4   11 1  
    12    6    7 1  
    13    9   14 1  
    14   10   15 1  
    15   11   16 1  
    16   12   17 1  
# Name:          frag3-270-2/31924
# Creation time: Sat Jun  5 12:52:42 2010


@<TRIPOS>MOLECULE
frag3-270-2/31924
   17    16     1     1     1
SMALL
USER_CHARGES


@<TRIPOS>ATOM
      1 S1         -5.9738    0.4802    1.2466 S.2        1 <1>        0.000
      2 P1         -5.6066   -1.1339    0.3146 P.3        1 <1>        0.000
      3 O1         -4.8313   -1.0017   -1.0493 O.3        1 <1>        0.000
      4 P2         -4.5840   -2.2171   -1.9865 P.3        1 <1>        0.000
      5 O2         -5.8273   -2.7101   -2.4953 O.2        1 <1>        0.000
      6 O3         -3.8561   -3.2658   -1.0503 O.3        1 <1>        0.000
      7 P3         -2.3891   -3.0033   -0.5635 P.3        1 <1>        0.000
      8 O4         -2.1289   -1.5846   -0.7739 O.2        1 <1>        0.000
      9 O5         -1.4145   -3.8448   -1.4509 O.3        1 <1>        0.000
     10 O9         -2.1826   -3.4407    0.9262 O.3        1 <1>        0.000
     11 O10        -3.5227   -1.8834   -3.1118 O.3        1 <1>        0.000
     12 O11        -4.6919   -2.0901    1.2701 O.3        1 <1>        0.000
     13 O12        -6.8304   -1.8658   -0.0065 O.2        1 <1>        0.000
     14 H          -1.5847   -4.7795   -1.3134 H.spc      1 <1>        0.000
     15 H          -2.3656   -4.3792    1.0113 H.spc      1 <1>        0.000
     16 H          -2.7164   -1.5593   -2.7037 H.spc      1 <1>        0.000
     17 H          -4.4993   -2.9102    0.8097 H.spc      1 <1>        0.000
@<TRIPOS>BOND
     1    7    9 1  
     2    7    8 2  
     3    7   10 1  
     4    2    3 1  
     5    1    2 2  
     6    2   12 1  
     7    2   13 2  
     8    3    4 1  
     9    4    5 2  
    10    4    6 1  
    11    4   11 1  
    12    6    7 1  
    13    9   14 1  
    14   10   15 1  
    15   11   16 1  
    16   12   17 1  
# Name:          frag3-270-2/31924
# Creation time: Sat Jun  5 12:52:42 2010


@<TRIPOS>MOLECULE
frag3-270-2/31924
   17    16     1     1     1
SMALL
USER_CHARGES


@<TRIPOS>ATOM
      1 S1         -5.1062   -1.8960    1.6266 S.2        1 <1>        0.000
      2 P1         -5.8567   -1.0466    0.0589 P.3        1 <1>        0.000
      3 O1         -4.9591   -1.2608   -1.2025 O.3        1 <1>        0.000
      4 P2         -4.5630   -2.7154   -1.6425 P.3        1 <1>        0.000
      5 O2         -5.7555   -3.5230   -1.6481 O.2        1 <1>        0.000
      6 O3         -3.5025   -3.2051   -0.5984 O.3        1 <1>        0.000
      7 P3         -2.0573   -2.5891   -0.5661 P.3        1 <1>        0.000
      8 O4         -2.1543   -1.3152   -1.2629 O.2        1 <1>        0.000
      9 O5         -1.1357   -3.5548   -1.3811 O.3        1 <1>        0.000
     10 O9         -1.5218   -2.4678    0.8875 O.3        1 <1>        0.000
     11 O10        -3.8072   -2.7034   -3.0256 O.3        1 <1>        0.000
     12 O11        -7.3207   -1.6454   -0.2775 O.3        1 <1>        0.000
     13 O12        -6.0991    0.3615    0.3011 O.2        1 <1>        0.000
     14 H          -1.0706   -4.3958   -0.9228 H.spc      1 <1>        0.000
     15 H          -1.4832   -3.3399    1.2869 H.spc      1 <1>        0.000
     16 H          -3.0254   -2.1505   -2.9570 H.spc      1 <1>        0.000
     17 H          -7.6720   -1.2096   -1.0574 H.spc      1 <1>        0.000
@<TRIPOS>BOND
     1    7    9 1  
     2    7    8 2  
     3    7   10 1  
     4    2    3 1  
     5    1    2 2  
     6    2   12 1  
     7    2   13 2  
     8    3    4 1  
     9    4    5 2  
    10    4    6 1  
    11    4   11 1  
    12    6    7 1  
    13    9   14 1  
    14   10   15 1  
    15   11   16 1  
    16   12   17 1  
# Name:          frag3-270-2/31924
# Creation time: Sat Jun  5 12:52:42 2010


@<TRIPOS>MOLECULE
frag3-270-2/31924
   17    16     1     1     1
SMALL
USER_CHARGES


@<TRIPOS>ATOM
      1 S1         -7.2734   -1.9499    0.3540 S.2        1 <1>        0.000
      2 P1         -5.5675   -1.0657    0.2666 P.3        1 <1>        0.000
      3 O1         -4.9647   -1.1409   -1.1931 O.3        1 <1>        0.000
      4 P2         -4.6927   -2.5446   -1.8505 P.3        1 <1>        0.000
      5 O2         -5.9247   -3.2535   -2.0494 O.2        1 <1>        0.000
      6 O3         -3.7434   -3.2624   -0.8156 O.3        1 <1>        0.000
      7 P3         -2.2835   -2.7335   -0.5755 P.3        1 <1>        0.000
      8 O4         -2.2592   -1.3563   -1.0540 O.2        1 <1>        0.000
      9 O5         -1.3274   -3.6008   -1.4723 O.3        1 <1>        0.000
     10 O9         -1.8196   -2.8845    0.9027 O.3        1 <1>        0.000
     11 O10        -3.8290   -2.3968   -3.1645 O.3        1 <1>        0.000
     12 O11        -5.5660    0.4200    0.8115 O.3        1 <1>        0.000
     13 O12        -4.5878   -1.7919    1.1097 O.2        1 <1>        0.000
     14 H          -1.3379   -4.5097   -1.1634 H.spc      1 <1>        0.000
     15 H          -1.8582   -3.8096    1.1561 H.spc      1 <1>        0.000
     16 H          -3.0227   -1.9159   -2.9637 H.spc      1 <1>        0.000
     17 H          -4.6826    0.7875    0.7331 H.spc      1 <1>        0.000
@<TRIPOS>BOND
     1    7    9 1  
     2    7    8 2  
     3    7   10 1  
     4    2    3 1  
     5    1    2 2  
     6    2   12 1  
     7    2   13 2  
     8    3    4 1  
     9    4    5 2  
    10    4    6 1  
    11    4   11 1  
    12    6    7 1  
    13    9   14 1  
    14   10   15 1  
    15   11   16 1  
    16   12   17 1  
# Name:          frag3-270-2/31924
# Creation time: Sat Jun  5 12:52:42 2010


@<TRIPOS>MOLECULE
frag3-270-2/31924
   17    16     1     1     1
SMALL
USER_CHARGES


@<TRIPOS>ATOM
      1 S1         -5.2200   -0.6135    1.9124 S.2        1 <1>        0.000
      2 P1         -5.7939   -1.1992    0.2127 P.3        1 <1>        0.000
      3 O1         -5.1593   -2.5212   -0.3605 O.3        1 <1>        0.000
      4 P2         -4.5230   -2.6372   -1.7758 P.3        1 <1>        0.000
      5 O2         -4.4539   -3.9980   -2.2577 O.2        1 <1>        0.000
      6 O3         -3.0748   -2.0770   -1.6289 O.3        1 <1>        0.000
      7 P3         -2.1111   -2.6603   -0.5530 P.3        1 <1>        0.000
      8 O4         -2.8126   -2.6789    0.7146 O.2        1 <1>        0.000
      9 O5         -0.7988   -1.8475   -0.4560 O.3        1 <1>        0.000
     10 O9         -1.7043   -4.1220   -1.0160 O.3        1 <1>        0.000
     11 O10        -5.3974   -1.7008   -2.7000 O.3        1 <1>        0.000
     12 O11        -7.3807   -1.3063    0.0193 O.3        1 <1>        0.000
     13 O12        -5.4093   -0.1991   -0.8417 O.2        1 <1>        0.000
     14 H          -0.3568   -1.8526   -1.3082 H.spc      1 <1>        0.000
     15 H          -1.2429   -4.0734   -1.8564 H.spc      1 <1>        0.000
     16 H          -5.4089   -0.8131   -2.3347 H.spc      1 <1>        0.000
     17 H          -7.5737   -1.6101   -0.8707 H.spc      1 <1>        0.000
@<TRIPOS>BOND
     1    7    9 1  
     2    7    8 2  
     3    7   10 1  
     4    2    3 1  
     5    1    2 2  
     6    2   12 1  
     7    2   13 2  
     8    3    4 1  
     9    4    5 2  
    10    4    6 1  
    11    4   11 1  
    12    6    7 1  
    13    9   14 1  
    14   10   15 1  
    15   11   16 1  
    16   12   17 1  
# Name:          frag3-270-2/31924
# Creation time: Sat Jun  5 12:52:42 2010


@<TRIPOS>MOLECULE
frag3-270-2/31924
   17    16     1     1     1
SMALL
USER_CHARGES


@<TRIPOS>ATOM
      1 S1         -7.2799   -0.1159    0.8637 S.2        1 <1>        0.000
      2 P1         -5.7611   -1.0688    0.2741 P.3        1 <1>        0.000
      3 O1         -5.6541   -1.3387   -1.2803 O.3        1 <1>        0.000
      4 P2         -4.5505   -2.1947   -1.9272 P.3        1 <1>        0.000
      5 O2         -4.7354   -3.5980   -1.5196 O.2        1 <1>        0.000
      6 O3         -3.1740   -1.7751   -1.2453 O.3        1 <1>        0.000
      7 P3         -2.2225   -2.8438   -0.6206 P.3        1 <1>        0.000
      8 O4         -0.9900   -2.2997   -0.0866 O.2        1 <1>        0.000
      9 O5         -1.9376   -3.8955   -1.7501 O.3        1 <1>        0.000
     10 O9         -3.0788   -3.6041    0.4866 O.3        1 <1>        0.000
     11 O10        -4.4239   -2.0331   -3.4699 O.3        1 <1>        0.000
     12 O11        -4.3466   -0.3804    0.6646 O.3        1 <1>        0.000
     13 O12        -5.6847   -2.4132    0.8800 O.2        1 <1>        0.000
     14 H          -2.7699   -4.2380   -2.0842 H.spc      1 <1>        0.000
     15 H          -3.8827   -3.9462    0.0887 H.spc      1 <1>        0.000
     16 H          -4.3055   -1.1050   -3.6846 H.spc      1 <1>        0.000
     17 H          -3.6263   -0.9210    0.3321 H.spc      1 <1>        0.000
@<TRIPOS>BOND
     1    7    9 1  
     2    7    8 2  
     3    7   10 1  
     4    2    3 1  
     5    1    2 2  
     6    2   12 1  
     7    2   13 2  
     8    3    4 1  
     9    4    5 2  
    10    4    6 1  
    11    4   11 1  
    12    6    7 1  
    13    9   14 1  
    14   10   15 1  
    15   11   16 1  
    16   12   17 1  
# Name:          frag3-270-2/31924
# Creation time: Sat Jun  5 12:52:42 2010


@<TRIPOS>MOLECULE
frag3-270-2/31924
   17    16     1     1     1
SMALL
USER_CHARGES


@<TRIPOS>ATOM
      1 S1         -6.0930   -0.5020    2.1833 S.2        1 <1>        0.000
      2 P1         -5.9910   -1.1458    0.4072 P.3        1 <1>        0.000
      3 O1         -4.8195   -2.1443    0.0678 O.3        1 <1>        0.000
      4 P2         -4.5245   -2.6900   -1.3621 P.3        1 <1>        0.000
      5 O2         -5.7101   -3.3654   -1.8447 O.2        1 <1>        0.000
      6 O3         -3.2415   -3.5344   -1.3709 O.3        1 <1>        0.000
      7 P3         -1.8509   -2.8957   -1.1114 P.3        1 <1>        0.000
      8 O4         -1.4034   -2.1763   -2.2852 O.2        1 <1>        0.000
      9 O5         -0.8067   -3.9218   -0.6199 O.3        1 <1>        0.000
     10 O9         -2.0613   -1.8732    0.1192 O.3        1 <1>        0.000
     11 O10        -4.1938   -1.3927   -2.2476 O.3        1 <1>        0.000
     12 O11        -7.3311   -1.8798   -0.1113 O.3        1 <1>        0.000
     13 O12        -5.8123   -0.0395   -0.5548 O.2        1 <1>        0.000
     14 H          -1.1445   -4.3734    0.1570 H.spc      1 <1>        0.000
     15 H          -2.3577   -2.3604    0.8915 H.spc      1 <1>        0.000
     16 H          -3.4048   -0.9659   -1.9056 H.spc      1 <1>        0.000
     17 H          -7.2026   -2.1769   -1.0151 H.spc      1 <1>        0.000
@<TRIPOS>BOND
     1    7    9 1  
     2    7    8 2  
     3    7   10 1  
     4    2    3 1  
     5    1    2 2  
     6    2   12 1  
     7    2   13 2  
     8    3    4 1  
     9    4    5 2  
    10    4    6 1  
    11    4   11 1  
    12    6    7 1  
    13    9   14 1  
    14   10   15 1  
    15   11   16 1  
    16   12   17 1  
# Name:          frag3-270-2/31924
# Creation time: Sat Jun  5 12:52:42 2010


@<TRIPOS>MOLECULE
frag3-270-2/31924
   17    16     1     1     1
SMALL
USER_CHARGES


@<TRIPOS>ATOM
      1 S1         -7.7161   -0.0652    0.3383 S.2        1 <1>        0.000
      2 P1         -6.0975   -1.0337    0.3092 P.3        1 <1>        0.000
      3 O1         -5.1657   -0.8169   -0.9326 O.3        1 <1>        0.000
      4 P2         -4.3512   -1.9401   -1.5827 P.3        1 <1>        0.000
      5 O2         -5.2317   -2.9374   -2.1573 O.2        1 <1>        0.000
      6 O3         -3.4753   -2.6159   -0.4589 O.3        1 <1>        0.000
      7 P3         -2.0509   -3.1696   -0.7761 P.3        1 <1>        0.000
      8 O4         -1.2585   -2.0768   -1.3070 O.2        1 <1>        0.000
      9 O5         -2.2596   -4.2631   -1.8894 O.3        1 <1>        0.000
     10 O9         -1.4018   -3.8836    0.4473 O.3        1 <1>        0.000
     11 O10        -3.3022   -1.3928   -2.6240 O.3        1 <1>        0.000
     12 O11        -5.1792   -0.8692    1.6246 O.3        1 <1>        0.000
     13 O12        -6.3493   -2.4966    0.2782 O.2        1 <1>        0.000
     14 H          -2.7843   -4.9841   -1.5338 H.spc      1 <1>        0.000
     15 H          -1.9771   -4.5920    0.7452 H.spc      1 <1>        0.000
     16 H          -2.7435   -0.7377   -2.1995 H.spc      1 <1>        0.000
     17 H          -4.3811   -1.3931    1.5239 H.spc      1 <1>        0.000
@<TRIPOS>BOND
     1    7    9 1  
     2    7    8 2  
     3    7   10 1  
     4    2    3 1  
     5    1    2 2  
     6    2   12 1  
     7    2   13 2  
     8    3    4 1  
     9    4    5 2  
    10    4    6 1  
    11    4   11 1  
    12    6    7 1  
    13    9   14 1  
    14   10   15 1  
    15   11   16 1  
    16   12   17 1  
# Name:          frag3-270-2/31924
# Creation time: Sat Jun  5 12:52:42 2010


@<TRIPOS>MOLECULE
frag3-270-2/31924
   17    16     1     1     1
SMALL
USER_CHARGES


@<TRIPOS>ATOM
      1 S1         -7.5742   -2.0758    0.2167 S.2        1 <1>        0.000
      2 P1         -5.9963   -0.9911    0.1721 P.3        1 <1>        0.000
      3 O1         -5.2302   -1.1219   -1.1968 O.3        1 <1>        0.000
      4 P2         -4.5533   -2.4599   -1.5820 P.3        1 <1>        0.000
      5 O2         -5.5232   -3.5127   -1.7414 O.2        1 <1>        0.000
      6 O3         -3.5358   -2.8016   -0.4307 O.3        1 <1>        0.000
      7 P3         -1.9966   -2.7803   -0.6634 P.3        1 <1>        0.000
      8 O4         -1.6476   -1.4858   -1.2140 O.2        1 <1>        0.000
      9 O5         -1.7399   -3.8891   -1.7643 O.3        1 <1>        0.000
     10 O9         -1.1814   -3.1917    0.5918 O.3        1 <1>        0.000
     11 O10        -3.6294   -2.2878   -2.8596 O.3        1 <1>        0.000
     12 O11        -6.2156    0.5252    0.5711 O.3        1 <1>        0.000
     13 O12        -5.0158   -1.4884    1.1702 O.2        1 <1>        0.000
     14 H          -1.9685   -4.7509   -1.4083 H.spc      1 <1>        0.000
     15 H          -1.4723   -4.0560    0.8918 H.spc      1 <1>        0.000
     16 H          -3.0020   -1.5775   -2.7061 H.spc      1 <1>        0.000
     17 H          -5.3783    0.9922    0.5218 H.spc      1 <1>        0.000
@<TRIPOS>BOND
     1    7    9 1  
     2    7    8 2  
     3    7   10 1  
     4    2    3 1  
     5    1    2 2  
     6    2   12 1  
     7    2   13 2  
     8    3    4 1  
     9    4    5 2  
    10    4    6 1  
    11    4   11 1  
    12    6    7 1  
    13    9   14 1  
    14   10   15 1  
    15   11   16 1  
    16   12   17 1  
# Name:          frag3-270-2/31924
# Creation time: Sat Jun  5 12:52:42 2010


@<TRIPOS>MOLECULE
frag3-270-2/31924
   17    16     1     1     1
SMALL
USER_CHARGES


@<TRIPOS>ATOM
      1 S1         -7.2270   -0.1551    1.5538 S.2        1 <1>        0.000
      2 P1         -6.3921   -0.9725    0.0563 P.3        1 <1>        0.000
      3 O1         -5.1805   -1.9225    0.3699 O.3        1 <1>        0.000
      4 P2         -4.2727   -2.4851   -0.7246 P.3        1 <1>        0.000
      5 O2         -4.1609   -3.9400   -0.6784 O.2        1 <1>        0.000
      6 O3         -2.8197   -1.9171   -0.6838 O.3        1 <1>        0.000
      7 P3         -1.6091   -2.7978   -1.1134 P.3        1 <1>        0.000
      8 O4         -0.4188   -2.0465   -1.4334 O.2        1 <1>        0.000
      9 O5         -2.1189   -3.5979   -2.3806 O.3        1 <1>        0.000
     10 O9         -1.3891   -3.8630    0.0448 O.3        1 <1>        0.000
     11 O10        -4.9141   -2.0293   -2.1234 O.3        1 <1>        0.000
     12 O11        -7.4802   -1.8676   -0.7377 O.3        1 <1>        0.000
     13 O12        -5.8560    0.0333   -0.8798 O.2        1 <1>        0.000
     14 H          -2.9097   -4.0908   -2.1496 H.spc      1 <1>        0.000
     15 H          -2.2124   -4.3280    0.2109 H.spc      1 <1>        0.000
     16 H          -4.9839   -1.0721   -2.1453 H.spc      1 <1>        0.000
     17 H          -7.0606   -2.2819   -1.4952 H.spc      1 <1>        0.000
@<TRIPOS>BOND
     1    7    9 1  
     2    7    8 2  
     3    7   10 1  
     4    2    3 1  
     5    1    2 2  
     6    2   12 1  
     7    2   13 2  
     8    3    4 1  
     9    4    5 2  
    10    4    6 1  
    11    4   11 1  
    12    6    7 1  
    13    9   14 1  
    14   10   15 1  
    15   11   16 1  
    16   12   17 1  
# Name:          frag3-270-2/31924
# Creation time: Sat Jun  5 12:52:42 2010


@<TRIPOS>MOLECULE
frag3-270-2/31924
   17    16     1     1     1
SMALL
USER_CHARGES


@<TRIPOS>ATOM
      1 S1         -6.0538   -0.1849    1.9097 S.2        1 <1>        0.000
      2 P1         -5.9464   -0.9302    0.1791 P.3        1 <1>        0.000
      3 O1         -4.6280   -1.6607   -0.2256 O.3        1 <1>        0.000
      4 P2         -4.5114   -2.7403   -1.3332 P.3        1 <1>        0.000
      5 O2         -5.7376   -3.5034   -1.3228 O.2        1 <1>        0.000
      6 O3         -3.2445   -3.5781   -1.0994 O.3        1 <1>        0.000
      7 P3         -1.8728   -2.8913   -0.8313 P.3        1 <1>        0.000
      8 O4         -2.0933   -1.4630   -0.9918 O.2        1 <1>        0.000
      9 O5         -0.8331   -3.3811   -1.8807 O.3        1 <1>        0.000
     10 O9         -1.3225   -3.2664    0.5840 O.3        1 <1>        0.000
     11 O10        -4.2966   -2.0066   -2.7277 O.3        1 <1>        0.000
     12 O11        -7.1129   -2.0232   -0.1184 O.3        1 <1>        0.000
     13 O12        -6.1862    0.0682   -0.8722 O.2        1 <1>        0.000
     14 H          -0.6901   -4.3241   -1.7718 H.spc      1 <1>        0.000
     15 H          -1.1957   -4.2166    0.6353 H.spc      1 <1>        0.000
     16 H          -3.4758   -1.5093   -2.7033 H.spc      1 <1>        0.000
     17 H          -7.0085   -2.3666   -1.0088 H.spc      1 <1>        0.000
@<TRIPOS>BOND
     1    7    9 1  
     2    7    8 2  
     3    7   10 1  
     4    2    3 1  
     5    1    2 2  
     6    2   12 1  
     7    2   13 2  
     8    3    4 1  
     9    4    5 2  
    10    4    6 1  
    11    4   11 1  
    12    6    7 1  
    13    9   14 1  
    14   10   15 1  
    15   11   16 1  
    16   12   17 1  
# Name:          frag3-270-2/31924
# Creation time: Sat Jun  5 12:52:42 2010


@<TRIPOS>MOLECULE
frag3-270-2/31924
   17    16     1     1     1
SMALL
USER_CHARGES


@<TRIPOS>ATOM
      1 S1         -6.1567   -1.4013    1.6421 S.2        1 <1>        0.000
      2 P1         -5.9976   -0.8175   -0.1892 P.3        1 <1>        0.000
      3 O1         -4.6845   -1.3613   -0.8553 O.3        1 <1>        0.000
      4 P2         -4.4876   -2.8995   -1.1355 P.3        1 <1>        0.000
      5 O2         -5.7136   -3.5550   -0.7168 O.2        1 <1>        0.000
      6 O3         -3.2261   -3.3789   -0.3887 O.3        1 <1>        0.000
      7 P3         -1.8522   -2.6834   -0.6250 P.3        1 <1>        0.000
      8 O4         -1.9836   -1.2742   -0.3184 O.2        1 <1>        0.000
      9 O5         -1.5691   -2.8384   -2.1830 O.3        1 <1>        0.000
     10 O9         -0.6862   -3.3952    0.1194 O.3        1 <1>        0.000
     11 O10        -4.2328   -3.0763   -2.6919 O.3        1 <1>        0.000
     12 O11        -7.1641   -1.5060   -1.0833 O.3        1 <1>        0.000
     13 O12        -6.0850    0.6260   -0.3047 O.2        1 <1>        0.000
     14 H          -1.4798   -3.7693   -2.3998 H.spc      1 <1>        0.000
     15 H          -0.6638   -4.3208   -0.1343 H.spc      1 <1>        0.000
     16 H          -3.4168   -2.6322   -2.9339 H.spc      1 <1>        0.000
     17 H          -7.0823   -1.2136   -1.9940 H.spc      1 <1>        0.000
@<TRIPOS>BOND
     1    7    9 1  
     2    7    8 2  
     3    7   10 1  
     4    2    3 1  
     5    1    2 2  
     6    2   12 1  
     7    2   13 2  
     8    3    4 1  
     9    4    5 2  
    10    4    6 1  
    11    4   11 1  
    12    6    7 1  
    13    9   14 1  
    14   10   15 1  
    15   11   16 1  
    16   12   17 1  
# Name:          frag3-270-2/31924
# Creation time: Sat Jun  5 12:52:42 2010


@<TRIPOS>MOLECULE
frag3-270-2/31924
   17    16     1     1     1
SMALL
USER_CHARGES


@<TRIPOS>ATOM
      1 S1         -6.5134   -1.4941    1.6799 S.2        1 <1>        0.000
      2 P1         -6.2895   -0.8453   -0.1257 P.3        1 <1>        0.000
      3 O1         -4.8415   -1.1166   -0.6576 O.3        1 <1>        0.000
      4 P2         -4.3604   -2.5696   -0.9619 P.3        1 <1>        0.000
      5 O2         -5.4831   -3.4609   -0.7058 O.2        1 <1>        0.000
      6 O3         -3.0990   -2.9338   -0.1547 O.3        1 <1>        0.000
      7 P3         -1.6850   -2.8113   -0.7877 P.3        1 <1>        0.000
      8 O4         -1.5490   -1.4759   -1.3444 O.2        1 <1>        0.000
      9 O5         -1.6731   -3.8583   -1.9818 O.3        1 <1>        0.000
     10 O9         -0.5241   -3.2255    0.1577 O.3        1 <1>        0.000
     11 O10        -3.9526   -2.6205   -2.5044 O.3        1 <1>        0.000
     12 O11        -7.2383   -1.7129   -1.1112 O.3        1 <1>        0.000
     13 O12        -6.6301    0.5639   -0.2328 O.2        1 <1>        0.000
     14 H          -1.7623   -4.7463   -1.6282 H.spc      1 <1>        0.000
     15 H          -0.6813   -4.1141    0.4853 H.spc      1 <1>        0.000
     16 H          -3.2123   -2.0289   -2.6582 H.spc      1 <1>        0.000
     17 H          -7.1346   -1.3983   -2.0122 H.spc      1 <1>        0.000
@<TRIPOS>BOND
     1    7    9 1  
     2    7    8 2  
     3    7   10 1  
     4    2    3 1  
     5    1    2 2  
     6    2   12 1  
     7    2   13 2  
     8    3    4 1  
     9    4    5 2  
    10    4    6 1  
    11    4   11 1  
    12    6    7 1  
    13    9   14 1  
    14   10   15 1  
    15   11   16 1  
    16   12   17 1  
# Name:          frag3-270-2/31924
# Creation time: Sat Jun  5 12:52:42 2010


@<TRIPOS>MOLECULE
frag3-270-2/31924
   17    16     1     1     1
SMALL
USER_CHARGES


@<TRIPOS>ATOM
      1 S1         -6.2838   -1.6780    1.7509 S.2        1 <1>        0.000
      2 P1         -6.4068   -1.0295   -0.0473 P.3        1 <1>        0.000
      3 O1         -5.0075   -0.9135   -0.7454 O.3        1 <1>        0.000
      4 P2         -4.2310   -2.1726   -1.1869 P.3        1 <1>        0.000
      5 O2         -4.1674   -3.1122   -0.0436 O.2        1 <1>        0.000
      6 O3         -2.7606   -1.9269   -1.6085 O.3        1 <1>        0.000
      7 P3         -1.6023   -2.7783   -1.0215 P.3        1 <1>        0.000
      8 O4         -0.2956   -2.4398   -1.5457 O.2        1 <1>        0.000
      9 O5         -1.9662   -4.2776   -1.3509 O.3        1 <1>        0.000
     10 O9         -1.6924   -2.6336    0.5617 O.3        1 <1>        0.000
     11 O10        -5.0233   -2.8430   -2.3890 O.3        1 <1>        0.000
     12 O11        -7.2976   -2.0043   -0.9928 O.3        1 <1>        0.000
     13 O12        -7.1045    0.2484   -0.1114 O.2        1 <1>        0.000
     14 H          -2.8344   -4.4806   -0.9952 H.spc      1 <1>        0.000
     15 H          -2.5760   -2.8693    0.8537 H.spc      1 <1>        0.000
     16 H          -5.0615   -2.2301   -3.1269 H.spc      1 <1>        0.000
     17 H          -7.3322   -1.6422   -1.8812 H.spc      1 <1>        0.000
@<TRIPOS>BOND
     1    7    9 1  
     2    7    8 2  
     3    7   10 1  
     4    2    3 1  
     5    1    2 2  
     6    2   12 1  
     7    2   13 2  
     8    3    4 1  
     9    4    5 2  
    10    4    6 1  
    11    4   11 1  
    12    6    7 1  
    13    9   14 1  
    14   10   15 1  
    15   11   16 1  
    16   12   17 1  
# Name:          frag3-270-2/31924
# Creation time: Sat Jun  5 12:52:42 2010


@<TRIPOS>MOLECULE
frag3-270-2/31924
   17    16     1     1     1
SMALL
USER_CHARGES


@<TRIPOS>ATOM
      1 S1         -5.5465   -1.1914    1.7166 S.2        1 <1>        0.000
      2 P1         -6.3655   -1.1185   -0.0215 P.3        1 <1>        0.000
      3 O1         -5.2975   -0.9671   -1.1635 O.3        1 <1>        0.000
      4 P2         -4.2720   -2.0844   -1.4400 P.3        1 <1>        0.000
      5 O2         -4.5512   -3.1811   -0.4792 O.2        1 <1>        0.000
      6 O3         -2.7872   -1.6868   -1.1856 O.3        1 <1>        0.000
      7 P3         -1.7146   -2.7402   -0.7880 P.3        1 <1>        0.000
      8 O4         -0.3761   -2.4048   -1.2351 O.2        1 <1>        0.000
      9 O5         -2.1966   -4.0820   -1.4799 O.3        1 <1>        0.000
     10 O9         -1.8217   -2.9695    0.7712 O.3        1 <1>        0.000
     11 O10        -4.3855   -2.6282   -2.9175 O.3        1 <1>        0.000
     12 O11        -7.1815   -2.4643   -0.3984 O.3        1 <1>        0.000
     13 O12        -7.3431   -0.0426   -0.1096 O.2        1 <1>        0.000
     14 H          -3.0825   -4.2959   -1.1783 H.spc      1 <1>        0.000
     15 H          -2.7283   -3.1868    1.0000 H.spc      1 <1>        0.000
     16 H          -4.2041   -1.9154   -3.5344 H.spc      1 <1>        0.000
     17 H          -7.5663   -2.3696   -1.2728 H.spc      1 <1>        0.000
@<TRIPOS>BOND
     1    7    9 1  
     2    7    8 2  
     3    7   10 1  
     4    2    3 1  
     5    1    2 2  
     6    2   12 1  
     7    2   13 2  
     8    3    4 1  
     9    4    5 2  
    10    4    6 1  
    11    4   11 1  
    12    6    7 1  
    13    9   14 1  
    14   10   15 1  
    15   11   16 1  
    16   12   17 1  
# Name:          frag3-270-2/31924
# Creation time: Sat Jun  5 12:52:42 2010


@<TRIPOS>MOLECULE
frag3-270-2/31924
   17    16     1     1     1
SMALL
USER_CHARGES


@<TRIPOS>ATOM
      1 S1         -4.7664   -2.0166    1.7102 S.2        1 <1>        0.000
      2 P1         -5.6779   -1.1956    0.2248 P.3        1 <1>        0.000
      3 O1         -4.8664   -1.2528   -1.1139 O.3        1 <1>        0.000
      4 P2         -4.5986   -2.6064   -1.8566 P.3        1 <1>        0.000
      5 O2         -5.8484   -3.3322   -1.8820 O.2        1 <1>        0.000
      6 O3         -3.5047   -3.3180   -0.9987 O.3        1 <1>        0.000
      7 P3         -2.1718   -2.5968   -0.6185 P.3        1 <1>        0.000
      8 O4         -1.7447   -1.8781   -1.8038 O.2        1 <1>        0.000
      9 O5         -1.0953   -3.5810   -0.1258 O.3        1 <1>        0.000
     10 O9         -2.4520   -1.6028    0.5724 O.3        1 <1>        0.000
     11 O10        -3.9615   -2.4118   -3.2687 O.3        1 <1>        0.000
     12 O11        -7.0741   -1.9347   -0.1009 O.3        1 <1>        0.000
     13 O12        -6.0774    0.1659    0.5311 O.2        1 <1>        0.000
     14 H          -1.4137   -4.0360    0.6573 H.spc      1 <1>        0.000
     15 H          -2.7326   -2.1005    1.3439 H.spc      1 <1>        0.000
     16 H          -3.1384   -1.9253   -3.1829 H.spc      1 <1>        0.000
     17 H          -7.4991   -1.5002   -0.8440 H.spc      1 <1>        0.000
@<TRIPOS>BOND
     1    7    9 1  
     2    7    8 2  
     3    7   10 1  
     4    2    3 1  
     5    1    2 2  
     6    2   12 1  
     7    2   13 2  
     8    3    4 1  
     9    4    5 2  
    10    4    6 1  
    11    4   11 1  
    12    6    7 1  
    13    9   14 1  
    14   10   15 1  
    15   11   16 1  
    16   12   17 1  
# Name:          frag3-270-2/31924
# Creation time: Sat Jun  5 12:52:42 2010


@<TRIPOS>MOLECULE
frag3-270-2/31924
   17    16     1     1     1
SMALL
USER_CHARGES


@<TRIPOS>ATOM
      1 S1         -7.2031   -0.3101    1.6570 S.2        1 <1>        0.000
      2 P1         -6.4532   -0.9611    0.0541 P.3        1 <1>        0.000
      3 O1         -4.8831   -1.0655   -0.0015 O.3        1 <1>        0.000
      4 P2         -4.1186   -2.0924   -0.8497 P.3        1 <1>        0.000
      5 O2         -4.2127   -3.4174   -0.2108 O.2        1 <1>        0.000
      6 O3         -2.6198   -1.8013   -1.0730 O.3        1 <1>        0.000
      7 P3         -1.5907   -2.9630   -1.1487 P.3        1 <1>        0.000
      8 O4         -0.2546   -2.5421   -1.5068 O.2        1 <1>        0.000
      9 O5         -2.1625   -3.9856   -2.2049 O.3        1 <1>        0.000
     10 O9         -1.6437   -3.6855    0.2729 O.3        1 <1>        0.000
     11 O10        -4.8960   -2.1320   -2.2520 O.3        1 <1>        0.000
     12 O11        -6.9595   -2.4545   -0.3506 O.3        1 <1>        0.000
     13 O12        -6.8417   -0.1504   -1.1165 O.2        1 <1>        0.000
     14 H          -3.0484   -4.2496   -1.9459 H.spc      1 <1>        0.000
     15 H          -2.5477   -3.9452    0.4651 H.spc      1 <1>        0.000
     16 H          -4.8382   -1.2712   -2.6731 H.spc      1 <1>        0.000
     17 H          -6.5404   -2.7216   -1.1720 H.spc      1 <1>        0.000
@<TRIPOS>BOND
     1    7    9 1  
     2    7    8 2  
     3    7   10 1  
     4    2    3 1  
     5    1    2 2  
     6    2   12 1  
     7    2   13 2  
     8    3    4 1  
     9    4    5 2  
    10    4    6 1  
    11    4   11 1  
    12    6    7 1  
    13    9   14 1  
    14   10   15 1  
    15   11   16 1  
    16   12   17 1  
# Name:          frag3-270-2/31924
# Creation time: Sat Jun  5 12:52:42 2010


@<TRIPOS>MOLECULE
frag3-270-2/31924
   17    16     1     1     1
SMALL
USER_CHARGES


@<TRIPOS>ATOM
      1 S1         -7.3369   -0.1666   -0.4435 S.2        1 <1>        0.000
      2 P1         -5.8952   -1.1004    0.3842 P.3        1 <1>        0.000
      3 O1         -4.5849   -1.1001   -0.4939 O.3        1 <1>        0.000
      4 P2         -4.4426   -2.1172   -1.6746 P.3        1 <1>        0.000
      5 O2         -5.7463   -2.5037   -2.1160 O.2        1 <1>        0.000
      6 O3         -3.6134   -3.3172   -1.0931 O.3        1 <1>        0.000
      7 P3         -2.0903   -3.1427   -0.7628 P.3        1 <1>        0.000
      8 O4         -1.8058   -1.7246   -0.9086 O.2        1 <1>        0.000
      9 O5         -1.2623   -3.9495   -1.8088 O.3        1 <1>        0.000
     10 O9         -1.7553   -3.6925    0.6614 O.3        1 <1>        0.000
     11 O10        -3.5424   -1.5521   -2.8522 O.3        1 <1>        0.000
     12 O11        -5.5523   -0.6450    1.8713 O.3        1 <1>        0.000
     13 O12        -6.2115   -2.5494    0.5061 O.2        1 <1>        0.000
     14 H          -1.4511   -4.8857   -1.7114 H.spc      1 <1>        0.000
     15 H          -1.9625   -4.6291    0.6985 H.spc      1 <1>        0.000
     16 H          -2.6810   -1.3077   -2.5060 H.spc      1 <1>        0.000
     17 H          -4.8184   -1.1672    2.2035 H.spc      1 <1>        0.000
@<TRIPOS>BOND
     1    7    9 1  
     2    7    8 2  
     3    7   10 1  
     4    2    3 1  
     5    1    2 2  
     6    2   12 1  
     7    2   13 2  
     8    3    4 1  
     9    4    5 2  
    10    4    6 1  
    11    4   11 1  
    12    6    7 1  
    13    9   14 1  
    14   10   15 1  
    15   11   16 1  
    16   12   17 1  
# Name:          frag3-270-2/31924
# Creation time: Sat Jun  5 12:52:42 2010


@<TRIPOS>MOLECULE
frag3-270-2/31924
   17    16     1     1     1
SMALL
USER_CHARGES


@<TRIPOS>ATOM
      1 S1         -4.8066   -0.0689    1.1620 S.2        1 <1>        0.000
      2 P1         -6.0395   -1.1183    0.1374 P.3        1 <1>        0.000
      3 O1         -5.6113   -1.2707   -1.3653 O.3        1 <1>        0.000
      4 P2         -4.4972   -2.2434   -1.7944 P.3        1 <1>        0.000
      5 O2         -5.0258   -3.4438   -2.4055 O.2        1 <1>        0.000
      6 O3         -3.6958   -2.6561   -0.4905 O.3        1 <1>        0.000
      7 P3         -2.1521   -2.8862   -0.5120 P.3        1 <1>        0.000
      8 O4         -1.5444   -1.6996   -1.0892 O.2        1 <1>        0.000
      9 O5         -1.9301   -4.1147   -1.4691 O.3        1 <1>        0.000
     10 O9         -1.5915   -3.2621    0.8903 O.3        1 <1>        0.000
     11 O10        -3.3942   -1.5402   -2.6815 O.3        1 <1>        0.000
     12 O11        -6.1541   -2.6536    0.6667 O.3        1 <1>        0.000
     13 O12        -7.3964   -0.6033    0.2209 O.2        1 <1>        0.000
     14 H          -2.3332   -4.8961   -1.0837 H.spc      1 <1>        0.000
     15 H          -2.0351   -4.0511    1.2100 H.spc      1 <1>        0.000
     16 H          -3.0781   -0.7528   -2.2325 H.spc      1 <1>        0.000
     17 H          -6.7819   -3.1330    0.1211 H.spc      1 <1>        0.000
@<TRIPOS>BOND
     1    7    9 1  
     2    7    8 2  
     3    7   10 1  
     4    2    3 1  
     5    1    2 2  
     6    2   12 1  
     7    2   13 2  
     8    3    4 1  
     9    4    5 2  
    10    4    6 1  
    11    4   11 1  
    12    6    7 1  
    13    9   14 1  
    14   10   15 1  
    15   11   16 1  
    16   12   17 1  
# Name:          frag3-270-2/31924
# Creation time: Sat Jun  5 12:52:42 2010


@<TRIPOS>MOLECULE
frag3-270-2/31924
   17    16     1     1     1
SMALL
USER_CHARGES


@<TRIPOS>ATOM
      1 S1         -6.8753   -0.6477    1.7206 S.2        1 <1>        0.000
      2 P1         -5.9652   -0.9377    0.0867 P.3        1 <1>        0.000
      3 O1         -5.8933   -2.4353   -0.4154 O.3        1 <1>        0.000
      4 P2         -4.6968   -3.0097   -1.1787 P.3        1 <1>        0.000
      5 O2         -4.9315   -4.2639   -1.8704 O.2        1 <1>        0.000
      6 O3         -3.4440   -3.1207   -0.2498 O.3        1 <1>        0.000
      7 P3         -2.0115   -2.7113   -0.7390 P.3        1 <1>        0.000
      8 O4         -1.9880   -1.2779   -0.9839 O.2        1 <1>        0.000
      9 O5         -1.8314   -3.4723   -2.1194 O.3        1 <1>        0.000
     10 O9         -0.8873   -3.2153    0.2164 O.3        1 <1>        0.000
     11 O10        -4.2680   -1.8531   -2.2381 O.3        1 <1>        0.000
     12 O11        -6.5096   -0.0723   -1.1549 O.3        1 <1>        0.000
     13 O12        -4.5372   -0.5438    0.1954 O.2        1 <1>        0.000
     14 H          -1.8459   -4.4198   -1.9655 H.spc      1 <1>        0.000
     15 H          -0.9670   -4.1653    0.3294 H.spc      1 <1>        0.000
     16 H          -4.1161   -1.0302   -1.7676 H.spc      1 <1>        0.000
     17 H          -5.9951   -0.2800   -1.9383 H.spc      1 <1>        0.000
@<TRIPOS>BOND
     1    7    9 1  
     2    7    8 2  
     3    7   10 1  
     4    2    3 1  
     5    1    2 2  
     6    2   12 1  
     7    2   13 2  
     8    3    4 1  
     9    4    5 2  
    10    4    6 1  
    11    4   11 1  
    12    6    7 1  
    13    9   14 1  
    14   10   15 1  
    15   11   16 1  
    16   12   17 1  
# Name:          frag3-270-2/31924
# Creation time: Sat Jun  5 12:52:42 2010


@<TRIPOS>MOLECULE
frag3-270-2/31924
   17    16     1     1     1
SMALL
USER_CHARGES


@<TRIPOS>ATOM
      1 S1         -6.5174   -0.4301    1.9983 S.2        1 <1>        0.000
      2 P1         -6.1750   -1.1075    0.2800 P.3        1 <1>        0.000
      3 O1         -4.9229   -2.0541    0.0944 O.3        1 <1>        0.000
      4 P2         -4.3809   -2.4981   -1.2923 P.3        1 <1>        0.000
      5 O2         -4.2767   -3.9496   -1.3638 O.2        1 <1>        0.000
      6 O3         -2.9623   -1.9094   -1.5134 O.3        1 <1>        0.000
      7 P3         -1.7095   -2.6715   -1.0301 P.3        1 <1>        0.000
      8 O4         -0.4493   -2.1063   -1.4475 O.2        1 <1>        0.000
      9 O5         -1.8556   -4.1483   -1.5784 O.3        1 <1>        0.000
     10 O9         -1.8236   -2.8306    0.5552 O.3        1 <1>        0.000
     11 O10        -5.4317   -1.9306   -2.3322 O.3        1 <1>        0.000
     12 O11        -7.4088   -1.9075   -0.3953 O.3        1 <1>        0.000
     13 O12        -5.9255   -0.0175   -0.7054 O.2        1 <1>        0.000
     14 H          -2.6972   -4.5123   -1.2940 H.spc      1 <1>        0.000
     15 H          -2.6774   -3.2093    0.7770 H.spc      1 <1>        0.000
     16 H          -5.4721   -0.9745   -2.2552 H.spc      1 <1>        0.000
     17 H          -7.1495   -2.2173   -1.2661 H.spc      1 <1>        0.000
@<TRIPOS>BOND
     1    7    9 1  
     2    7    8 2  
     3    7   10 1  
     4    2    3 1  
     5    1    2 2  
     6    2   12 1  
     7    2   13 2  
     8    3    4 1  
     9    4    5 2  
    10    4    6 1  
    11    4   11 1  
    12    6    7 1  
    13    9   14 1  
    14   10   15 1  
    15   11   16 1  
    16   12   17 1  
# Name:          frag3-270-2/31924
# Creation time: Sat Jun  5 12:52:42 2010


@<TRIPOS>MOLECULE
frag3-270-2/31924
   17    16     1     1     1
SMALL
USER_CHARGES


@<TRIPOS>ATOM
      1 S1         -5.4569   -0.9455    1.7946 S.2        1 <1>        0.000
      2 P1         -6.2863   -1.1413    0.0774 P.3        1 <1>        0.000
      3 O1         -5.3091   -0.8524   -1.1090 O.3        1 <1>        0.000
      4 P2         -4.2432   -1.8748   -1.5377 P.3        1 <1>        0.000
      5 O2         -4.8443   -3.2070   -1.4281 O.2        1 <1>        0.000
      6 O3         -3.0057   -1.8897   -0.5799 O.3        1 <1>        0.000
      7 P3         -1.8947   -2.9883   -0.6906 P.3        1 <1>        0.000
      8 O4         -1.4957   -3.0472   -2.0816 O.2        1 <1>        0.000
      9 O5         -2.5917   -4.3302   -0.2721 O.3        1 <1>        0.000
     10 O9         -0.7180   -2.7009    0.2873 O.3        1 <1>        0.000
     11 O10        -3.6762   -1.6210   -2.9764 O.3        1 <1>        0.000
     12 O11        -6.8398   -2.6441   -0.1684 O.3        1 <1>        0.000
     13 O12        -7.4774   -0.3185   -0.0460 O.2        1 <1>        0.000
     14 H          -2.8517   -4.2802    0.6507 H.spc      1 <1>        0.000
     15 H          -1.0505   -2.6753    1.1875 H.spc      1 <1>        0.000
     16 H          -3.2902   -0.7429   -3.0167 H.spc      1 <1>        0.000
     17 H          -7.2455   -2.6964   -1.0369 H.spc      1 <1>        0.000
@<TRIPOS>BOND
     1    7    9 1  
     2    7    8 2  
     3    7   10 1  
     4    2    3 1  
     5    1    2 2  
     6    2   12 1  
     7    2   13 2  
     8    3    4 1  
     9    4    5 2  
    10    4    6 1  
    11    4   11 1  
    12    6    7 1  
    13    9   14 1  
    14   10   15 1  
    15   11   16 1  
    16   12   17 1  
# Name:          frag3-270-2/31924
# Creation time: Sat Jun  5 12:52:42 2010


@<TRIPOS>MOLECULE
frag3-270-2/31924
   17    16     1     1     1
SMALL
USER_CHARGES


@<TRIPOS>ATOM
      1 S1         -5.2910   -1.6774    1.7937 S.2        1 <1>        0.000
      2 P1         -5.9618   -1.1050    0.0815 P.3        1 <1>        0.000
      3 O1         -5.9945   -2.2955   -0.9608 O.3        1 <1>        0.000
      4 P2         -4.6886   -2.9080   -1.4935 P.3        1 <1>        0.000
      5 O2         -4.7952   -4.2399   -2.0609 O.2        1 <1>        0.000
      6 O3         -3.6115   -2.9156   -0.3456 O.3        1 <1>        0.000
      7 P3         -2.1145   -2.5369   -0.5916 P.3        1 <1>        0.000
      8 O4         -2.0456   -1.1372   -0.9758 O.2        1 <1>        0.000
      9 O5         -1.6960   -3.4339   -1.8280 O.3        1 <1>        0.000
     10 O9         -1.1869   -2.9261    0.5943 O.3        1 <1>        0.000
     11 O10        -4.0618   -1.8721   -2.5494 O.3        1 <1>        0.000
     12 O11        -7.3652   -0.3806    0.1301 O.3        1 <1>        0.000
     13 O12        -5.0265   -0.1329   -0.5245 O.2        1 <1>        0.000
     14 H          -1.7398   -4.3601   -1.5794 H.spc      1 <1>        0.000
     15 H          -1.2898   -3.8611    0.7861 H.spc      1 <1>        0.000
     16 H          -4.0038   -1.0025   -2.1470 H.spc      1 <1>        0.000
     17 H          -7.6253   -0.1293   -0.7592 H.spc      1 <1>        0.000
@<TRIPOS>BOND
     1    7    9 1  
     2    7    8 2  
     3    7   10 1  
     4    2    3 1  
     5    1    2 2  
     6    2   12 1  
     7    2   13 2  
     8    3    4 1  
     9    4    5 2  
    10    4    6 1  
    11    4   11 1  
    12    6    7 1  
    13    9   14 1  
    14   10   15 1  
    15   11   16 1  
    16   12   17 1  
# Name:          frag3-270-2/31924
# Creation time: Sat Jun  5 12:52:42 2010


@<TRIPOS>MOLECULE
frag3-270-2/31924
   17    16     1     1     1
SMALL
USER_CHARGES


@<TRIPOS>ATOM
      1 S1         -7.2250    0.3573    0.9745 S.2        1 <1>        0.000
      2 P1         -6.2782   -1.0990    0.1908 P.3        1 <1>        0.000
      3 O1         -4.8970   -0.7426   -0.4649 O.3        1 <1>        0.000
      4 P2         -4.1009   -1.7403   -1.3138 P.3        1 <1>        0.000
      5 O2         -4.6239   -3.0913   -0.9824 O.2        1 <1>        0.000
      6 O3         -2.5817   -1.7977   -0.9731 O.3        1 <1>        0.000
      7 P3         -1.8110   -3.1518   -0.9408 P.3        1 <1>        0.000
      8 O4         -0.3763   -3.0121   -1.0696 O.2        1 <1>        0.000
      9 O5         -2.3950   -3.9916   -2.1477 O.3        1 <1>        0.000
     10 O9         -2.2480   -3.9007    0.3915 O.3        1 <1>        0.000
     11 O10        -4.2679   -1.4536   -2.8559 O.3        1 <1>        0.000
     12 O11        -5.9718   -2.2041    1.3353 O.3        1 <1>        0.000
     13 O12        -7.0623   -1.7335   -0.8743 O.2        1 <1>        0.000
     14 H          -3.3461   -4.0750   -2.0475 H.spc      1 <1>        0.000
     15 H          -3.2054   -3.9639    0.4224 H.spc      1 <1>        0.000
     16 H          -3.9267   -0.5790   -3.0564 H.spc      1 <1>        0.000
     17 H          -5.4946   -2.9412    0.9472 H.spc      1 <1>        0.000
@<TRIPOS>BOND
     1    7    9 1  
     2    7    8 2  
     3    7   10 1  
     4    2    3 1  
     5    1    2 2  
     6    2   12 1  
     7    2   13 2  
     8    3    4 1  
     9    4    5 2  
    10    4    6 1  
    11    4   11 1  
    12    6    7 1  
    13    9   14 1  
    14   10   15 1  
    15   11   16 1  
    16   12   17 1  
# Name:          frag3-270-2/31924
# Creation time: Sat Jun  5 12:52:42 2010


@<TRIPOS>MOLECULE
frag3-270-2/31924
   17    16     1     1     1
SMALL
USER_CHARGES


@<TRIPOS>ATOM
      1 S1         -5.3185    0.3649    1.3128 S.2        1 <1>        0.000
      2 P1         -5.9425   -1.0145    0.1684 P.3        1 <1>        0.000
      3 O1         -5.0193   -2.2787    0.0190 O.3        1 <1>        0.000
      4 P2         -4.5624   -2.8729   -1.3399 P.3        1 <1>        0.000
      5 O2         -5.6510   -3.6379   -1.9170 O.2        1 <1>        0.000
      6 O3         -3.2347   -3.6250   -1.1849 O.3        1 <1>        0.000
      7 P3         -1.9262   -2.8802   -0.7683 P.3        1 <1>        0.000
      8 O4         -2.3407   -1.5799   -0.2568 O.2        1 <1>        0.000
      9 O5         -1.0378   -2.6850   -2.0358 O.3        1 <1>        0.000
     10 O9         -1.1391   -3.7238    0.2854 O.3        1 <1>        0.000
     11 O10        -4.1985   -1.5954   -2.2529 O.3        1 <1>        0.000
     12 O11        -7.4308   -1.5156    0.4644 O.3        1 <1>        0.000
     13 O12        -6.0376   -0.5168   -1.2248 O.2        1 <1>        0.000
     14 H          -0.7665   -3.5430   -2.3702 H.spc      1 <1>        0.000
     15 H          -0.8912   -4.5666   -0.1017 H.spc      1 <1>        0.000
     16 H          -3.4768   -1.1091   -1.8477 H.spc      1 <1>        0.000
     17 H          -7.6632   -2.2094   -0.1571 H.spc      1 <1>        0.000
@<TRIPOS>BOND
     1    7    9 1  
     2    7    8 2  
     3    7   10 1  
     4    2    3 1  
     5    1    2 2  
     6    2   12 1  
     7    2   13 2  
     8    3    4 1  
     9    4    5 2  
    10    4    6 1  
    11    4   11 1  
    12    6    7 1  
    13    9   14 1  
    14   10   15 1  
    15   11   16 1  
    16   12   17 1  
# Name:          frag3-270-2/31924
# Creation time: Sat Jun  5 12:52:42 2010


@<TRIPOS>MOLECULE
frag3-270-2/31924
   17    16     1     1     1
SMALL
USER_CHARGES


@<TRIPOS>ATOM
      1 S1         -7.2937   -0.5294   -0.7302 S.2        1 <1>        0.000
      2 P1         -5.5775   -0.8215    0.0940 P.3        1 <1>        0.000
      3 O1         -5.1110   -2.3202   -0.0533 O.3        1 <1>        0.000
      4 P2         -4.7224   -2.9075   -1.4567 P.3        1 <1>        0.000
      5 O2         -4.7188   -4.3543   -1.4914 O.2        1 <1>        0.000
      6 O3         -3.2529   -2.4050   -1.6904 O.3        1 <1>        0.000
      7 P3         -2.1248   -2.7533   -0.6617 P.3        1 <1>        0.000
      8 O4         -2.1876   -1.8421    0.4597 O.2        1 <1>        0.000
      9 O5         -0.7347   -2.7623   -1.3358 O.3        1 <1>        0.000
     10 O9         -2.4390   -4.2582   -0.2130 O.3        1 <1>        0.000
     11 O10        -5.6984   -2.2642   -2.5101 O.3        1 <1>        0.000
     12 O11        -4.4076    0.0568   -0.6206 O.3        1 <1>        0.000
     13 O12        -5.5708   -0.3998    1.4791 O.2        1 <1>        0.000
     14 H          -0.7410   -3.3790   -2.0715 H.spc      1 <1>        0.000
     15 H          -2.3894   -4.8360   -0.9780 H.spc      1 <1>        0.000
     16 H          -5.6577   -1.3076   -2.4399 H.spc      1 <1>        0.000
     17 H          -3.5694   -0.1140   -0.1848 H.spc      1 <1>        0.000
@<TRIPOS>BOND
     1    7    9 1  
     2    7    8 2  
     3    7   10 1  
     4    2    3 1  
     5    1    2 2  
     6    2   12 1  
     7    2   13 2  
     8    3    4 1  
     9    4    5 2  
    10    4    6 1  
    11    4   11 1  
    12    6    7 1  
    13    9   14 1  
    14   10   15 1  
    15   11   16 1  
    16   12   17 1  
# Name:          frag3-270-2/31924
# Creation time: Sat Jun  5 12:52:42 2010


@<TRIPOS>MOLECULE
frag3-270-2/31924
   17    16     1     1     1
SMALL
USER_CHARGES


@<TRIPOS>ATOM
      1 S1         -7.1533   -0.5127   -0.8269 S.2        1 <1>        0.000
      2 P1         -5.7077   -1.0573    0.3201 P.3        1 <1>        0.000
      3 O1         -5.1425   -2.4662   -0.1141 O.3        1 <1>        0.000
      4 P2         -4.6797   -2.7309   -1.5908 P.3        1 <1>        0.000
      5 O2         -5.7335   -3.3005   -2.3968 O.2        1 <1>        0.000
      6 O3         -3.3653   -3.5337   -1.5672 O.3        1 <1>        0.000
      7 P3         -2.1044   -2.9958   -0.8160 P.3        1 <1>        0.000
      8 O4         -1.9508   -1.5909   -1.1608 O.2        1 <1>        0.000
      9 O5         -0.8376   -3.8093   -1.1656 O.3        1 <1>        0.000
     10 O9         -2.3504   -3.1716    0.7498 O.3        1 <1>        0.000
     11 O10        -4.2460   -1.2759   -2.1532 O.3        1 <1>        0.000
     12 O11        -4.4517   -0.0370    0.2751 O.3        1 <1>        0.000
     13 O12        -6.1163   -1.0794    1.7160 O.2        1 <1>        0.000
     14 H          -0.9730   -4.7290   -0.9258 H.spc      1 <1>        0.000
     15 H          -2.4488   -4.1044    0.9544 H.spc      1 <1>        0.000
     16 H          -3.5458   -0.9172   -1.6031 H.spc      1 <1>        0.000
     17 H          -3.7619   -0.3543    0.8625 H.spc      1 <1>        0.000
@<TRIPOS>BOND
     1    7    9 1  
     2    7    8 2  
     3    7   10 1  
     4    2    3 1  
     5    1    2 2  
     6    2   12 1  
     7    2   13 2  
     8    3    4 1  
     9    4    5 2  
    10    4    6 1  
    11    4   11 1  
    12    6    7 1  
    13    9   14 1  
    14   10   15 1  
    15   11   16 1  
    16   12   17 1  
# Name:          frag3-270-2/31924
# Creation time: Sat Jun  5 12:52:42 2010


@<TRIPOS>MOLECULE
frag3-270-2/31924
   17    16     1     1     1
SMALL
USER_CHARGES


@<TRIPOS>ATOM
      1 S1         -6.5934    0.6652    1.0816 S.2        1 <1>        0.000
      2 P1         -6.3199   -0.9451    0.1067 P.3        1 <1>        0.000
      3 O1         -4.8510   -1.5136    0.1097 O.3        1 <1>        0.000
      4 P2         -4.3430   -2.4624   -0.9888 P.3        1 <1>        0.000
      5 O2         -5.4657   -3.1985   -1.5141 O.2        1 <1>        0.000
      6 O3         -3.2006   -3.3799   -0.5021 O.3        1 <1>        0.000
      7 P3         -1.7137   -3.1084   -0.9067 P.3        1 <1>        0.000
      8 O4         -1.4328   -1.7094   -0.6548 O.2        1 <1>        0.000
      9 O5         -1.6555   -3.3629   -2.4721 O.3        1 <1>        0.000
     10 O9         -0.7140   -4.0963   -0.2477 O.3        1 <1>        0.000
     11 O10        -3.6636   -1.5576   -2.1440 O.3        1 <1>        0.000
     12 O11        -7.2472   -2.1228    0.7139 O.3        1 <1>        0.000
     13 O12        -6.6388   -0.7694   -1.3120 O.2        1 <1>        0.000
     14 H          -1.8402   -4.2876   -2.6519 H.spc      1 <1>        0.000
     15 H          -0.9683   -4.9971   -0.4612 H.spc      1 <1>        0.000
     16 H          -2.9194   -1.0760   -1.7755 H.spc      1 <1>        0.000
     17 H          -7.1028   -2.9310    0.2163 H.spc      1 <1>        0.000
@<TRIPOS>BOND
     1    7    9 1  
     2    7    8 2  
     3    7   10 1  
     4    2    3 1  
     5    1    2 2  
     6    2   12 1  
     7    2   13 2  
     8    3    4 1  
     9    4    5 2  
    10    4    6 1  
    11    4   11 1  
    12    6    7 1  
    13    9   14 1  
    14   10   15 1  
    15   11   16 1  
    16   12   17 1  
# Name:          frag3-270-2/31924
# Creation time: Sat Jun  5 12:52:42 2010


@<TRIPOS>MOLECULE
frag3-270-2/31924
   17    16     1     1     1
SMALL
USER_CHARGES


@<TRIPOS>ATOM
      1 S1         -5.6963    0.0828    1.8249 S.2        1 <1>        0.000
      2 P1         -5.8181   -0.9852    0.2756 P.3        1 <1>        0.000
      3 O1         -4.4886   -1.4084   -0.4418 O.3        1 <1>        0.000
      4 P2         -4.3964   -2.3063   -1.7220 P.3        1 <1>        0.000
      5 O2         -5.1541   -3.5122   -1.4244 O.2        1 <1>        0.000
      6 O3         -2.9263   -2.6684   -1.9825 O.3        1 <1>        0.000
      7 P3         -1.9958   -3.1302   -0.8313 P.3        1 <1>        0.000
      8 O4         -2.4682   -4.3851   -0.3008 O.2        1 <1>        0.000
      9 O5         -2.1354   -2.0121    0.2938 O.3        1 <1>        0.000
     10 O9         -0.4871   -3.1244   -1.2266 O.3        1 <1>        0.000
     11 O10        -5.0486   -1.4592   -2.8701 O.3        1 <1>        0.000
     12 O11        -6.6499   -2.3546    0.4719 O.3        1 <1>        0.000
     13 O12        -6.5744   -0.2977   -0.7971 O.2        1 <1>        0.000
     14 H          -1.8229   -1.1723   -0.0507 H.spc      1 <1>        0.000
     15 H          -0.2505   -2.2593   -1.5691 H.spc      1 <1>        0.000
     16 H          -4.5162   -0.6767   -3.0309 H.spc      1 <1>        0.000
     17 H          -6.6663   -2.8393   -0.3566 H.spc      1 <1>        0.000
@<TRIPOS>BOND
     1    7    9 1  
     2    7    8 2  
     3    7   10 1  
     4    2    3 1  
     5    1    2 2  
     6    2   12 1  
     7    2   13 2  
     8    3    4 1  
     9    4    5 2  
    10    4    6 1  
    11    4   11 1  
    12    6    7 1  
    13    9   14 1  
    14   10   15 1  
    15   11   16 1  
    16   12   17 1  
# Name:          frag3-270-2/31924
# Creation time: Sat Jun  5 12:52:42 2010


@<TRIPOS>MOLECULE
frag3-270-2/31924
   17    16     1     1     1
SMALL
USER_CHARGES


@<TRIPOS>ATOM
      1 S1         -6.2336    0.3337    1.4705 S.2        1 <1>        0.000
      2 P1         -6.1773   -1.0836    0.2201 P.3        1 <1>        0.000
      3 O1         -5.3004   -0.8507   -1.0596 O.3        1 <1>        0.000
      4 P2         -4.2909   -1.8666   -1.6049 P.3        1 <1>        0.000
      5 O2         -5.0099   -3.0382   -2.0817 O.2        1 <1>        0.000
      6 O3         -3.3527   -2.3480   -0.4333 O.3        1 <1>        0.000
      7 P3         -2.0404   -3.1432   -0.7171 P.3        1 <1>        0.000
      8 O4         -1.2640   -2.3700   -1.6620 O.2        1 <1>        0.000
      9 O5         -2.5067   -4.4910   -1.3795 O.3        1 <1>        0.000
     10 O9         -1.2743   -3.4889    0.5936 O.3        1 <1>        0.000
     11 O10        -3.3341   -1.2538   -2.6824 O.3        1 <1>        0.000
     12 O11        -5.5524   -2.4692    0.8390 O.3        1 <1>        0.000
     13 O12        -7.5025   -1.4914   -0.2332 O.2        1 <1>        0.000
     14 H          -3.0206   -4.9967   -0.7457 H.spc      1 <1>        0.000
     15 H          -1.8456   -3.9999    1.1716 H.spc      1 <1>        0.000
     16 H          -2.8884   -0.4874   -2.3142 H.spc      1 <1>        0.000
     17 H          -5.5498   -3.1486    0.1608 H.spc      1 <1>        0.000
@<TRIPOS>BOND
     1    7    9 1  
     2    7    8 2  
     3    7   10 1  
     4    2    3 1  
     5    1    2 2  
     6    2   12 1  
     7    2   13 2  
     8    3    4 1  
     9    4    5 2  
    10    4    6 1  
    11    4   11 1  
    12    6    7 1  
    13    9   14 1  
    14   10   15 1  
    15   11   16 1  
    16   12   17 1  
# Name:          frag3-270-2/31924
# Creation time: Sat Jun  5 12:52:42 2010


@<TRIPOS>MOLECULE
frag3-270-2/31924
   17    16     1     1     1
SMALL
USER_CHARGES


@<TRIPOS>ATOM
      1 S1         -6.1517   -0.5453    1.8653 S.2        1 <1>        0.000
      2 P1         -5.9655   -0.8097   -0.0078 P.3        1 <1>        0.000
      3 O1         -4.6041   -1.4162   -0.4806 O.3        1 <1>        0.000
      4 P2         -4.4653   -2.7275   -1.3071 P.3        1 <1>        0.000
      5 O2         -4.6995   -3.8618   -0.4187 O.2        1 <1>        0.000
      6 O3         -3.0377   -2.8302   -1.8752 O.3        1 <1>        0.000
      7 P3         -1.7966   -2.7585   -0.9449 P.3        1 <1>        0.000
      8 O4         -1.6392   -1.3997   -0.4673 O.2        1 <1>        0.000
      9 O5         -0.5308   -3.2742   -1.6602 O.3        1 <1>        0.000
     10 O9         -2.1188   -3.7675    0.2454 O.3        1 <1>        0.000
     11 O10        -5.5535   -2.6308   -2.4374 O.3        1 <1>        0.000
     12 O11        -7.0486   -1.9419   -0.4654 O.3        1 <1>        0.000
     13 O12        -6.2279    0.4023   -0.7767 O.2        1 <1>        0.000
     14 H          -0.6780   -4.1745   -1.9593 H.spc      1 <1>        0.000
     15 H          -2.2163   -4.6553   -0.1067 H.spc      1 <1>        0.000
     16 H          -5.3645   -1.8749   -2.9982 H.spc      1 <1>        0.000
     17 H          -6.9726   -2.0923   -1.4105 H.spc      1 <1>        0.000
@<TRIPOS>BOND
     1    7    9 1  
     2    7    8 2  
     3    7   10 1  
     4    2    3 1  
     5    1    2 2  
     6    2   12 1  
     7    2   13 2  
     8    3    4 1  
     9    4    5 2  
    10    4    6 1  
    11    4   11 1  
    12    6    7 1  
    13    9   14 1  
    14   10   15 1  
    15   11   16 1  
    16   12   17 1  
# Name:          frag3-270-2/31924
# Creation time: Sat Jun  5 12:52:42 2010


@<TRIPOS>MOLECULE
frag3-270-2/31924
   17    16     1     1     1
SMALL
USER_CHARGES


@<TRIPOS>ATOM
      1 S1         -4.6229   -0.4600    1.2191 S.2        1 <1>        0.000
      2 P1         -6.0113   -1.3491    0.2382 P.3        1 <1>        0.000
      3 O1         -5.4795   -2.6519   -0.4976 O.3        1 <1>        0.000
      4 P2         -4.4930   -2.5170   -1.7041 P.3        1 <1>        0.000
      5 O2         -4.0189   -3.8064   -2.1797 O.2        1 <1>        0.000
      6 O3         -3.2204   -1.7534   -1.1670 O.3        1 <1>        0.000
      7 P3         -1.9942   -2.5301   -0.6120 P.3        1 <1>        0.000
      8 O4         -0.8203   -1.7238   -0.3790 O.2        1 <1>        0.000
      9 O5         -1.6940   -3.6419   -1.6955 O.3        1 <1>        0.000
     10 O9         -2.4905   -3.3176    0.6815 O.3        1 <1>        0.000
     11 O10        -5.2195   -1.6777   -2.8100 O.3        1 <1>        0.000
     12 O11        -7.3210   -1.6478    1.0648 O.3        1 <1>        0.000
     13 O12        -6.4538   -0.4843   -0.8892 O.2        1 <1>        0.000
     14 H          -2.4835   -4.1688   -1.8389 H.spc      1 <1>        0.000
     15 H          -3.2704   -3.8324    0.4617 H.spc      1 <1>        0.000
     16 H          -5.5081   -0.8413   -2.4375 H.spc      1 <1>        0.000
     17 H          -7.9594   -2.0913    0.5015 H.spc      1 <1>        0.000
@<TRIPOS>BOND
     1    7    9 1  
     2    7    8 2  
     3    7   10 1  
     4    2    3 1  
     5    1    2 2  
     6    2   12 1  
     7    2   13 2  
     8    3    4 1  
     9    4    5 2  
    10    4    6 1  
    11    4   11 1  
    12    6    7 1  
    13    9   14 1  
    14   10   15 1  
    15   11   16 1  
    16   12   17 1  
# Name:          frag3-270-2/31924
# Creation time: Sat Jun  5 12:52:42 2010


@<TRIPOS>MOLECULE
frag3-270-2/31924
   17    16     1     1     1
SMALL
USER_CHARGES


@<TRIPOS>ATOM
      1 S1         -6.1324   -2.3828    1.5646 S.2        1 <1>        0.000
      2 P1         -6.0083   -1.1662    0.0888 P.3        1 <1>        0.000
      3 O1         -5.8768   -1.9215   -1.2882 O.3        1 <1>        0.000
      4 P2         -4.5989   -2.7101   -1.6408 P.3        1 <1>        0.000
      5 O2         -4.4210   -3.8167   -0.6869 O.2        1 <1>        0.000
      6 O3         -3.3489   -1.7813   -1.3961 O.3        1 <1>        0.000
      7 P3         -2.0389   -2.3007   -0.7598 P.3        1 <1>        0.000
      8 O4         -0.9803   -1.3198   -0.6225 O.2        1 <1>        0.000
      9 O5         -1.5719   -3.4882   -1.6946 O.3        1 <1>        0.000
     10 O9         -2.4043   -3.0031    0.6181 O.3        1 <1>        0.000
     11 O10        -4.5495   -3.2121   -3.1185 O.3        1 <1>        0.000
     12 O11        -7.1515   -0.0730    0.0244 O.3        1 <1>        0.000
     13 O12        -4.7565   -0.3854    0.1810 O.2        1 <1>        0.000
     14 H          -2.2825   -4.1286   -1.7757 H.spc      1 <1>        0.000
     15 H          -3.1072   -3.6410    0.4743 H.spc      1 <1>        0.000
     16 H          -4.6684   -2.4673   -3.7124 H.spc      1 <1>        0.000
     17 H          -7.0119    0.4897   -0.7408 H.spc      1 <1>        0.000
@<TRIPOS>BOND
     1    7    9 1  
     2    7    8 2  
     3    7   10 1  
     4    2    3 1  
     5    1    2 2  
     6    2   12 1  
     7    2   13 2  
     8    3    4 1  
     9    4    5 2  
    10    4    6 1  
    11    4   11 1  
    12    6    7 1  
    13    9   14 1  
    14   10   15 1  
    15   11   16 1  
    16   12   17 1  
# Name:          frag3-270-2/31924
# Creation time: Sat Jun  5 12:52:42 2010


@<TRIPOS>MOLECULE
frag3-270-2/31924
   17    16     1     1     1
SMALL
USER_CHARGES


@<TRIPOS>ATOM
      1 S1         -6.1001    0.5852   -0.2000 S.2        1 <1>        0.000
      2 P1         -5.9079   -1.2230    0.4035 P.3        1 <1>        0.000
      3 O1         -4.5916   -1.8866   -0.1398 O.3        1 <1>        0.000
      4 P2         -4.4111   -2.2161   -1.6725 P.3        1 <1>        0.000
      5 O2         -5.6787   -2.7233   -2.1408 O.2        1 <1>        0.000
      6 O3         -3.2509   -3.2141   -1.8026 O.3        1 <1>        0.000
      7 P3         -1.9925   -3.1173   -0.8918 P.3        1 <1>        0.000
      8 O4         -1.6136   -1.7187   -0.8228 O.2        1 <1>        0.000
      9 O5         -0.8363   -4.0043   -1.3895 O.3        1 <1>        0.000
     10 O9         -2.4467   -3.6656    0.5371 O.3        1 <1>        0.000
     11 O10        -3.9822   -0.8772   -2.4020 O.3        1 <1>        0.000
     12 O11        -6.0588   -1.4303    1.9650 O.3        1 <1>        0.000
     13 O12        -6.9687   -2.0698   -0.1744 O.2        1 <1>        0.000
     14 H          -1.1266   -4.9188   -1.4208 H.spc      1 <1>        0.000
     15 H          -2.6909   -4.5909    0.4607 H.spc      1 <1>        0.000
     16 H          -3.1365   -0.5825   -2.0563 H.spc      1 <1>        0.000
     17 H          -5.9483   -2.3604    2.1753 H.spc      1 <1>        0.000
@<TRIPOS>BOND
     1    7    9 1  
     2    7    8 2  
     3    7   10 1  
     4    2    3 1  
     5    1    2 2  
     6    2   12 1  
     7    2   13 2  
     8    3    4 1  
     9    4    5 2  
    10    4    6 1  
    11    4   11 1  
    12    6    7 1  
    13    9   14 1  
    14   10   15 1  
    15   11   16 1  
    16   12   17 1  
# Name:          frag3-270-2/31924
# Creation time: Sat Jun  5 12:52:42 2010


@<TRIPOS>MOLECULE
frag3-270-2/31924
   17    16     1     1     1
SMALL
USER_CHARGES


@<TRIPOS>ATOM
      1 S1         -6.4463   -1.9126    1.6018 S.2        1 <1>        0.000
      2 P1         -6.4751   -0.9703   -0.0767 P.3        1 <1>        0.000
      3 O1         -5.0404   -0.8836   -0.7062 O.3        1 <1>        0.000
      4 P2         -4.2298   -2.1703   -0.9665 P.3        1 <1>        0.000
      5 O2         -5.0505   -3.3100   -0.5762 O.2        1 <1>        0.000
      6 O3         -2.8698   -2.2320   -0.2347 O.3        1 <1>        0.000
      7 P3         -1.6281   -2.9064   -0.8885 P.3        1 <1>        0.000
      8 O4         -1.4388   -2.3093   -2.1976 O.2        1 <1>        0.000
      9 O5         -2.0061   -4.4274   -1.0520 O.3        1 <1>        0.000
     10 O9         -0.3673   -2.8412    0.0225 O.3        1 <1>        0.000
     11 O10        -3.8708   -2.2646   -2.5168 O.3        1 <1>        0.000
     12 O11        -7.3751   -1.6913   -1.2084 O.3        1 <1>        0.000
     13 O12        -7.0409    0.3580    0.0692 O.2        1 <1>        0.000
     14 H          -2.1308   -4.8200   -0.1849 H.spc      1 <1>        0.000
     15 H          -0.5630   -3.2521    0.8677 H.spc      1 <1>        0.000
     16 H          -3.3306   -1.5109   -2.7654 H.spc      1 <1>        0.000
     17 H          -7.3470   -1.1732   -2.0161 H.spc      1 <1>        0.000
@<TRIPOS>BOND
     1    7    9 1  
     2    7    8 2  
     3    7   10 1  
     4    2    3 1  
     5    1    2 2  
     6    2   12 1  
     7    2   13 2  
     8    3    4 1  
     9    4    5 2  
    10    4    6 1  
    11    4   11 1  
    12    6    7 1  
    13    9   14 1  
    14   10   15 1  
    15   11   16 1  
    16   12   17 1  
# Name:          frag3-270-2/31924
# Creation time: Sat Jun  5 12:52:42 2010


@<TRIPOS>MOLECULE
frag3-270-2/31924
   17    16     1     1     1
SMALL
USER_CHARGES


@<TRIPOS>ATOM
      1 S1         -5.7612    0.8079    0.6505 S.2        1 <1>        0.000
      2 P1         -6.0860   -1.0152    0.2264 P.3        1 <1>        0.000
      3 O1         -4.8160   -1.9030    0.0199 O.3        1 <1>        0.000
      4 P2         -4.4298   -2.5401   -1.3364 P.3        1 <1>        0.000
      5 O2         -5.6346   -3.1007   -1.9114 O.2        1 <1>        0.000
      6 O3         -3.2914   -3.5589   -1.1719 O.3        1 <1>        0.000
      7 P3         -1.8622   -3.0838   -0.7959 P.3        1 <1>        0.000
      8 O4         -1.9974   -1.7585   -0.2055 O.2        1 <1>        0.000
      9 O5         -1.0218   -2.9948   -2.1111 O.3        1 <1>        0.000
     10 O9         -1.1566   -4.1037    0.1530 O.3        1 <1>        0.000
     11 O10        -3.9396   -1.4178   -2.3667 O.3        1 <1>        0.000
     12 O11        -7.0843   -1.7774    1.2099 O.3        1 <1>        0.000
     13 O12        -6.7582   -1.1151   -1.0912 O.2        1 <1>        0.000
     14 H          -0.9365   -3.8706   -2.4949 H.spc      1 <1>        0.000
     15 H          -1.0944   -4.9560   -0.2845 H.spc      1 <1>        0.000
     16 H          -3.1372   -1.0086   -2.0345 H.spc      1 <1>        0.000
     17 H          -7.1869   -2.6864    0.9186 H.spc      1 <1>        0.000
@<TRIPOS>BOND
     1    7    9 1  
     2    7    8 2  
     3    7   10 1  
     4    2    3 1  
     5    1    2 2  
     6    2   12 1  
     7    2   13 2  
     8    3    4 1  
     9    4    5 2  
    10    4    6 1  
    11    4   11 1  
    12    6    7 1  
    13    9   14 1  
    14   10   15 1  
    15   11   16 1  
    16   12   17 1  
# Name:          frag3-270-2/31924
# Creation time: Sat Jun  5 12:52:42 2010


@<TRIPOS>MOLECULE
frag3-270-2/31924
   17    16     1     1     1
SMALL
USER_CHARGES


@<TRIPOS>ATOM
      1 S1         -4.7125   -0.4581    1.2896 S.2        1 <1>        0.000
      2 P1         -6.0030   -1.1871    0.0761 P.3        1 <1>        0.000
      3 O1         -5.5023   -1.1987   -1.4112 O.3        1 <1>        0.000
      4 P2         -4.3942   -2.1678   -1.8837 P.3        1 <1>        0.000
      5 O2         -4.6318   -3.4561   -1.1860 O.2        1 <1>        0.000
      6 O3         -2.9878   -1.7095   -1.3595 O.3        1 <1>        0.000
      7 P3         -2.0621   -2.6467   -0.5428 P.3        1 <1>        0.000
      8 O4         -0.7758   -2.0801   -0.1861 O.2        1 <1>        0.000
      9 O5         -1.8704   -3.9421   -1.4250 O.3        1 <1>        0.000
     10 O9         -2.8937   -3.1364    0.7252 O.3        1 <1>        0.000
     11 O10        -4.3478   -2.3648   -3.4285 O.3        1 <1>        0.000
     12 O11        -6.3791   -2.7234    0.4330 O.3        1 <1>        0.000
     13 O12        -7.2787   -0.4902    0.1683 O.2        1 <1>        0.000
     14 H          -2.7303   -4.3036   -1.6518 H.spc      1 <1>        0.000
     15 H          -3.7328   -3.5013    0.4347 H.spc      1 <1>        0.000
     16 H          -4.1933   -1.5180   -3.8535 H.spc      1 <1>        0.000
     17 H          -7.0262   -3.0480   -0.1975 H.spc      1 <1>        0.000
@<TRIPOS>BOND
     1    7    9 1  
     2    7    8 2  
     3    7   10 1  
     4    2    3 1  
     5    1    2 2  
     6    2   12 1  
     7    2   13 2  
     8    3    4 1  
     9    4    5 2  
    10    4    6 1  
    11    4   11 1  
    12    6    7 1  
    13    9   14 1  
    14   10   15 1  
    15   11   16 1  
    16   12   17 1  
# Name:          frag3-270-2/31924
# Creation time: Sat Jun  5 12:52:42 2010


@<TRIPOS>MOLECULE
frag3-270-2/31924
   17    16     1     1     1
SMALL
USER_CHARGES


@<TRIPOS>ATOM
      1 S1         -7.2736   -1.6811    0.9900 S.2        1 <1>        0.000
      2 P1         -5.7756   -0.8648    0.1294 P.3        1 <1>        0.000
      3 O1         -4.5850   -1.8684   -0.0748 O.3        1 <1>        0.000
      4 P2         -4.6025   -2.9761   -1.1891 P.3        1 <1>        0.000
      5 O2         -5.6815   -3.8999   -0.9317 O.2        1 <1>        0.000
      6 O3         -3.2082   -3.6168   -1.2628 O.3        1 <1>        0.000
      7 P3         -1.9280   -2.7867   -0.9309 P.3        1 <1>        0.000
      8 O4         -2.0561   -1.5077   -1.6058 O.2        1 <1>        0.000
      9 O5         -0.6503   -3.5338   -1.3792 O.3        1 <1>        0.000
     10 O9         -1.8399   -2.6159    0.6420 O.3        1 <1>        0.000
     11 O10        -4.8071   -2.1913   -2.5687 O.3        1 <1>        0.000
     12 O11        -6.1050   -0.3478   -1.3740 O.3        1 <1>        0.000
     13 O12        -5.3263    0.3292    0.8252 O.2        1 <1>        0.000
     14 H          -0.5932   -4.3734   -0.9173 H.spc      1 <1>        0.000
     15 H          -1.7563   -3.4797    1.0524 H.spc      1 <1>        0.000
     16 H          -4.0723   -1.5886   -2.7047 H.spc      1 <1>        0.000
     17 H          -5.3186    0.0510   -1.7535 H.spc      1 <1>        0.000
@<TRIPOS>BOND
     1    7    9 1  
     2    7    8 2  
     3    7   10 1  
     4    2    3 1  
     5    1    2 2  
     6    2   12 1  
     7    2   13 2  
     8    3    4 1  
     9    4    5 2  
    10    4    6 1  
    11    4   11 1  
    12    6    7 1  
    13    9   14 1  
    14   10   15 1  
    15   11   16 1  
    16   12   17 1  
# Name:          frag3-270-2/31924
# Creation time: Sat Jun  5 12:52:42 2010


@<TRIPOS>MOLECULE
frag3-270-2/31924
   17    16     1     1     1
SMALL
USER_CHARGES


@<TRIPOS>ATOM
      1 S1         -7.0325   -2.7832    0.7194 S.2        1 <1>        0.000
      2 P1         -6.0904   -1.2041    0.1660 P.3        1 <1>        0.000
      3 O1         -5.5961   -1.3184   -1.3297 O.3        1 <1>        0.000
      4 P2         -4.4660   -2.2989   -1.7214 P.3        1 <1>        0.000
      5 O2         -4.5711   -3.4721   -0.8243 O.2        1 <1>        0.000
      6 O3         -3.0629   -1.6773   -1.3871 O.3        1 <1>        0.000
      7 P3         -1.9148   -2.5283   -0.7710 P.3        1 <1>        0.000
      8 O4         -0.5936   -2.1464   -1.2366 O.2        1 <1>        0.000
      9 O5         -2.2298   -4.0144   -1.2163 O.3        1 <1>        0.000
     10 O9         -2.0658   -2.4791    0.7998 O.3        1 <1>        0.000
     11 O10        -4.4912   -2.7238   -3.2243 O.3        1 <1>        0.000
     12 O11        -6.8890    0.1487    0.3566 O.3        1 <1>        0.000
     13 O12        -4.8358   -1.0637    0.9385 O.2        1 <1>        0.000
     14 H          -3.1040   -4.2617   -0.9061 H.spc      1 <1>        0.000
     15 H          -2.9568   -2.7410    1.0428 H.spc      1 <1>        0.000
     16 H          -4.4215   -1.9425   -3.7778 H.spc      1 <1>        0.000
     17 H          -6.3483    0.8831    0.0568 H.spc      1 <1>        0.000
@<TRIPOS>BOND
     1    7    9 1  
     2    7    8 2  
     3    7   10 1  
     4    2    3 1  
     5    1    2 2  
     6    2   12 1  
     7    2   13 2  
     8    3    4 1  
     9    4    5 2  
    10    4    6 1  
    11    4   11 1  
    12    6    7 1  
    13    9   14 1  
    14   10   15 1  
    15   11   16 1  
    16   12   17 1  
# Name:          frag3-270-2/31924
# Creation time: Sat Jun  5 12:52:42 2010


@<TRIPOS>MOLECULE
frag3-270-2/31924
   17    16     1     1     1
SMALL
USER_CHARGES


@<TRIPOS>ATOM
      1 S1         -5.9301   -0.2514    1.9536 S.2        1 <1>        0.000
      2 P1         -5.9061   -0.9757    0.2154 P.3        1 <1>        0.000
      3 O1         -4.7487   -1.9746   -0.1516 O.3        1 <1>        0.000
      4 P2         -4.4635   -2.5349   -1.5765 P.3        1 <1>        0.000
      5 O2         -4.8745   -3.9108   -1.6750 O.2        1 <1>        0.000
      6 O3         -2.9508   -2.4183   -1.8393 O.3        1 <1>        0.000
      7 P3         -1.9234   -2.9443   -0.7890 P.3        1 <1>        0.000
      8 O4         -2.6938   -3.6450    0.2162 O.2        1 <1>        0.000
      9 O5         -1.2033   -1.7172   -0.1468 O.3        1 <1>        0.000
     10 O9         -0.8424   -3.8354   -1.4775 O.3        1 <1>        0.000
     11 O10        -5.2814   -1.5893   -2.5431 O.3        1 <1>        0.000
     12 O11        -7.2387   -1.8370   -0.1011 O.3        1 <1>        0.000
     13 O12        -5.7823    0.0730   -0.8158 O.2        1 <1>        0.000
     14 H          -0.6948   -1.2580   -0.8193 H.spc      1 <1>        0.000
     15 H          -0.3686   -3.3148   -2.1303 H.spc      1 <1>        0.000
     16 H          -4.9727   -0.6859   -2.4419 H.spc      1 <1>        0.000
     17 H          -7.1874   -2.1875   -0.9933 H.spc      1 <1>        0.000
@<TRIPOS>BOND
     1    7    9 1  
     2    7    8 2  
     3    7   10 1  
     4    2    3 1  
     5    1    2 2  
     6    2   12 1  
     7    2   13 2  
     8    3    4 1  
     9    4    5 2  
    10    4    6 1  
    11    4   11 1  
    12    6    7 1  
    13    9   14 1  
    14   10   15 1  
    15   11   16 1  
    16   12   17 1  
# Name:          frag3-270-2/31924
# Creation time: Sat Jun  5 12:52:42 2010


@<TRIPOS>MOLECULE
frag3-270-2/31924
   17    16     1     1     1
SMALL
USER_CHARGES


@<TRIPOS>ATOM
      1 S1         -6.5430    0.7055    0.6315 S.2        1 <1>        0.000
      2 P1         -5.6791   -0.9415    0.2450 P.3        1 <1>        0.000
      3 O1         -4.6335   -0.9244   -0.9299 O.3        1 <1>        0.000
      4 P2         -4.3854   -2.1160   -1.8963 P.3        1 <1>        0.000
      5 O2         -5.0397   -3.2665   -1.2671 O.2        1 <1>        0.000
      6 O3         -2.8747   -2.4497   -1.9100 O.3        1 <1>        0.000
      7 P3         -2.1731   -3.0835   -0.6856 P.3        1 <1>        0.000
      8 O4         -2.2708   -2.1653    0.4454 O.2        1 <1>        0.000
      9 O5         -0.7025   -3.4707   -0.9724 O.3        1 <1>        0.000
     10 O9         -2.9231   -4.4515   -0.3681 O.3        1 <1>        0.000
     11 O10        -4.9588   -1.8128   -3.3138 O.3        1 <1>        0.000
     12 O11        -4.9838   -1.6461    1.5010 O.3        1 <1>        0.000
     13 O12        -6.6715   -1.9385   -0.2102 O.2        1 <1>        0.000
     14 H          -0.6712   -4.0733   -1.7190 H.spc      1 <1>        0.000
     15 H          -2.8469   -5.0396   -1.1230 H.spc      1 <1>        0.000
     16 H          -4.5029   -1.0547   -3.6868 H.spc      1 <1>        0.000
     17 H          -4.5736   -2.4671    1.2194 H.spc      1 <1>        0.000
@<TRIPOS>BOND
     1    7    9 1  
     2    7    8 2  
     3    7   10 1  
     4    2    3 1  
     5    1    2 2  
     6    2   12 1  
     7    2   13 2  
     8    3    4 1  
     9    4    5 2  
    10    4    6 1  
    11    4   11 1  
    12    6    7 1  
    13    9   14 1  
    14   10   15 1  
    15   11   16 1  
    16   12   17 1  
# Name:          frag3-270-2/31924
# Creation time: Sat Jun  5 12:52:42 2010


@<TRIPOS>MOLECULE
frag3-270-2/31924
   17    16     1     1     1
SMALL
USER_CHARGES


@<TRIPOS>ATOM
      1 S1         -7.2766   -0.7385    0.0561 S.2        1 <1>        0.000
      2 P1         -5.5223   -1.3363    0.4973 P.3        1 <1>        0.000
      3 O1         -4.5072   -1.1099   -0.6896 O.3        1 <1>        0.000
      4 P2         -4.5337   -2.0246   -1.9856 P.3        1 <1>        0.000
      5 O2         -5.9130   -2.4011   -2.1922 O.2        1 <1>        0.000
      6 O3         -3.6234   -3.2211   -1.5944 O.3        1 <1>        0.000
      7 P3         -2.3024   -3.0256   -0.7846 P.3        1 <1>        0.000
      8 O4         -1.4701   -2.0913   -1.5110 O.2        1 <1>        0.000
      9 O5         -1.5886   -4.3552   -0.4940 O.3        1 <1>        0.000
     10 O9         -2.7705   -2.4010    0.6234 O.3        1 <1>        0.000
     11 O10        -3.9033   -1.2515   -3.1855 O.3        1 <1>        0.000
     12 O11        -4.9347   -0.7890    1.8628 O.3        1 <1>        0.000
     13 O12        -5.4933   -2.8159    0.6671 O.2        1 <1>        0.000
     14 H          -2.1815   -4.9368   -0.0125 H.spc      1 <1>        0.000
     15 H          -3.3203   -3.0367    1.0872 H.spc      1 <1>        0.000
     16 H          -2.9909   -1.0341   -2.9808 H.spc      1 <1>        0.000
     17 H          -4.0528   -1.1442    1.9956 H.spc      1 <1>        0.000
@<TRIPOS>BOND
     1    7    9 1  
     2    7    8 2  
     3    7   10 1  
     4    2    3 1  
     5    1    2 2  
     6    2   12 1  
     7    2   13 2  
     8    3    4 1  
     9    4    5 2  
    10    4    6 1  
    11    4   11 1  
    12    6    7 1  
    13    9   14 1  
    14   10   15 1  
    15   11   16 1  
    16   12   17 1  
# Name:          frag3-270-2/31924
# Creation time: Sat Jun  5 12:52:42 2010


@<TRIPOS>MOLECULE
frag3-270-2/31924
   17    16     1     1     1
SMALL
USER_CHARGES


@<TRIPOS>ATOM
      1 S1         -4.6738   -0.0890    1.4837 S.2        1 <1>        0.000
      2 P1         -5.6203   -1.1021    0.1781 P.3        1 <1>        0.000
      3 O1         -4.9685   -1.1502   -1.2552 O.3        1 <1>        0.000
      4 P2         -4.5898   -2.4834   -1.9804 P.3        1 <1>        0.000
      5 O2         -5.8030   -3.1604   -2.3675 O.2        1 <1>        0.000
      6 O3         -3.7743   -3.2881   -0.8952 O.3        1 <1>        0.000
      7 P3         -2.3362   -2.8472   -0.4674 P.3        1 <1>        0.000
      8 O4         -1.3979   -3.2128   -1.5000 O.2        1 <1>        0.000
      9 O5         -1.9411   -3.3887    0.9195 O.3        1 <1>        0.000
     10 O9         -2.4098   -1.2455   -0.3187 O.3        1 <1>        0.000
     11 O10        -3.5792   -2.2381   -3.1547 O.3        1 <1>        0.000
     12 O11        -5.7425   -2.6791    0.5918 O.3        1 <1>        0.000
     13 O12        -7.0025   -0.6762    0.0356 O.2        1 <1>        0.000
     14 H          -2.5966   -3.1174    1.5663 H.spc      1 <1>        0.000
     15 H          -3.0373   -1.0178    0.3712 H.spc      1 <1>        0.000
     16 H          -2.8025   -1.7857   -2.8177 H.spc      1 <1>        0.000
     17 H          -6.2246   -3.1514   -0.0909 H.spc      1 <1>        0.000
@<TRIPOS>BOND
     1    7    9 1  
     2    7    8 2  
     3    7   10 1  
     4    2    3 1  
     5    1    2 2  
     6    2   12 1  
     7    2   13 2  
     8    3    4 1  
     9    4    5 2  
    10    4    6 1  
    11    4   11 1  
    12    6    7 1  
    13    9   14 1  
    14   10   15 1  
    15   11   16 1  
    16   12   17 1  
# Name:          frag3-270-2/31924
# Creation time: Sat Jun  5 12:52:42 2010


@<TRIPOS>MOLECULE
frag3-270-2/31924
   17    16     1     1     1
SMALL
USER_CHARGES


@<TRIPOS>ATOM
      1 S1         -6.0781   -1.7493    1.6747 S.2        1 <1>        0.000
      2 P1         -6.0605   -0.8840   -0.0422 P.3        1 <1>        0.000
      3 O1         -4.7699   -1.2586   -0.8575 O.3        1 <1>        0.000
      4 P2         -4.4860   -2.7595   -1.2324 P.3        1 <1>        0.000
      5 O2         -5.7009   -3.4984   -0.9818 O.2        1 <1>        0.000
      6 O3         -3.2767   -3.2561   -0.4005 O.3        1 <1>        0.000
      7 P3         -1.8245   -2.8216   -0.7447 P.3        1 <1>        0.000
      8 O4         -1.3915   -3.4908   -1.9460 O.2        1 <1>        0.000
      9 O5         -0.8535   -3.0200    0.4317 O.3        1 <1>        0.000
     10 O9         -1.8978   -1.2286   -0.9874 O.3        1 <1>        0.000
     11 O10        -4.0282   -2.8441   -2.7436 O.3        1 <1>        0.000
     12 O11        -7.2948   -1.3072   -0.9880 O.3        1 <1>        0.000
     13 O12        -6.1768    0.5570    0.0872 O.2        1 <1>        0.000
     14 H          -1.1877   -2.5560    1.2028 H.spc      1 <1>        0.000
     15 H          -2.1870   -0.7961   -0.1806 H.spc      1 <1>        0.000
     16 H          -3.2198   -2.3397   -2.8606 H.spc      1 <1>        0.000
     17 H          -7.2283   -0.8431   -1.8257 H.spc      1 <1>        0.000
@<TRIPOS>BOND
     1    7    9 1  
     2    7    8 2  
     3    7   10 1  
     4    2    3 1  
     5    1    2 2  
     6    2   12 1  
     7    2   13 2  
     8    3    4 1  
     9    4    5 2  
    10    4    6 1  
    11    4   11 1  
    12    6    7 1  
    13    9   14 1  
    14   10   15 1  
    15   11   16 1  
    16   12   17 1  
# Name:          frag3-270-2/31924
# Creation time: Sat Jun  5 12:52:42 2010


@<TRIPOS>MOLECULE
frag3-270-2/31924
   17    16     1     1     1
SMALL
USER_CHARGES


@<TRIPOS>ATOM
      1 S1         -4.7244   -1.5806    1.7453 S.2        1 <1>        0.000
      2 P1         -5.9386   -1.5278    0.2590 P.3        1 <1>        0.000
      3 O1         -5.5825   -2.5975   -0.8537 O.3        1 <1>        0.000
      4 P2         -4.4707   -2.3229   -1.9231 P.3        1 <1>        0.000
      5 O2         -3.9483   -3.5220   -2.5207 O.2        1 <1>        0.000
      6 O3         -3.2763   -1.6685   -1.1219 O.3        1 <1>        0.000
      7 P3         -2.1136   -2.5524   -0.5632 P.3        1 <1>        0.000
      8 O4         -1.3554   -3.0751   -1.6649 O.2        1 <1>        0.000
      9 O5         -2.8583   -3.7500    0.1837 O.3        1 <1>        0.000
     10 O9         -1.2630   -1.8247    0.5236 O.3        1 <1>        0.000
     11 O10        -5.0569   -1.2989   -2.9568 O.3        1 <1>        0.000
     12 O11        -7.4687   -1.6021    0.6338 O.3        1 <1>        0.000
     13 O12        -5.7825   -0.2384   -0.4715 O.2        1 <1>        0.000
     14 H          -3.3652   -3.4004    0.9202 H.spc      1 <1>        0.000
     15 H          -1.8411   -1.5068    1.2210 H.spc      1 <1>        0.000
     16 H          -5.3856   -0.5272   -2.4898 H.spc      1 <1>        0.000
     17 H          -7.9954   -1.5693   -0.1681 H.spc      1 <1>        0.000
@<TRIPOS>BOND
     1    7    9 1  
     2    7    8 2  
     3    7   10 1  
     4    2    3 1  
     5    1    2 2  
     6    2   12 1  
     7    2   13 2  
     8    3    4 1  
     9    4    5 2  
    10    4    6 1  
    11    4   11 1  
    12    6    7 1  
    13    9   14 1  
    14   10   15 1  
    15   11   16 1  
    16   12   17 1  
# Name:          frag3-270-2/31924
# Creation time: Sat Jun  5 12:52:42 2010


@<TRIPOS>MOLECULE
frag3-270-2/31924
   17    16     1     1     1
SMALL
USER_CHARGES


@<TRIPOS>ATOM
      1 S1         -6.5304    0.2853    1.3218 S.2        1 <1>        0.000
      2 P1         -5.9052   -1.1838    0.3024 P.3        1 <1>        0.000
      3 O1         -4.7062   -0.8963   -0.6856 O.3        1 <1>        0.000
      4 P2         -4.2697   -1.8650   -1.8151 P.3        1 <1>        0.000
      5 O2         -4.8206   -3.1844   -1.4226 O.2        1 <1>        0.000
      6 O3         -2.7221   -2.0481   -1.7919 O.3        1 <1>        0.000
      7 P3         -2.0273   -3.0193   -0.7981 P.3        1 <1>        0.000
      8 O4         -0.6301   -2.7266   -0.5568 O.2        1 <1>        0.000
      9 O5         -2.2253   -4.4747   -1.3393 O.3        1 <1>        0.000
     10 O9         -2.8991   -2.9315    0.5539 O.3        1 <1>        0.000
     11 O10        -4.7853   -1.4132   -3.2113 O.3        1 <1>        0.000
     12 O11        -5.3602   -2.3654    1.2704 O.3        1 <1>        0.000
     13 O12        -6.9578   -1.7378   -0.5583 O.2        1 <1>        0.000
     14 H          -3.1600   -4.6352   -1.4881 H.spc      1 <1>        0.000
     15 H          -3.8168   -3.1310    0.3551 H.spc      1 <1>        0.000
     16 H          -4.4078   -0.5579   -3.4292 H.spc      1 <1>        0.000
     17 H          -5.0489   -3.0985    0.7345 H.spc      1 <1>        0.000
@<TRIPOS>BOND
     1    7    9 1  
     2    7    8 2  
     3    7   10 1  
     4    2    3 1  
     5    1    2 2  
     6    2   12 1  
     7    2   13 2  
     8    3    4 1  
     9    4    5 2  
    10    4    6 1  
    11    4   11 1  
    12    6    7 1  
    13    9   14 1  
    14   10   15 1  
    15   11   16 1  
    16   12   17 1  
# Name:          frag3-270-2/31924
# Creation time: Sat Jun  5 12:52:42 2010


@<TRIPOS>MOLECULE
frag3-270-2/31924
   17    16     1     1     1
SMALL
USER_CHARGES


@<TRIPOS>ATOM
      1 S1         -6.1124    0.3761   -1.2464 S.2        1 <1>        0.000
      2 P1         -6.0843   -0.9669    0.1421 P.3        1 <1>        0.000
      3 O1         -4.8051   -1.8656    0.0195 O.3        1 <1>        0.000
      4 P2         -4.4190   -2.5001   -1.3627 P.3        1 <1>        0.000
      5 O2         -5.6250   -2.9463   -2.0087 O.2        1 <1>        0.000
      6 O3         -3.3494   -3.5850   -1.1658 O.3        1 <1>        0.000
      7 P3         -1.9141   -3.2331   -0.6612 P.3        1 <1>        0.000
      8 O4         -2.0282   -2.5264    0.5937 O.2        1 <1>        0.000
      9 O5         -1.3364   -2.2308   -1.7547 O.3        1 <1>        0.000
     10 O9         -0.9753   -4.4695   -0.6277 O.3        1 <1>        0.000
     11 O10        -3.6970   -1.3365   -2.2183 O.3        1 <1>        0.000
     12 O11        -6.2801   -0.3793    1.5988 O.3        1 <1>        0.000
     13 O12        -7.2128   -1.8975   -0.0390 O.2        1 <1>        0.000
     14 H          -1.2552   -2.6879   -2.5950 H.spc      1 <1>        0.000
     15 H          -0.9560   -4.8789   -1.4958 H.spc      1 <1>        0.000
     16 H          -2.8973   -1.0578   -1.7662 H.spc      1 <1>        0.000
     17 H          -6.2561   -1.0956    2.2375 H.spc      1 <1>        0.000
@<TRIPOS>BOND
     1    7    9 1  
     2    7    8 2  
     3    7   10 1  
     4    2    3 1  
     5    1    2 2  
     6    2   12 1  
     7    2   13 2  
     8    3    4 1  
     9    4    5 2  
    10    4    6 1  
    11    4   11 1  
    12    6    7 1  
    13    9   14 1  
    14   10   15 1  
    15   11   16 1  
    16   12   17 1  
# Name:          frag3-270-2/31924
# Creation time: Sat Jun  5 12:52:42 2010


@<TRIPOS>MOLECULE
frag3-270-2/31924
   17    16     1     1     1
SMALL
USER_CHARGES


@<TRIPOS>ATOM
      1 S1         -6.7073    0.3274   -0.7079 S.2        1 <1>        0.000
      2 P1         -5.8083   -1.0787    0.2367 P.3        1 <1>        0.000
      3 O1         -5.6362   -2.3793   -0.6539 O.3        1 <1>        0.000
      4 P2         -4.5598   -2.4350   -1.7829 P.3        1 <1>        0.000
      5 O2         -4.2543   -3.7950   -2.1977 O.2        1 <1>        0.000
      6 O3         -3.2273   -1.8958   -1.1119 O.3        1 <1>        0.000
      7 P3         -2.1728   -2.8767   -0.5177 P.3        1 <1>        0.000
      8 O4         -1.2000   -2.2566    0.3486 O.2        1 <1>        0.000
      9 O5         -1.4935   -3.5686   -1.7484 O.3        1 <1>        0.000
     10 O9         -3.0196   -4.0117    0.2293 O.3        1 <1>        0.000
     11 O10        -5.0030   -1.5066   -2.9614 O.3        1 <1>        0.000
     12 O11        -4.2916   -0.6763    0.6500 O.3        1 <1>        0.000
     13 O12        -6.4655   -1.4079    1.4868 O.2        1 <1>        0.000
     14 H          -2.1681   -3.9694   -2.3014 H.spc      1 <1>        0.000
     15 H          -3.6512   -4.3941   -0.3842 H.spc      1 <1>        0.000
     16 H          -5.1890   -0.6279   -2.6225 H.spc      1 <1>        0.000
     17 H          -3.8839   -1.4083    1.1185 H.spc      1 <1>        0.000
@<TRIPOS>BOND
     1    7    9 1  
     2    7    8 2  
     3    7   10 1  
     4    2    3 1  
     5    1    2 2  
     6    2   12 1  
     7    2   13 2  
     8    3    4 1  
     9    4    5 2  
    10    4    6 1  
    11    4   11 1  
    12    6    7 1  
    13    9   14 1  
    14   10   15 1  
    15   11   16 1  
    16   12   17 1  
# Name:          frag3-270-2/31924
# Creation time: Sat Jun  5 12:52:42 2010


@<TRIPOS>MOLECULE
frag3-270-2/31924
   17    16     1     1     1
SMALL
USER_CHARGES


@<TRIPOS>ATOM
      1 S1         -5.4837    0.6388   -0.2345 S.2        1 <1>        0.000
      2 P1         -5.7872   -1.2335    0.1709 P.3        1 <1>        0.000
      3 O1         -5.5662   -2.1165   -1.1122 O.3        1 <1>        0.000
      4 P2         -4.2886   -1.9385   -1.9879 P.3        1 <1>        0.000
      5 O2         -4.0120   -3.0617   -2.8504 O.2        1 <1>        0.000
      6 O3         -3.1035   -1.9004   -0.9369 O.3        1 <1>        0.000
      7 P3         -2.5207   -3.2241   -0.3485 P.3        1 <1>        0.000
      8 O4         -3.6198   -4.0177    0.1617 O.2        1 <1>        0.000
      9 O5         -1.4399   -2.9850    0.7251 O.3        1 <1>        0.000
     10 O9         -1.8064   -3.9421   -1.5870 O.3        1 <1>        0.000
     11 O10        -4.3300   -0.5710   -2.7579 O.3        1 <1>        0.000
     12 O11        -4.7722   -1.7714    1.3024 O.3        1 <1>        0.000
     13 O12        -7.1088   -1.4378    0.7247 O.2        1 <1>        0.000
     14 H          -0.7303   -2.4574    0.3513 H.spc      1 <1>        0.000
     15 H          -1.0846   -3.3926   -1.9012 H.spc      1 <1>        0.000
     16 H          -4.5168    0.1382   -2.1384 H.spc      1 <1>        0.000
     17 H          -4.9512   -2.6983    1.4767 H.spc      1 <1>        0.000
@<TRIPOS>BOND
     1    7    9 1  
     2    7    8 2  
     3    7   10 1  
     4    2    3 1  
     5    1    2 2  
     6    2   12 1  
     7    2   13 2  
     8    3    4 1  
     9    4    5 2  
    10    4    6 1  
    11    4   11 1  
    12    6    7 1  
    13    9   14 1  
    14   10   15 1  
    15   11   16 1  
    16   12   17 1  
# Name:          frag3-270-2/31924
# Creation time: Sat Jun  5 12:52:42 2010


@<TRIPOS>MOLECULE
frag3-270-2/31924
   17    16     1     1     1
SMALL
USER_CHARGES


@<TRIPOS>ATOM
      1 S1         -7.3410    0.5081    0.7538 S.2        1 <1>        0.000
      2 P1         -6.4378   -1.0553    0.1934 P.3        1 <1>        0.000
      3 O1         -4.8850   -0.9380    0.0027 O.3        1 <1>        0.000
      4 P2         -4.0809   -1.8615   -0.9225 P.3        1 <1>        0.000
      5 O2         -5.0087   -2.8625   -1.4534 O.2        1 <1>        0.000
      6 O3         -2.9276   -2.6193   -0.2160 O.3        1 <1>        0.000
      7 P3         -1.7652   -3.2714   -1.0377 P.3        1 <1>        0.000
      8 O4         -1.0964   -2.2169   -1.7808 O.2        1 <1>        0.000
      9 O5         -2.4919   -4.2451   -2.0450 O.3        1 <1>        0.000
     10 O9         -0.8193   -4.1218   -0.1443 O.3        1 <1>        0.000
     11 O10        -3.4038   -1.0369   -2.0930 O.3        1 <1>        0.000
     12 O11        -6.6593   -2.3437    1.1419 O.3        1 <1>        0.000
     13 O12        -6.9222   -1.4969   -1.1295 O.2        1 <1>        0.000
     14 H          -2.9334   -4.9413   -1.5531 H.spc      1 <1>        0.000
     15 H          -1.3307   -4.7938    0.3123 H.spc      1 <1>        0.000
     16 H          -2.8017   -0.3890   -1.7198 H.spc      1 <1>        0.000
     17 H          -6.1688   -3.0889    0.7872 H.spc      1 <1>        0.000
@<TRIPOS>BOND
     1    7    9 1  
     2    7    8 2  
     3    7   10 1  
     4    2    3 1  
     5    1    2 2  
     6    2   12 1  
     7    2   13 2  
     8    3    4 1  
     9    4    5 2  
    10    4    6 1  
    11    4   11 1  
    12    6    7 1  
    13    9   14 1  
    14   10   15 1  
    15   11   16 1  
    16   12   17 1  
# Name:          frag3-270-2/31924
# Creation time: Sat Jun  5 12:52:42 2010


@<TRIPOS>MOLECULE
frag3-270-2/31924
   17    16     1     1     1
SMALL
USER_CHARGES


@<TRIPOS>ATOM
      1 S1         -4.6144   -0.2784    1.2162 S.2        1 <1>        0.000
      2 P1         -6.0159   -0.9955    0.1026 P.3        1 <1>        0.000
      3 O1         -5.5402   -1.2192   -1.3759 O.3        1 <1>        0.000
      4 P2         -4.5253   -2.3256   -1.7321 P.3        1 <1>        0.000
      5 O2         -5.1929   -3.5464   -2.1190 O.2        1 <1>        0.000
      6 O3         -3.6497   -2.6208   -0.4550 O.3        1 <1>        0.000
      7 P3         -2.1437   -2.9971   -0.5560 P.3        1 <1>        0.000
      8 O4         -2.0190   -3.9191   -1.6620 O.2        1 <1>        0.000
      9 O5         -1.5896   -3.5885    0.7529 O.3        1 <1>        0.000
     10 O9         -1.3546   -1.6350   -0.8370 O.3        1 <1>        0.000
     11 O10        -3.4658   -1.8265   -2.7951 O.3        1 <1>        0.000
     12 O11        -6.5266   -2.4482    0.5960 O.3        1 <1>        0.000
     13 O12        -7.2013   -0.1607    0.1341 O.2        1 <1>        0.000
     14 H          -1.6907   -2.9475    1.4604 H.spc      1 <1>        0.000
     15 H          -1.4571   -1.0463   -0.0857 H.spc      1 <1>        0.000
     16 H          -3.0581   -1.0155   -2.4825 H.spc      1 <1>        0.000
     17 H          -7.2210   -2.7581    0.0100 H.spc      1 <1>        0.000
@<TRIPOS>BOND
     1    7    9 1  
     2    7    8 2  
     3    7   10 1  
     4    2    3 1  
     5    1    2 2  
     6    2   12 1  
     7    2   13 2  
     8    3    4 1  
     9    4    5 2  
    10    4    6 1  
    11    4   11 1  
    12    6    7 1  
    13    9   14 1  
    14   10   15 1  
    15   11   16 1  
    16   12   17 1  
# Name:          frag3-270-2/31924
# Creation time: Sat Jun  5 12:52:42 2010


@<TRIPOS>MOLECULE
frag3-270-2/31924
   17    16     1     1     1
SMALL
USER_CHARGES


@<TRIPOS>ATOM
      1 S1         -6.6239    0.8358    0.5911 S.2        1 <1>        0.000
      2 P1         -6.0649   -0.9116    0.1396 P.3        1 <1>        0.000
      3 O1         -5.4972   -1.1221   -1.3023 O.3        1 <1>        0.000
      4 P2         -4.4303   -2.1575   -1.6478 P.3        1 <1>        0.000
      5 O2         -4.9999   -3.4984   -1.6395 O.2        1 <1>        0.000
      6 O3         -3.3091   -2.1531   -0.5296 O.3        1 <1>        0.000
      7 P3         -2.0624   -3.0663   -0.5975 P.3        1 <1>        0.000
      8 O4         -0.9400   -2.6270    0.2023 O.2        1 <1>        0.000
      9 O5         -1.6663   -3.0749   -2.1305 O.3        1 <1>        0.000
     10 O9         -2.5352   -4.5411   -0.2766 O.3        1 <1>        0.000
     11 O10        -3.6537   -1.8608   -2.9865 O.3        1 <1>        0.000
     12 O11        -4.9162   -1.4854    1.1434 O.3        1 <1>        0.000
     13 O12        -7.1399   -1.8987    0.3036 O.2        1 <1>        0.000
     14 H          -2.4171   -3.3676   -2.6522 H.spc      1 <1>        0.000
     15 H          -3.2790   -4.7672   -0.8398 H.spc      1 <1>        0.000
     16 H          -3.2935   -0.9715   -2.9558 H.spc      1 <1>        0.000
     17 H          -4.6687   -2.3721    0.8711 H.spc      1 <1>        0.000
@<TRIPOS>BOND
     1    7    9 1  
     2    7    8 2  
     3    7   10 1  
     4    2    3 1  
     5    1    2 2  
     6    2   12 1  
     7    2   13 2  
     8    3    4 1  
     9    4    5 2  
    10    4    6 1  
    11    4   11 1  
    12    6    7 1  
    13    9   14 1  
    14   10   15 1  
    15   11   16 1  
    16   12   17 1  
# Name:          frag3-270-2/31924
# Creation time: Sat Jun  5 12:52:42 2010


@<TRIPOS>MOLECULE
frag3-270-2/31924
   17    16     1     1     1
SMALL
USER_CHARGES


@<TRIPOS>ATOM
      1 S1         -5.0079   -0.8378    1.8530 S.2        1 <1>        0.000
      2 P1         -5.8784   -1.2159    0.2099 P.3        1 <1>        0.000
      3 O1         -5.5603   -2.6537   -0.3866 O.3        1 <1>        0.000
      4 P2         -4.6063   -2.8367   -1.6020 P.3        1 <1>        0.000
      5 O2         -4.0189   -4.1672   -1.6657 O.2        1 <1>        0.000
      6 O3         -3.3916   -1.8548   -1.3428 O.3        1 <1>        0.000
      7 P3         -2.0712   -2.3521   -0.7009 P.3        1 <1>        0.000
      8 O4         -1.1933   -1.3113   -0.2226 O.2        1 <1>        0.000
      9 O5         -1.3636   -3.2548   -1.7720 O.3        1 <1>        0.000
     10 O9         -2.5353   -3.3471    0.4702 O.3        1 <1>        0.000
     11 O10        -5.3773   -2.4277   -2.9010 O.3        1 <1>        0.000
     12 O11        -7.4532   -0.9902    0.1968 O.3        1 <1>        0.000
     13 O12        -5.3818   -0.3119   -0.8668 O.2        1 <1>        0.000
     14 H          -1.9729   -3.9348   -2.0686 H.spc      1 <1>        0.000
     15 H          -3.1154   -4.0197    0.1059 H.spc      1 <1>        0.000
     16 H          -5.7378   -1.5445   -2.7931 H.spc      1 <1>        0.000
     17 H          -7.7992   -1.2068   -0.6721 H.spc      1 <1>        0.000
@<TRIPOS>BOND
     1    7    9 1  
     2    7    8 2  
     3    7   10 1  
     4    2    3 1  
     5    1    2 2  
     6    2   12 1  
     7    2   13 2  
     8    3    4 1  
     9    4    5 2  
    10    4    6 1  
    11    4   11 1  
    12    6    7 1  
    13    9   14 1  
    14   10   15 1  
    15   11   16 1  
    16   12   17 1  
# Name:          frag3-270-2/31924
# Creation time: Sat Jun  5 12:52:42 2010


@<TRIPOS>MOLECULE
frag3-270-2/31924
   17    16     1     1     1
SMALL
USER_CHARGES


@<TRIPOS>ATOM
      1 S1         -6.0286    0.4907    0.6967 S.2        1 <1>        0.000
      2 P1         -6.5794   -1.2533    0.0958 P.3        1 <1>        0.000
      3 O1         -5.4238   -2.3123    0.2427 O.3        1 <1>        0.000
      4 P2         -4.1814   -2.2461   -0.6596 P.3        1 <1>        0.000
      5 O2         -4.5873   -2.3233   -2.0633 O.2        1 <1>        0.000
      6 O3         -3.0838   -3.3075   -0.4159 O.3        1 <1>        0.000
      7 P3         -1.7373   -3.2807   -1.1784 P.3        1 <1>        0.000
      8 O4         -0.7644   -4.2499   -0.7204 O.2        1 <1>        0.000
      9 O5         -1.1648   -1.8134   -1.0141 O.3        1 <1>        0.000
     10 O9         -2.0762   -3.4249   -2.7267 O.3        1 <1>        0.000
     11 O10        -3.4495   -0.8245   -0.4103 O.3        1 <1>        0.000
     12 O11        -7.9046   -1.7944    0.7745 O.3        1 <1>        0.000
     13 O12        -6.8581   -1.2215   -1.3514 O.2        1 <1>        0.000
     14 H          -1.8179   -1.1801   -1.3207 H.spc      1 <1>        0.000
     15 H          -2.7233   -2.7606   -2.9747 H.spc      1 <1>        0.000
     16 H          -3.1783   -0.7623    0.5085 H.spc      1 <1>        0.000
     17 H          -8.1106   -2.6639    0.4235 H.spc      1 <1>        0.000
@<TRIPOS>BOND
     1    7    9 1  
     2    7    8 2  
     3    7   10 1  
     4    2    3 1  
     5    1    2 2  
     6    2   12 1  
     7    2   13 2  
     8    3    4 1  
     9    4    5 2  
    10    4    6 1  
    11    4   11 1  
    12    6    7 1  
    13    9   14 1  
    14   10   15 1  
    15   11   16 1  
    16   12   17 1  
# Name:          frag3-270-2/31924
# Creation time: Sat Jun  5 12:52:42 2010


@<TRIPOS>MOLECULE
frag3-270-2/31924
   17    16     1     1     1
SMALL
USER_CHARGES


@<TRIPOS>ATOM
      1 S1         -5.1318    0.4807    1.2206 S.2        1 <1>        0.000
      2 P1         -5.5623   -1.0205    0.1463 P.3        1 <1>        0.000
      3 O1         -4.8375   -1.1236   -1.2570 O.3        1 <1>        0.000
      4 P2         -4.5817   -2.4656   -1.9760 P.3        1 <1>        0.000
      5 O2         -5.8381   -3.0452   -2.3653 O.2        1 <1>        0.000
      6 O3         -3.8199   -3.3447   -0.9144 O.3        1 <1>        0.000
      7 P3         -2.4253   -2.8775   -0.3546 P.3        1 <1>        0.000
      8 O4         -2.5796   -1.5307    0.1441 O.2        1 <1>        0.000
      9 O5         -1.4650   -2.8803   -1.5998 O.3        1 <1>        0.000
     10 O9         -1.8451   -3.8704    0.6933 O.3        1 <1>        0.000
     11 O10        -3.6804   -2.3630   -3.2704 O.3        1 <1>        0.000
     12 O11        -5.0862   -2.3908    0.9222 O.3        1 <1>        0.000
     13 O12        -6.9861   -1.1295   -0.1194 O.2        1 <1>        0.000
     14 H          -1.3675   -3.7782   -1.9253 H.spc      1 <1>        0.000
     15 H          -1.7689   -4.7422    0.2986 H.spc      1 <1>        0.000
     16 H          -2.8321   -1.9779   -3.0386 H.spc      1 <1>        0.000
     17 H          -5.3021   -3.1545    0.3820 H.spc      1 <1>        0.000
@<TRIPOS>BOND
     1    7    9 1  
     2    7    8 2  
     3    7   10 1  
     4    2    3 1  
     5    1    2 2  
     6    2   12 1  
     7    2   13 2  
     8    3    4 1  
     9    4    5 2  
    10    4    6 1  
    11    4   11 1  
    12    6    7 1  
    13    9   14 1  
    14   10   15 1  
    15   11   16 1  
    16   12   17 1  
# Name:          frag3-270-2/31924
# Creation time: Sat Jun  5 12:52:42 2010


@<TRIPOS>MOLECULE
frag3-270-2/31924
   17    16     1     1     1
SMALL
USER_CHARGES


@<TRIPOS>ATOM
      1 S1         -7.0139   -0.3562   -1.4518 S.2        1 <1>        0.000
      2 P1         -5.9747   -0.8745    0.0824 P.3        1 <1>        0.000
      3 O1         -5.4655   -2.3621   -0.0471 O.3        1 <1>        0.000
      4 P2         -4.6305   -2.8224   -1.2787 P.3        1 <1>        0.000
      5 O2         -5.4451   -3.3760   -2.3357 O.2        1 <1>        0.000
      6 O3         -3.4508   -3.7208   -0.8614 O.3        1 <1>        0.000
      7 P3         -2.0182   -3.1472   -0.6691 P.3        1 <1>        0.000
      8 O4         -2.1566   -1.7988   -0.0985 O.2        1 <1>        0.000
      9 O5         -1.3586   -3.0199   -2.0944 O.3        1 <1>        0.000
     10 O9         -1.0509   -3.9685    0.2412 O.3        1 <1>        0.000
     11 O10        -3.9044   -1.4524   -1.8032 O.3        1 <1>        0.000
     12 O11        -4.6452    0.0377    0.2693 O.3        1 <1>        0.000
     13 O12        -6.7248   -0.6999    1.3168 O.2        1 <1>        0.000
     14 H          -1.2617   -3.8937   -2.4801 H.spc      1 <1>        0.000
     15 H          -0.9493   -4.8531   -0.1178 H.spc      1 <1>        0.000
     16 H          -3.3643   -1.0878   -1.0983 H.spc      1 <1>        0.000
     17 H          -4.1620   -0.2580    1.0443 H.spc      1 <1>        0.000
@<TRIPOS>BOND
     1    7    9 1  
     2    7    8 2  
     3    7   10 1  
     4    2    3 1  
     5    1    2 2  
     6    2   12 1  
     7    2   13 2  
     8    3    4 1  
     9    4    5 2  
    10    4    6 1  
    11    4   11 1  
    12    6    7 1  
    13    9   14 1  
    14   10   15 1  
    15   11   16 1  
    16   12   17 1  
# Name:          frag3-270-2/31924
# Creation time: Sat Jun  5 12:52:43 2010


@<TRIPOS>MOLECULE
frag3-270-2/31924
   17    16     1     1     1
SMALL
USER_CHARGES


@<TRIPOS>ATOM
      1 S1         -7.2022   -0.6550   -0.0948 S.2        1 <1>        0.000
      2 P1         -5.3413   -0.9841    0.2145 P.3        1 <1>        0.000
      3 O1         -4.9509   -2.4769   -0.1186 O.3        1 <1>        0.000
      4 P2         -4.8084   -2.9887   -1.6001 P.3        1 <1>        0.000
      5 O2         -5.5894   -4.1825   -1.8499 O.2        1 <1>        0.000
      6 O3         -3.2848   -3.1937   -1.8108 O.3        1 <1>        0.000
      7 P3         -2.2448   -2.7153   -0.7449 P.3        1 <1>        0.000
      8 O4         -2.2485   -1.2656   -0.6901 O.2        1 <1>        0.000
      9 O5         -0.8368   -3.2894   -0.9926 O.3        1 <1>        0.000
     10 O9         -2.7528   -3.3372    0.6461 O.3        1 <1>        0.000
     11 O10        -5.2538   -1.7630   -2.5111 O.3        1 <1>        0.000
     12 O11        -4.3831   -0.0808   -0.7453 O.3        1 <1>        0.000
     13 O12        -4.9422   -0.6289    1.5672 O.2        1 <1>        0.000
     14 H          -0.8837   -4.2478   -1.0209 H.spc      1 <1>        0.000
     15 H          -2.7430   -4.2955    0.5894 H.spc      1 <1>        0.000
     16 H          -4.7080   -0.9998   -2.3079 H.spc      1 <1>        0.000
     17 H          -3.4633   -0.2792   -0.5551 H.spc      1 <1>        0.000
@<TRIPOS>BOND
     1    7    9 1  
     2    7    8 2  
     3    7   10 1  
     4    2    3 1  
     5    1    2 2  
     6    2   12 1  
     7    2   13 2  
     8    3    4 1  
     9    4    5 2  
    10    4    6 1  
    11    4   11 1  
    12    6    7 1  
    13    9   14 1  
    14   10   15 1  
    15   11   16 1  
    16   12   17 1  
# Name:          frag3-270-2/31924
# Creation time: Sat Jun  5 12:52:43 2010


@<TRIPOS>MOLECULE
frag3-270-2/31924
   17    16     1     1     1
SMALL
USER_CHARGES


@<TRIPOS>ATOM
      1 S1         -5.0337   -0.0044    0.9299 S.2        1 <1>        0.000
      2 P1         -6.3368   -1.0712   -0.0152 P.3        1 <1>        0.000
      3 O1         -5.8009   -2.5327   -0.2709 O.3        1 <1>        0.000
      4 P2         -4.4843   -2.7573   -1.0334 P.3        1 <1>        0.000
      5 O2         -4.3672   -4.0454   -1.6900 O.2        1 <1>        0.000
      6 O3         -3.2139   -2.5579   -0.1355 O.3        1 <1>        0.000
      7 P3         -1.7810   -2.7744   -0.6944 P.3        1 <1>        0.000
      8 O4         -0.7315   -2.1586    0.0900 O.2        1 <1>        0.000
      9 O5         -1.8089   -2.1552   -2.1526 O.3        1 <1>        0.000
     10 O9         -1.5847   -4.3362   -0.8923 O.3        1 <1>        0.000
     11 O10        -4.4032   -1.5721   -2.1335 O.3        1 <1>        0.000
     12 O11        -7.7690   -1.0876    0.6387 O.3        1 <1>        0.000
     13 O12        -6.5239   -0.5078   -1.3713 O.2        1 <1>        0.000
     14 H          -2.5081   -2.5711   -2.6623 H.spc      1 <1>        0.000
     15 H          -2.3087   -4.6845   -1.4177 H.spc      1 <1>        0.000
     16 H          -4.4812   -0.7226   -1.6933 H.spc      1 <1>        0.000
     17 H          -8.3539   -1.6368    0.1116 H.spc      1 <1>        0.000
@<TRIPOS>BOND
     1    7    9 1  
     2    7    8 2  
     3    7   10 1  
     4    2    3 1  
     5    1    2 2  
     6    2   12 1  
     7    2   13 2  
     8    3    4 1  
     9    4    5 2  
    10    4    6 1  
    11    4   11 1  
    12    6    7 1  
    13    9   14 1  
    14   10   15 1  
    15   11   16 1  
    16   12   17 1  
# Name:          frag3-270-2/31924
# Creation time: Sat Jun  5 12:52:43 2010


@<TRIPOS>MOLECULE
frag3-270-2/31924
   17    16     1     1     1
SMALL
USER_CHARGES


@<TRIPOS>ATOM
      1 S1         -6.8441   -0.0734    1.8394 S.2        1 <1>        0.000
      2 P1         -6.2585   -0.8514    0.2292 P.3        1 <1>        0.000
      3 O1         -5.0610   -1.8745    0.3106 O.3        1 <1>        0.000
      4 P2         -4.3391   -2.4497   -0.9177 P.3        1 <1>        0.000
      5 O2         -4.3309   -3.8976   -0.9234 O.2        1 <1>        0.000
      6 O3         -2.8676   -1.9750   -1.0216 O.3        1 <1>        0.000
      7 P3         -1.7248   -3.0207   -1.2022 P.3        1 <1>        0.000
      8 O4         -2.0719   -3.8740   -2.3156 O.2        1 <1>        0.000
      9 O5         -1.7068   -3.8617    0.1366 O.3        1 <1>        0.000
     10 O9         -0.3244   -2.3445   -1.3370 O.3        1 <1>        0.000
     11 O10        -5.1400   -1.8828   -2.1872 O.3        1 <1>        0.000
     12 O11        -7.4011   -1.6305   -0.6101 O.3        1 <1>        0.000
     13 O12        -5.7690    0.1747   -0.7315 O.2        1 <1>        0.000
     14 H          -1.4755   -3.2878    0.8706 H.spc      1 <1>        0.000
     15 H          -0.1601   -1.7953   -0.5670 H.spc      1 <1>        0.000
     16 H          -5.1341   -0.9231   -2.1654 H.spc      1 <1>        0.000
     17 H          -7.0165   -1.9936   -1.4113 H.spc      1 <1>        0.000
@<TRIPOS>BOND
     1    7    9 1  
     2    7    8 2  
     3    7   10 1  
     4    2    3 1  
     5    1    2 2  
     6    2   12 1  
     7    2   13 2  
     8    3    4 1  
     9    4    5 2  
    10    4    6 1  
    11    4   11 1  
    12    6    7 1  
    13    9   14 1  
    14   10   15 1  
    15   11   16 1  
    16   12   17 1  
# Name:          frag3-270-2/31924
# Creation time: Sat Jun  5 12:52:43 2010


@<TRIPOS>MOLECULE
frag3-270-2/31924
   17    16     1     1     1
SMALL
USER_CHARGES


@<TRIPOS>ATOM
      1 S1         -7.0155   -0.0042   -1.2942 S.2        1 <1>        0.000
      2 P1         -6.2604   -0.9757    0.1765 P.3        1 <1>        0.000
      3 O1         -4.7388   -1.2871   -0.0558 O.3        1 <1>        0.000
      4 P2         -4.3055   -2.2563   -1.1951 P.3        1 <1>        0.000
      5 O2         -5.4967   -2.7828   -1.8104 O.2        1 <1>        0.000
      6 O3         -3.3667   -3.3458   -0.6495 O.3        1 <1>        0.000
      7 P3         -1.8222   -3.2249   -0.7720 P.3        1 <1>        0.000
      8 O4         -1.4275   -1.9395   -0.2444 O.2        1 <1>        0.000
      9 O5         -1.5290   -3.2468   -2.3319 O.3        1 <1>        0.000
     10 O9         -1.0480   -4.4329   -0.1785 O.3        1 <1>        0.000
     11 O10        -3.4469   -1.4158   -2.2565 O.3        1 <1>        0.000
     12 O11        -6.5092   -0.3309    1.6021 O.3        1 <1>        0.000
     13 O12        -6.8727   -2.3184    0.2792 O.2        1 <1>        0.000
     14 H          -1.7880   -4.0977   -2.6931 H.spc      1 <1>        0.000
     15 H          -1.3680   -5.2446   -0.5790 H.spc      1 <1>        0.000
     16 H          -2.6584   -1.0734   -1.8292 H.spc      1 <1>        0.000
     17 H          -6.0997   -0.8788    2.2757 H.spc      1 <1>        0.000
@<TRIPOS>BOND
     1    7    9 1  
     2    7    8 2  
     3    7   10 1  
     4    2    3 1  
     5    1    2 2  
     6    2   12 1  
     7    2   13 2  
     8    3    4 1  
     9    4    5 2  
    10    4    6 1  
    11    4   11 1  
    12    6    7 1  
    13    9   14 1  
    14   10   15 1  
    15   11   16 1  
    16   12   17 1  
# Name:          frag3-270-2/31924
# Creation time: Sat Jun  5 12:52:43 2010


@<TRIPOS>MOLECULE
frag3-270-2/31924
   17    16     1     1     1
SMALL
USER_CHARGES


@<TRIPOS>ATOM
      1 S1         -5.5836   -0.2356    1.7845 S.2        1 <1>        0.000
      2 P1         -5.4683   -0.9476    0.0349 P.3        1 <1>        0.000
      3 O1         -5.1503   -2.4829   -0.1195 O.3        1 <1>        0.000
      4 P2         -4.7383   -3.1402   -1.4730 P.3        1 <1>        0.000
      5 O2         -4.6011   -4.5737   -1.3897 O.2        1 <1>        0.000
      6 O3         -3.3398   -2.5133   -1.7839 O.3        1 <1>        0.000
      7 P3         -2.2248   -2.4634   -0.6914 P.3        1 <1>        0.000
      8 O4         -2.7712   -1.8480    0.5003 O.2        1 <1>        0.000
      9 O5         -0.9459   -1.7499   -1.1688 O.3        1 <1>        0.000
     10 O9         -1.8413   -3.9942   -0.4173 O.3        1 <1>        0.000
     11 O10        -5.8274   -2.6642   -2.5044 O.3        1 <1>        0.000
     12 O11        -6.8922   -0.6916   -0.7240 O.3        1 <1>        0.000
     13 O12        -4.4548   -0.2562   -0.7781 O.2        1 <1>        0.000
     14 H          -0.6140   -2.1844   -1.9579 H.spc      1 <1>        0.000
     15 H          -1.4819   -4.3814   -1.2189 H.spc      1 <1>        0.000
     16 H          -5.8653   -1.7050   -2.5083 H.spc      1 <1>        0.000
     17 H          -6.8478   -1.0484   -1.6141 H.spc      1 <1>        0.000
@<TRIPOS>BOND
     1    7    9 1  
     2    7    8 2  
     3    7   10 1  
     4    2    3 1  
     5    1    2 2  
     6    2   12 1  
     7    2   13 2  
     8    3    4 1  
     9    4    5 2  
    10    4    6 1  
    11    4   11 1  
    12    6    7 1  
    13    9   14 1  
    14   10   15 1  
    15   11   16 1  
    16   12   17 1  
# Name:          frag3-270-2/31924
# Creation time: Sat Jun  5 12:52:43 2010


@<TRIPOS>MOLECULE
frag3-270-2/31924
   17    16     1     1     1
SMALL
USER_CHARGES


@<TRIPOS>ATOM
      1 S1         -5.9508   -0.3588    1.9854 S.2        1 <1>        0.000
      2 P1         -5.7980   -1.0243    0.2344 P.3        1 <1>        0.000
      3 O1         -4.7977   -2.2055   -0.0360 O.3        1 <1>        0.000
      4 P2         -4.5730   -2.8748   -1.4249 P.3        1 <1>        0.000
      5 O2         -4.6329   -4.3218   -1.3345 O.2        1 <1>        0.000
      6 O3         -3.1540   -2.4444   -1.8972 O.3        1 <1>        0.000
      7 P3         -1.9232   -2.5411   -0.9497 P.3        1 <1>        0.000
      8 O4         -1.3624   -1.2460   -0.6390 O.2        1 <1>        0.000
      9 O5         -0.8751   -3.5168   -1.5411 O.3        1 <1>        0.000
     10 O9         -2.5035   -3.2614    0.3674 O.3        1 <1>        0.000
     11 O10        -5.6914   -2.2632   -2.3563 O.3        1 <1>        0.000
     12 O11        -7.2003   -1.5274   -0.4119 O.3        1 <1>        0.000
     13 O12        -5.3768    0.0244   -0.7271 O.2        1 <1>        0.000
     14 H          -1.2947   -4.3594   -1.7299 H.spc      1 <1>        0.000
     15 H          -2.8679   -4.1169    0.1287 H.spc      1 <1>        0.000
     16 H          -5.6018   -1.3076   -2.3769 H.spc      1 <1>        0.000
     17 H          -7.0432   -1.8516   -1.3017 H.spc      1 <1>        0.000
@<TRIPOS>BOND
     1    7    9 1  
     2    7    8 2  
     3    7   10 1  
     4    2    3 1  
     5    1    2 2  
     6    2   12 1  
     7    2   13 2  
     8    3    4 1  
     9    4    5 2  
    10    4    6 1  
    11    4   11 1  
    12    6    7 1  
    13    9   14 1  
    14   10   15 1  
    15   11   16 1  
    16   12   17 1  
# Name:          frag3-270-2/31924
# Creation time: Sat Jun  5 12:52:43 2010


@<TRIPOS>MOLECULE
frag3-270-2/31924
   17    16     1     1     1
SMALL
USER_CHARGES


@<TRIPOS>ATOM
      1 S1         -7.0638   -1.1213    1.8057 S.2        1 <1>        0.000
      2 P1         -5.8533   -1.0229    0.3557 P.3        1 <1>        0.000
      3 O1         -4.9003   -2.2675    0.1578 O.3        1 <1>        0.000
      4 P2         -4.6088   -2.9335   -1.2227 P.3        1 <1>        0.000
      5 O2         -5.7247   -3.7513   -1.6359 O.2        1 <1>        0.000
      6 O3         -3.2425   -3.6367   -1.2075 O.3        1 <1>        0.000
      7 P3         -1.9065   -2.8316   -1.1155 P.3        1 <1>        0.000
      8 O4         -1.6364   -2.1984   -2.3876 O.2        1 <1>        0.000
      9 O5         -0.7388   -3.7185   -0.6350 O.3        1 <1>        0.000
     10 O9         -2.1644   -1.7263    0.0233 O.3        1 <1>        0.000
     11 O10        -4.4216   -1.6620   -2.2134 O.3        1 <1>        0.000
     12 O11        -6.5849   -0.8572   -1.0857 O.3        1 <1>        0.000
     13 O12        -4.9931    0.1664    0.4304 O.2        1 <1>        0.000
     14 H          -0.9658   -4.1146    0.2095 H.spc      1 <1>        0.000
     15 H          -2.3416   -2.1646    0.8588 H.spc      1 <1>        0.000
     16 H          -3.6753   -1.1351   -1.9184 H.spc      1 <1>        0.000
     17 H          -5.9206   -0.8133   -1.7773 H.spc      1 <1>        0.000
@<TRIPOS>BOND
     1    7    9 1  
     2    7    8 2  
     3    7   10 1  
     4    2    3 1  
     5    1    2 2  
     6    2   12 1  
     7    2   13 2  
     8    3    4 1  
     9    4    5 2  
    10    4    6 1  
    11    4   11 1  
    12    6    7 1  
    13    9   14 1  
    14   10   15 1  
    15   11   16 1  
    16   12   17 1  
# Name:          frag3-270-2/31924
# Creation time: Sat Jun  5 12:52:43 2010


@<TRIPOS>MOLECULE
frag3-270-2/31924
   17    16     1     1     1
SMALL
USER_CHARGES


@<TRIPOS>ATOM
      1 S1         -7.7960   -2.3376   -0.2453 S.2        1 <1>        0.000
      2 P1         -6.4210   -1.0142   -0.0576 P.3        1 <1>        0.000
      3 O1         -5.3452   -1.1131   -1.1969 O.3        1 <1>        0.000
      4 P2         -4.3021   -2.2401   -1.1799 P.3        1 <1>        0.000
      5 O2         -4.6294   -3.1588   -0.0838 O.2        1 <1>        0.000
      6 O3         -2.8452   -1.7449   -0.9424 O.3        1 <1>        0.000
      7 P3         -1.6422   -2.7231   -0.9082 P.3        1 <1>        0.000
      8 O4         -0.3439   -2.0806   -0.8617 O.2        1 <1>        0.000
      9 O5         -1.7774   -3.5739   -2.2406 O.3        1 <1>        0.000
     10 O9         -1.8812   -3.7500    0.2695 O.3        1 <1>        0.000
     11 O10        -4.2635   -3.0487   -2.5545 O.3        1 <1>        0.000
     12 O11        -6.9470    0.4746    0.0916 O.3        1 <1>        0.000
     13 O12        -5.6449   -1.2507    1.1794 O.2        1 <1>        0.000
     14 H          -2.6394   -3.9958   -2.2635 H.spc      1 <1>        0.000
     15 H          -2.7546   -4.1387    0.1814 H.spc      1 <1>        0.000
     16 H          -4.0494   -2.4479   -3.2720 H.spc      1 <1>        0.000
     17 H          -6.1989    1.0697    0.1799 H.spc      1 <1>        0.000
@<TRIPOS>BOND
     1    7    9 1  
     2    7    8 2  
     3    7   10 1  
     4    2    3 1  
     5    1    2 2  
     6    2   12 1  
     7    2   13 2  
     8    3    4 1  
     9    4    5 2  
    10    4    6 1  
    11    4   11 1  
    12    6    7 1  
    13    9   14 1  
    14   10   15 1  
    15   11   16 1  
    16   12   17 1  
# Name:          frag3-270-2/31924
# Creation time: Sat Jun  5 12:52:43 2010


@<TRIPOS>MOLECULE
frag3-270-2/31924
   17    16     1     1     1
SMALL
USER_CHARGES


@<TRIPOS>ATOM
      1 S1         -5.0771    0.5743    0.0717 S.2        1 <1>        0.000
      2 P1         -5.8047   -1.1936    0.3105 P.3        1 <1>        0.000
      3 O1         -4.8146   -2.3079   -0.2141 O.3        1 <1>        0.000
      4 P2         -4.5030   -2.4822   -1.7554 P.3        1 <1>        0.000
      5 O2         -5.5601   -3.2734   -2.3460 O.2        1 <1>        0.000
      6 O3         -3.0994   -3.0895   -1.8888 O.3        1 <1>        0.000
      7 P3         -2.0516   -2.9560   -0.7477 P.3        1 <1>        0.000
      8 O4         -2.0839   -1.5853   -0.2704 O.2        1 <1>        0.000
      9 O5         -0.6339   -3.3691   -1.1975 O.3        1 <1>        0.000
     10 O9         -2.4929   -3.9773    0.3975 O.3        1 <1>        0.000
     11 O10        -4.4666   -0.9956   -2.3235 O.3        1 <1>        0.000
     12 O11        -6.2662   -1.5293    1.7828 O.3        1 <1>        0.000
     13 O12        -6.9852   -1.3761   -0.5496 O.2        1 <1>        0.000
     14 H          -0.6494   -4.2781   -1.5060 H.spc      1 <1>        0.000
     15 H          -2.4622   -4.8735    0.0547 H.spc      1 <1>        0.000
     16 H          -3.7519   -0.5113   -1.9038 H.spc      1 <1>        0.000
     17 H          -6.6136   -2.4238    1.8120 H.spc      1 <1>        0.000
@<TRIPOS>BOND
     1    7    9 1  
     2    7    8 2  
     3    7   10 1  
     4    2    3 1  
     5    1    2 2  
     6    2   12 1  
     7    2   13 2  
     8    3    4 1  
     9    4    5 2  
    10    4    6 1  
    11    4   11 1  
    12    6    7 1  
    13    9   14 1  
    14   10   15 1  
    15   11   16 1  
    16   12   17 1  
# Name:          frag3-270-2/31924
# Creation time: Sat Jun  5 12:52:43 2010


@<TRIPOS>MOLECULE
frag3-270-2/31924
   17    16     1     1     1
SMALL
USER_CHARGES


@<TRIPOS>ATOM
      1 S1         -7.7012   -2.3644   -0.4658 S.2        1 <1>        0.000
      2 P1         -6.3660   -1.1014    0.0882 P.3        1 <1>        0.000
      3 O1         -5.2661   -0.8913   -1.0143 O.3        1 <1>        0.000
      4 P2         -4.2738   -2.0201   -1.3452 P.3        1 <1>        0.000
      5 O2         -4.8395   -3.2872   -0.8574 O.2        1 <1>        0.000
      6 O3         -2.9062   -1.8426   -0.6109 O.3        1 <1>        0.000
      7 P3         -1.7301   -2.8371   -0.8044 P.3        1 <1>        0.000
      8 O4         -0.6845   -2.2775   -1.6375 O.2        1 <1>        0.000
      9 O5         -2.3884   -4.0678   -1.5701 O.3        1 <1>        0.000
     10 O9         -1.2319   -3.4204    0.5569 O.3        1 <1>        0.000
     11 O10        -3.9147   -2.1244   -2.8783 O.3        1 <1>        0.000
     12 O11        -6.9297    0.3003    0.5648 O.3        1 <1>        0.000
     13 O12        -5.6071   -1.6272    1.2436 O.2        1 <1>        0.000
     14 H          -3.0832   -4.4467   -1.0267 H.spc      1 <1>        0.000
     15 H          -1.9799   -3.7696    1.0470 H.spc      1 <1>        0.000
     16 H          -3.5476   -1.2893   -3.1774 H.spc      1 <1>        0.000
     17 H          -6.1989    0.8670    0.8223 H.spc      1 <1>        0.000
@<TRIPOS>BOND
     1    7    9 1  
     2    7    8 2  
     3    7   10 1  
     4    2    3 1  
     5    1    2 2  
     6    2   12 1  
     7    2   13 2  
     8    3    4 1  
     9    4    5 2  
    10    4    6 1  
    11    4   11 1  
    12    6    7 1  
    13    9   14 1  
    14   10   15 1  
    15   11   16 1  
    16   12   17 1  
# Name:          frag3-270-2/31924
# Creation time: Sat Jun  5 12:52:43 2010


@<TRIPOS>MOLECULE
frag3-270-2/31924
   17    16     1     1     1
SMALL
USER_CHARGES


@<TRIPOS>ATOM
      1 S1         -6.3880    0.7410   -0.2895 S.2        1 <1>        0.000
      2 P1         -6.3428   -1.1355    0.1008 P.3        1 <1>        0.000
      3 O1         -5.8064   -1.9900   -1.1065 O.3        1 <1>        0.000
      4 P2         -4.3073   -2.0616   -1.4297 P.3        1 <1>        0.000
      5 O2         -3.9749   -2.2706   -2.8256 O.2        1 <1>        0.000
      6 O3         -3.5855   -3.1731   -0.5860 O.3        1 <1>        0.000
      7 P3         -2.0649   -3.4679   -0.7716 P.3        1 <1>        0.000
      8 O4         -1.4638   -4.1865    0.3264 O.2        1 <1>        0.000
      9 O5         -1.3868   -2.0439   -0.9331 O.3        1 <1>        0.000
     10 O9         -1.8914   -4.1936   -2.1722 O.3        1 <1>        0.000
     11 O10        -3.6637   -0.6675   -0.9119 O.3        1 <1>        0.000
     12 O11        -5.3269   -1.4794    1.3324 O.3        1 <1>        0.000
     13 O12        -7.6368   -1.6324    0.5362 O.2        1 <1>        0.000
     14 H          -1.7955   -1.5774   -1.6658 H.spc      1 <1>        0.000
     15 H          -2.3106   -3.6682   -2.8576 H.spc      1 <1>        0.000
     16 H          -3.8881   -0.5365    0.0123 H.spc      1 <1>        0.000
     17 H          -5.3329   -2.4253    1.4960 H.spc      1 <1>        0.000
@<TRIPOS>BOND
     1    7    9 1  
     2    7    8 2  
     3    7   10 1  
     4    2    3 1  
     5    1    2 2  
     6    2   12 1  
     7    2   13 2  
     8    3    4 1  
     9    4    5 2  
    10    4    6 1  
    11    4   11 1  
    12    6    7 1  
    13    9   14 1  
    14   10   15 1  
    15   11   16 1  
    16   12   17 1  
# Name:          frag3-270-2/31924
# Creation time: Sat Jun  5 12:52:43 2010


@<TRIPOS>MOLECULE
frag3-270-2/31924
   17    16     1     1     1
SMALL
USER_CHARGES


@<TRIPOS>ATOM
      1 S1         -7.4787   -0.1607    1.3938 S.2        1 <1>        0.000
      2 P1         -6.4878   -0.9409   -0.0236 P.3        1 <1>        0.000
      3 O1         -4.9746   -1.2441    0.2716 O.3        1 <1>        0.000
      4 P2         -4.1020   -2.1773   -0.5734 P.3        1 <1>        0.000
      5 O2         -4.6554   -3.5341   -0.5068 O.2        1 <1>        0.000
      6 O3         -2.6027   -2.2357   -0.2321 O.3        1 <1>        0.000
      7 P3         -1.6042   -3.0311   -1.1140 P.3        1 <1>        0.000
      8 O4         -0.7575   -2.1561   -1.8961 O.2        1 <1>        0.000
      9 O5         -2.5226   -3.8826   -2.0948 O.3        1 <1>        0.000
     10 O9         -0.8202   -4.0836   -0.2530 O.3        1 <1>        0.000
     11 O10        -4.2355   -1.6156   -2.0739 O.3        1 <1>        0.000
     12 O11        -7.0997   -2.3929   -0.3988 O.3        1 <1>        0.000
     13 O12        -6.4980   -0.1062   -1.2294 O.2        1 <1>        0.000
     14 H          -3.0859   -4.4645   -1.5793 H.spc      1 <1>        0.000
     15 H          -1.4448   -4.6249    0.2353 H.spc      1 <1>        0.000
     16 H          -3.8729   -0.7277   -2.1155 H.spc      1 <1>        0.000
     17 H          -6.5909   -2.7776   -1.1163 H.spc      1 <1>        0.000
@<TRIPOS>BOND
     1    7    9 1  
     2    7    8 2  
     3    7   10 1  
     4    2    3 1  
     5    1    2 2  
     6    2   12 1  
     7    2   13 2  
     8    3    4 1  
     9    4    5 2  
    10    4    6 1  
    11    4   11 1  
    12    6    7 1  
    13    9   14 1  
    14   10   15 1  
    15   11   16 1  
    16   12   17 1  
# Name:          frag3-270-2/31924
# Creation time: Sat Jun  5 12:52:43 2010


@<TRIPOS>MOLECULE
frag3-270-2/31924
   17    16     1     1     1
SMALL
USER_CHARGES


@<TRIPOS>ATOM
      1 S1         -4.5562    0.0117    1.0972 S.2        1 <1>        0.000
      2 P1         -5.8133   -1.1473    0.2220 P.3        1 <1>        0.000
      3 O1         -5.5987   -1.2098   -1.3348 O.3        1 <1>        0.000
      4 P2         -4.4398   -2.0181   -1.9801 P.3        1 <1>        0.000
      5 O2         -4.7382   -3.4361   -1.7658 O.2        1 <1>        0.000
      6 O3         -3.1341   -1.7543   -1.1497 O.3        1 <1>        0.000
      7 P3         -2.2792   -2.9272   -0.5800 P.3        1 <1>        0.000
      8 O4         -1.9749   -3.8254   -1.6732 O.2        1 <1>        0.000
      9 O5         -3.1958   -3.6688    0.4704 O.3        1 <1>        0.000
     10 O9         -1.0241   -2.4385    0.2064 O.3        1 <1>        0.000
     11 O10        -4.2267   -1.6676   -3.4769 O.3        1 <1>        0.000
     12 O11        -5.6733   -2.6881    0.7021 O.3        1 <1>        0.000
     13 O12        -7.1848   -0.7915    0.5320 O.2        1 <1>        0.000
     14 H          -3.3972   -3.0723    1.1952 H.spc      1 <1>        0.000
     15 H          -1.2997   -1.8497    0.9128 H.spc      1 <1>        0.000
     16 H          -4.0351   -0.7307   -3.5609 H.spc      1 <1>        0.000
     17 H          -6.3194   -3.2263    0.2391 H.spc      1 <1>        0.000
@<TRIPOS>BOND
     1    7    9 1  
     2    7    8 2  
     3    7   10 1  
     4    2    3 1  
     5    1    2 2  
     6    2   12 1  
     7    2   13 2  
     8    3    4 1  
     9    4    5 2  
    10    4    6 1  
    11    4   11 1  
    12    6    7 1  
    13    9   14 1  
    14   10   15 1  
    15   11   16 1  
    16   12   17 1  
# Name:          frag3-270-2/31924
# Creation time: Sat Jun  5 12:52:43 2010


@<TRIPOS>MOLECULE
frag3-270-2/31924
   17    16     1     1     1
SMALL
USER_CHARGES


@<TRIPOS>ATOM
      1 S1         -7.3230   -0.7227    1.6408 S.2        1 <1>        0.000
      2 P1         -6.1717   -0.9499    0.1617 P.3        1 <1>        0.000
      3 O1         -5.1722   -2.1685    0.2203 O.3        1 <1>        0.000
      4 P2         -4.4369   -2.7144   -1.0122 P.3        1 <1>        0.000
      5 O2         -4.0581   -4.1151   -0.8950 O.2        1 <1>        0.000
      6 O3         -3.1054   -1.9172   -1.2256 O.3        1 <1>        0.000
      7 P3         -1.7264   -2.6166   -1.0648 P.3        1 <1>        0.000
      8 O4         -0.5881   -1.7689   -1.3186 O.2        1 <1>        0.000
      9 O5         -1.7618   -3.8283   -2.0761 O.3        1 <1>        0.000
     10 O9         -1.7249   -3.2571    0.3940 O.3        1 <1>        0.000
     11 O10        -5.3736   -2.4805   -2.2690 O.3        1 <1>        0.000
     12 O11        -7.0470   -1.2533   -1.1822 O.3        1 <1>        0.000
     13 O12        -5.3499    0.2316   -0.1037 O.2        1 <1>        0.000
     14 H          -2.5263   -4.3779   -1.8887 H.spc      1 <1>        0.000
     15 H          -2.5038   -3.8079    0.5012 H.spc      1 <1>        0.000
     16 H          -5.6083   -1.5512   -2.3232 H.spc      1 <1>        0.000
     17 H          -6.4550   -1.3675   -1.9293 H.spc      1 <1>        0.000
@<TRIPOS>BOND
     1    7    9 1  
     2    7    8 2  
     3    7   10 1  
     4    2    3 1  
     5    1    2 2  
     6    2   12 1  
     7    2   13 2  
     8    3    4 1  
     9    4    5 2  
    10    4    6 1  
    11    4   11 1  
    12    6    7 1  
    13    9   14 1  
    14   10   15 1  
    15   11   16 1  
    16   12   17 1  
# Name:          frag3-270-2/31924
# Creation time: Sat Jun  5 12:52:43 2010


@<TRIPOS>MOLECULE
frag3-270-2/31924
   17    16     1     1     1
SMALL
USER_CHARGES


@<TRIPOS>ATOM
      1 S1         -7.8369   -2.1390    0.0627 S.2        1 <1>        0.000
      2 P1         -6.4198   -0.8723   -0.1281 P.3        1 <1>        0.000
      3 O1         -5.0320   -1.4340    0.3458 O.3        1 <1>        0.000
      4 P2         -4.2261   -2.4159   -0.5251 P.3        1 <1>        0.000
      5 O2         -3.9963   -3.7091    0.1095 O.2        1 <1>        0.000
      6 O3         -2.8369   -1.8572   -0.9458 O.3        1 <1>        0.000
      7 P3         -1.6236   -2.7988   -1.1293 P.3        1 <1>        0.000
      8 O4         -0.4339   -2.1692   -1.6493 O.2        1 <1>        0.000
      9 O5         -2.1101   -3.9489   -2.1061 O.3        1 <1>        0.000
     10 O9         -1.3636   -3.5455    0.2571 O.3        1 <1>        0.000
     11 O10        -5.0792   -2.6172   -1.8748 O.3        1 <1>        0.000
     12 O11        -6.1719   -0.4385   -1.6905 O.3        1 <1>        0.000
     13 O12        -6.7088    0.3844    0.5433 O.2        1 <1>        0.000
     14 H          -2.9012   -4.3581   -1.7478 H.spc      1 <1>        0.000
     15 H          -2.1809   -3.9468    0.5613 H.spc      1 <1>        0.000
     16 H          -5.2277   -1.7637   -2.2885 H.spc      1 <1>        0.000
     17 H          -5.4533    0.1965   -1.7349 H.spc      1 <1>        0.000
@<TRIPOS>BOND
     1    7    9 1  
     2    7    8 2  
     3    7   10 1  
     4    2    3 1  
     5    1    2 2  
     6    2   12 1  
     7    2   13 2  
     8    3    4 1  
     9    4    5 2  
    10    4    6 1  
    11    4   11 1  
    12    6    7 1  
    13    9   14 1  
    14   10   15 1  
    15   11   16 1  
    16   12   17 1  
# Name:          frag3-270-2/31924
# Creation time: Sat Jun  5 12:52:43 2010


@<TRIPOS>MOLECULE
frag3-270-2/31924
   17    16     1     1     1
SMALL
USER_CHARGES


@<TRIPOS>ATOM
      1 S1         -6.3850    0.7857    0.7878 S.2        1 <1>        0.000
      2 P1         -5.9801   -0.9739    0.2124 P.3        1 <1>        0.000
      3 O1         -4.6554   -1.1570   -0.6155 O.3        1 <1>        0.000
      4 P2         -4.4461   -2.3382   -1.5948 P.3        1 <1>        0.000
      5 O2         -5.7283   -2.8556   -1.9570 O.2        1 <1>        0.000
      6 O3         -3.5501   -3.3787   -0.8615 O.3        1 <1>        0.000
      7 P3         -2.0206   -3.1259   -0.6421 P.3        1 <1>        0.000
      8 O4         -1.8705   -1.8045   -0.0855 O.2        1 <1>        0.000
      9 O5         -1.3974   -3.1351   -2.1011 O.3        1 <1>        0.000
     10 O9         -1.3356   -4.2568    0.1646 O.3        1 <1>        0.000
     11 O10        -3.6044   -1.8677   -2.8567 O.3        1 <1>        0.000
     12 O11        -5.8415   -1.9624    1.4874 O.3        1 <1>        0.000
     13 O12        -7.0241   -1.4908   -0.6685 O.2        1 <1>        0.000
     14 H          -1.4915   -4.0110   -2.4825 H.spc      1 <1>        0.000
     15 H          -1.4850   -5.0973   -0.2745 H.spc      1 <1>        0.000
     16 H          -2.7547   -1.5293   -2.5651 H.spc      1 <1>        0.000
     17 H          -5.6366   -2.8493    1.1825 H.spc      1 <1>        0.000
@<TRIPOS>BOND
     1    7    9 1  
     2    7    8 2  
     3    7   10 1  
     4    2    3 1  
     5    1    2 2  
     6    2   12 1  
     7    2   13 2  
     8    3    4 1  
     9    4    5 2  
    10    4    6 1  
    11    4   11 1  
    12    6    7 1  
    13    9   14 1  
    14   10   15 1  
    15   11   16 1  
    16   12   17 1  
# Name:          frag3-270-2/31924
# Creation time: Sat Jun  5 12:52:43 2010


@<TRIPOS>MOLECULE
frag3-270-2/31924
   17    16     1     1     1
SMALL
USER_CHARGES


@<TRIPOS>ATOM
      1 S1         -5.8284   -0.9067    2.0952 S.2        1 <1>        0.000
      2 P1         -5.4720   -1.0897    0.2602 P.3        1 <1>        0.000
      3 O1         -5.1997   -2.5404   -0.3055 O.3        1 <1>        0.000
      4 P2         -4.7238   -2.8571   -1.7542 P.3        1 <1>        0.000
      5 O2         -4.6672   -4.2583   -2.0639 O.2        1 <1>        0.000
      6 O3         -3.2742   -2.2676   -1.7987 O.3        1 <1>        0.000
      7 P3         -2.2425   -2.6248   -0.6729 P.3        1 <1>        0.000
      8 O4         -2.8671   -3.6565    0.1336 O.2        1 <1>        0.000
      9 O5         -1.9776   -1.3606    0.2019 O.3        1 <1>        0.000
     10 O9         -0.8805   -3.0701   -1.2970 O.3        1 <1>        0.000
     11 O10        -5.6753   -2.0321   -2.7041 O.3        1 <1>        0.000
     12 O11        -6.7288   -0.5895   -0.6528 O.3        1 <1>        0.000
     13 O12        -4.3019   -0.3075   -0.1722 O.2        1 <1>        0.000
     14 H          -1.5645   -0.6813   -0.3362 H.spc      1 <1>        0.000
     15 H          -0.5172   -2.3495   -1.8169 H.spc      1 <1>        0.000
     16 H          -5.6653   -1.1087   -2.4417 H.spc      1 <1>        0.000
     17 H          -6.5112   -0.6975   -1.5815 H.spc      1 <1>        0.000
@<TRIPOS>BOND
     1    7    9 1  
     2    7    8 2  
     3    7   10 1  
     4    2    3 1  
     5    1    2 2  
     6    2   12 1  
     7    2   13 2  
     8    3    4 1  
     9    4    5 2  
    10    4    6 1  
    11    4   11 1  
    12    6    7 1  
    13    9   14 1  
    14   10   15 1  
    15   11   16 1  
    16   12   17 1  
# Name:          frag3-270-2/31924
# Creation time: Sat Jun  5 12:52:43 2010


@<TRIPOS>MOLECULE
frag3-270-2/31924
   17    16     1     1     1
SMALL
USER_CHARGES


@<TRIPOS>ATOM
      1 S1         -7.7120    0.0866    0.1842 S.2        1 <1>        0.000
      2 P1         -6.0944   -0.8824    0.1630 P.3        1 <1>        0.000
      3 O1         -5.3849   -1.0573   -1.2159 O.3        1 <1>        0.000
      4 P2         -4.4370   -2.2060   -1.5451 P.3        1 <1>        0.000
      5 O2         -5.1478   -3.4720   -1.5256 O.2        1 <1>        0.000
      6 O3         -3.3097   -2.2747   -0.4503 O.3        1 <1>        0.000
      7 P3         -1.9878   -3.0505   -0.6637 P.3        1 <1>        0.000
      8 O4         -0.8168   -2.4050   -0.1064 O.2        1 <1>        0.000
      9 O5         -1.8282   -3.1269   -2.2417 O.3        1 <1>        0.000
     10 O9         -2.1647   -4.5482   -0.2318 O.3        1 <1>        0.000
     11 O10        -3.6778   -1.9891   -2.9098 O.3        1 <1>        0.000
     12 O11        -4.9791   -0.3574    1.2024 O.3        1 <1>        0.000
     13 O12        -6.2989   -2.2780    0.6103 O.2        1 <1>        0.000
     14 H          -2.6004   -3.5537   -2.6200 H.spc      1 <1>        0.000
     15 H          -2.9574   -4.9058   -0.6383 H.spc      1 <1>        0.000
     16 H          -3.2199   -1.1456   -2.8894 H.spc      1 <1>        0.000
     17 H          -4.1920   -0.9019    1.1276 H.spc      1 <1>        0.000
@<TRIPOS>BOND
     1    7    9 1  
     2    7    8 2  
     3    7   10 1  
     4    2    3 1  
     5    1    2 2  
     6    2   12 1  
     7    2   13 2  
     8    3    4 1  
     9    4    5 2  
    10    4    6 1  
    11    4   11 1  
    12    6    7 1  
    13    9   14 1  
    14   10   15 1  
    15   11   16 1  
    16   12   17 1  
# Name:          frag3-270-2/31924
# Creation time: Sat Jun  5 12:52:43 2010


@<TRIPOS>MOLECULE
frag3-270-2/31924
   17    16     1     1     1
SMALL
USER_CHARGES


@<TRIPOS>ATOM
      1 S1         -7.8809   -0.8752    1.0381 S.2        1 <1>        0.000
      2 P1         -6.2880   -0.8154   -0.0135 P.3        1 <1>        0.000
      3 O1         -5.1503   -1.7930    0.4437 O.3        1 <1>        0.000
      4 P2         -4.3365   -2.6601   -0.5240 P.3        1 <1>        0.000
      5 O2         -5.0600   -3.8581   -0.9098 O.2        1 <1>        0.000
      6 O3         -2.9029   -2.9915   -0.0632 O.3        1 <1>        0.000
      7 P3         -1.7024   -2.9716   -1.0604 P.3        1 <1>        0.000
      8 O4         -1.7240   -1.6978   -1.7656 O.2        1 <1>        0.000
      9 O5         -1.9568   -4.1439   -2.0831 O.3        1 <1>        0.000
     10 O9         -0.3418   -3.2624   -0.3509 O.3        1 <1>        0.000
     11 O10        -4.1020   -1.7317   -1.8374 O.3        1 <1>        0.000
     12 O11        -6.6648   -1.2918   -1.5223 O.3        1 <1>        0.000
     13 O12        -5.7288    0.5314   -0.0821 O.2        1 <1>        0.000
     14 H          -1.9422   -4.9828   -1.6166 H.spc      1 <1>        0.000
     15 H          -0.3894   -4.1117    0.0942 H.spc      1 <1>        0.000
     16 H          -3.6236   -0.9383   -1.5858 H.spc      1 <1>        0.000
     17 H          -5.8766   -1.2694   -2.0699 H.spc      1 <1>        0.000
@<TRIPOS>BOND
     1    7    9 1  
     2    7    8 2  
     3    7   10 1  
     4    2    3 1  
     5    1    2 2  
     6    2   12 1  
     7    2   13 2  
     8    3    4 1  
     9    4    5 2  
    10    4    6 1  
    11    4   11 1  
    12    6    7 1  
    13    9   14 1  
    14   10   15 1  
    15   11   16 1  
    16   12   17 1  
# Name:          frag3-270-2/31924 -- energy: 0.807557
# Creation time: Sat Jun  5 12:52:43 2010


@<TRIPOS>MOLECULE
frag3-270-2/31924 -- energy: 0.807557
   17    16     1     1     1
SMALL
USER_CHARGES


@<TRIPOS>ATOM
      1 S1         -5.4741    0.5261    1.2830 S.2        1 <1>        0.000
      2 P1         -5.5116   -1.0410    0.2210 P.3        1 <1>        0.000
      3 O1         -4.5796   -1.0826   -1.0486 O.3        1 <1>        0.000
      4 P2         -4.4837   -2.2935   -2.0278 P.3        1 <1>        0.000
      5 O2         -5.3575   -3.3209   -1.4518 O.2        1 <1>        0.000
      6 O3         -3.0218   -2.8223   -1.9460 O.3        1 <1>        0.000
      7 P3         -2.2717   -2.9208   -0.5820 P.3        1 <1>        0.000
      8 O4         -2.2400   -1.5919    0.0209 O.2        1 <1>        0.000
      9 O5         -0.8474   -3.5027   -0.7452 O.3        1 <1>        0.000
     10 O9         -3.1044   -3.9413    0.3095 O.3        1 <1>        0.000
     11 O10        -4.8894   -1.8878   -3.4744 O.3        1 <1>        0.000
     12 O11        -5.1950   -2.3980    1.0388 O.3        1 <1>        0.000
     13 O12        -6.8628   -1.2844   -0.3278 O.2        1 <1>        0.000
     14 H          -0.9028   -4.3746   -1.1432 H.spc      1 <1>        0.000
     15 H          -3.1072   -4.8040   -0.1117 H.spc      1 <1>        0.000
     16 H          -4.2853   -1.2157   -3.7984 H.spc      1 <1>        0.000
     17 H          -5.2313   -3.1472    0.4397 H.spc      1 <1>        0.000
@<TRIPOS>BOND
     1    7    9 1  
     2    7    8 2  
     3    7   10 1  
     4    2    3 1  
     5    1    2 2  
     6    2   12 1  
     7    2   13 2  
     8    3    4 1  
     9    4    5 2  
    10    4    6 1  
    11    4   11 1  
    12    6    7 1  
    13    9   14 1  
    14   10   15 1  
    15   11   16 1  
    16   12   17 1  
# Name:          frag3-270-2/31924 -- energy: -1.274219
# Creation time: Sat Jun  5 12:52:43 2010


@<TRIPOS>MOLECULE
frag3-270-2/31924 -- energy: -1.274219
   17    16     1     1     1
SMALL
USER_CHARGES


@<TRIPOS>ATOM
      1 S1         -5.0335   -0.1875    1.8303 S.2        1 <1>        0.000
      2 P1         -5.5715   -1.2031    0.3332 P.3        1 <1>        0.000
      3 O1         -4.6386   -1.1688   -0.9404 O.3        1 <1>        0.000
      4 P2         -4.5726   -2.3208   -1.9985 P.3        1 <1>        0.000
      5 O2         -5.9036   -2.8753   -2.0982 O.2        1 <1>        0.000
      6 O3         -3.5650   -3.3548   -1.3702 O.3        1 <1>        0.000
      7 P3         -2.2795   -2.8447   -0.6228 P.3        1 <1>        0.000
      8 O4         -1.7931   -1.6861   -1.3469 O.2        1 <1>        0.000
      9 O5         -1.2012   -3.9445   -0.5226 O.3        1 <1>        0.000
     10 O9         -2.7038   -2.4680    0.8649 O.3        1 <1>        0.000
     11 O10        -3.9689   -1.8620   -3.3627 O.3        1 <1>        0.000
     12 O11        -5.7001   -2.8119    0.6468 O.3        1 <1>        0.000
     13 O12        -6.9076   -0.8334   -0.1434 O.2        1 <1>        0.000
     14 H          -1.5548   -4.6946   -0.0390 H.spc      1 <1>        0.000
     15 H          -3.0201   -3.2547    1.3152 H.spc      1 <1>        0.000
     16 H          -3.0887   -1.5068   -3.2186 H.spc      1 <1>        0.000
     17 H          -5.9757   -3.2711   -0.1500 H.spc      1 <1>        0.000
@<TRIPOS>BOND
     1    7    9 1  
     2    7    8 2  
     3    7   10 1  
     4    2    3 1  
     5    1    2 2  
     6    2   12 1  
     7    2   13 2  
     8    3    4 1  
     9    4    5 2  
    10    4    6 1  
    11    4   11 1  
    12    6    7 1  
    13    9   14 1  
    14   10   15 1  
    15   11   16 1  
    16   12   17 1  
# Name:          frag3-270-2/31924 -- energy: -2.492967
# Creation time: Sat Jun  5 12:52:43 2010


@<TRIPOS>MOLECULE
frag3-270-2/31924 -- energy: -2.492967
   17    16     1     1     1
SMALL
USER_CHARGES


@<TRIPOS>ATOM
      1 S1         -5.9379    0.4352    1.4776 S.2        1 <1>        0.000
      2 P1         -5.9700   -0.9071    0.1361 P.3        1 <1>        0.000
      3 O1         -4.5946   -1.5077   -0.3142 O.3        1 <1>        0.000
      4 P2         -4.4294   -2.5143   -1.4862 P.3        1 <1>        0.000
      5 O2         -4.8288   -3.8322   -1.0119 O.2        1 <1>        0.000
      6 O3         -2.9477   -2.5716   -1.9104 O.3        1 <1>        0.000
      7 P3         -1.8283   -2.8883   -0.8757 P.3        1 <1>        0.000
      8 O4         -1.6586   -1.7537    0.0038 O.2        1 <1>        0.000
      9 O5         -0.5140   -3.2869   -1.5769 O.3        1 <1>        0.000
     10 O9         -2.3567   -4.1716   -0.0835 O.3        1 <1>        0.000
     11 O10        -5.3576   -1.9931   -2.6415 O.3        1 <1>        0.000
     12 O11        -6.8409   -2.1634    0.6581 O.3        1 <1>        0.000
     13 O12        -6.5747   -0.4062   -1.1057 O.2        1 <1>        0.000
     14 H          -0.6737   -4.0415   -2.1485 H.spc      1 <1>        0.000
     15 H          -2.4581   -4.9045   -0.6952 H.spc      1 <1>        0.000
     16 H          -5.0596   -1.1250   -2.9229 H.spc      1 <1>        0.000
     17 H          -6.8580   -2.8432   -0.0196 H.spc      1 <1>        0.000
@<TRIPOS>BOND
     1    7    9 1  
     2    7    8 2  
     3    7   10 1  
     4    2    3 1  
     5    1    2 2  
     6    2   12 1  
     7    2   13 2  
     8    3    4 1  
     9    4    5 2  
    10    4    6 1  
    11    4   11 1  
    12    6    7 1  
    13    9   14 1  
    14   10   15 1  
    15   11   16 1  
    16   12   17 1  
# Name:          frag3-270-2/31924 -- energy: -0.628915
# Creation time: Sat Jun  5 12:52:43 2010


@<TRIPOS>MOLECULE
frag3-270-2/31924 -- energy: -0.628915
   17    16     1     1     1
SMALL
USER_CHARGES


@<TRIPOS>ATOM
      1 S1         -5.8388    0.2454    1.5725 S.2        1 <1>        0.000
      2 P1         -5.7856   -1.0688    0.2079 P.3        1 <1>        0.000
      3 O1         -4.4414   -1.1695   -0.6243 O.3        1 <1>        0.000
      4 P2         -4.2867   -2.0670   -1.9012 P.3        1 <1>        0.000
      5 O2         -5.2054   -3.1835   -1.7089 O.2        1 <1>        0.000
      6 O3         -2.8465   -2.6220   -1.9203 O.3        1 <1>        0.000
      7 P3         -2.1875   -3.1614   -0.6052 P.3        1 <1>        0.000
      8 O4         -3.2308   -3.2071    0.4017 O.2        1 <1>        0.000
      9 O5         -1.0638   -2.1718   -0.1592 O.3        1 <1>        0.000
     10 O9         -1.5225   -4.5599   -0.8668 O.3        1 <1>        0.000
     11 O10        -4.6224   -1.2069   -3.1580 O.3        1 <1>        0.000
     12 O11        -5.9936   -2.5483    0.8399 O.3        1 <1>        0.000
     13 O12        -6.8142   -0.8401   -0.8083 O.2        1 <1>        0.000
     14 H          -0.3770   -2.1462   -0.8294 H.spc      1 <1>        0.000
     15 H          -0.8430   -4.4692   -1.5388 H.spc      1 <1>        0.000
     16 H          -3.9876   -0.4907   -3.2331 H.spc      1 <1>        0.000
     17 H          -5.9642   -3.2021    0.1375 H.spc      1 <1>        0.000
@<TRIPOS>BOND
     1    7    9 1  
     2    7    8 2  
     3    7   10 1  
     4    2    3 1  
     5    1    2 2  
     6    2   12 1  
     7    2   13 2  
     8    3    4 1  
     9    4    5 2  
    10    4    6 1  
    11    4   11 1  
    12    6    7 1  
    13    9   14 1  
    14   10   15 1  
    15   11   16 1  
    16   12   17 1  
# Name:          frag3-270-2/31924 -- energy: -0.946790
# Creation time: Sat Jun  5 12:52:43 2010


@<TRIPOS>MOLECULE
frag3-270-2/31924 -- energy: -0.946790
   17    16     1     1     1
SMALL
USER_CHARGES


@<TRIPOS>ATOM
      1 S1         -7.1950   -0.2267    0.5286 S.2        1 <1>        0.000
      2 P1         -5.5236   -1.1055    0.3838 P.3        1 <1>        0.000
      3 O1         -4.8265   -0.9816   -1.0285 O.3        1 <1>        0.000
      4 P2         -4.6288   -2.2131   -1.9656 P.3        1 <1>        0.000
      5 O2         -5.9018   -2.7065   -2.4220 O.2        1 <1>        0.000
      6 O3         -3.8703   -3.2496   -1.0448 O.3        1 <1>        0.000
      7 P3         -2.3879   -2.9969   -0.6067 P.3        1 <1>        0.000
      8 O4         -2.1324   -1.5825   -0.8480 O.2        1 <1>        0.000
      9 O5         -1.4656   -3.8586   -1.5243 O.3        1 <1>        0.000
     10 O9         -2.1426   -3.4102    0.8793 O.3        1 <1>        0.000
     11 O10        -3.6108   -1.9053   -3.1309 O.3        1 <1>        0.000
     12 O11        -4.4567   -0.7439    1.5203 O.3        1 <1>        0.000
     13 O12        -5.6972   -2.5806    0.5283 O.2        1 <1>        0.000
     14 H          -1.6358   -4.7896   -1.3634 H.spc      1 <1>        0.000
     15 H          -2.3243   -4.3470    0.9839 H.spc      1 <1>        0.000
     16 H          -2.7875   -1.5818   -2.7579 H.spc      1 <1>        0.000
     17 H          -3.6462   -1.2343    1.3645 H.spc      1 <1>        0.000
@<TRIPOS>BOND
     1    7    9 1  
     2    7    8 2  
     3    7   10 1  
     4    2    3 1  
     5    1    2 2  
     6    2   12 1  
     7    2   13 2  
     8    3    4 1  
     9    4    5 2  
    10    4    6 1  
    11    4   11 1  
    12    6    7 1  
    13    9   14 1  
    14   10   15 1  
    15   11   16 1  
    16   12   17 1  
# Name:          frag3-270-2/31924 -- energy: 2.614645
# Creation time: Sat Jun  5 12:52:43 2010


@<TRIPOS>MOLECULE
frag3-270-2/31924 -- energy: 2.614645
   17    16     1     1     1
SMALL
USER_CHARGES


@<TRIPOS>ATOM
      1 S1         -7.5763   -1.4270    1.0309 S.2        1 <1>        0.000
      2 P1         -5.8861   -1.0995    0.2416 P.3        1 <1>        0.000
      3 O1         -5.7549   -1.5158   -1.2738 O.3        1 <1>        0.000
      4 P2         -4.5914   -2.3682   -1.8079 P.3        1 <1>        0.000
      5 O2         -4.6479   -3.7093   -1.1995 O.2        1 <1>        0.000
      6 O3         -3.2377   -1.7419   -1.2553 O.3        1 <1>        0.000
      7 P3         -2.0921   -2.6497   -0.7073 P.3        1 <1>        0.000
      8 O4         -0.7894   -2.0041   -0.6855 O.2        1 <1>        0.000
      9 O5         -2.0642   -3.8954   -1.6843 O.3        1 <1>        0.000
     10 O9         -2.5358   -3.2081    0.7025 O.3        1 <1>        0.000
     11 O10        -4.4759   -2.4383   -3.3621 O.3        1 <1>        0.000
     12 O11        -5.3539    0.4080    0.3677 O.3        1 <1>        0.000
     13 O12        -4.8335   -1.9118    0.9026 O.2        1 <1>        0.000
     14 H          -2.9280   -4.3143   -1.6916 H.spc      1 <1>        0.000
     15 H          -3.3991   -3.6208    0.6247 H.spc      1 <1>        0.000
     16 H          -4.4418   -1.5481   -3.7198 H.spc      1 <1>        0.000
     17 H          -4.4964    0.4801   -0.0578 H.spc      1 <1>        0.000
@<TRIPOS>BOND
     1    7    9 1  
     2    7    8 2  
     3    7   10 1  
     4    2    3 1  
     5    1    2 2  
     6    2   12 1  
     7    2   13 2  
     8    3    4 1  
     9    4    5 2  
    10    4    6 1  
    11    4   11 1  
    12    6    7 1  
    13    9   14 1  
    14   10   15 1  
    15   11   16 1  
    16   12   17 1  
# Name:          frag3-270-2/31924 -- energy: -2.239359
# Creation time: Sat Jun  5 12:52:43 2010


@<TRIPOS>MOLECULE
frag3-270-2/31924 -- energy: -2.239359
   17    16     1     1     1
SMALL
USER_CHARGES


@<TRIPOS>ATOM
      1 S1         -5.7375    0.1704    1.7014 S.2        1 <1>        0.000
      2 P1         -5.8709   -1.2015    0.4090 P.3        1 <1>        0.000
      3 O1         -4.5514   -1.6990   -0.2695 O.3        1 <1>        0.000
      4 P2         -4.4749   -2.3742   -1.6781 P.3        1 <1>        0.000
      5 O2         -5.7458   -3.0491   -1.8540 O.2        1 <1>        0.000
      6 O3         -3.2615   -3.3264   -1.6812 O.3        1 <1>        0.000
      7 P3         -1.9460   -2.9664   -0.9373 P.3        1 <1>        0.000
      8 O4         -1.3382   -1.8152   -1.5777 O.2        1 <1>        0.000
      9 O5         -0.9754   -4.1593   -0.8310 O.3        1 <1>        0.000
     10 O9         -2.3910   -2.6164    0.5650 O.3        1 <1>        0.000
     11 O10        -4.2175   -1.2405   -2.7426 O.3        1 <1>        0.000
     12 O11        -6.6504   -2.5196    0.9152 O.3        1 <1>        0.000
     13 O12        -6.6786   -0.7638   -0.7499 O.2        1 <1>        0.000
     14 H          -1.4196   -4.8946   -0.4025 H.spc      1 <1>        0.000
     15 H          -2.7897   -3.3911    0.9681 H.spc      1 <1>        0.000
     16 H          -3.3647   -0.8330   -2.5745 H.spc      1 <1>        0.000
     17 H          -6.6763   -3.1666    0.2065 H.spc      1 <1>        0.000
@<TRIPOS>BOND
     1    7    9 1  
     2    7    8 2  
     3    7   10 1  
     4    2    3 1  
     5    1    2 2  
     6    2   12 1  
     7    2   13 2  
     8    3    4 1  
     9    4    5 2  
    10    4    6 1  
    11    4   11 1  
    12    6    7 1  
    13    9   14 1  
    14   10   15 1  
    15   11   16 1  
    16   12   17 1  
# Name:          frag3-270-2/31924 -- energy: -1.035352
# Creation time: Sat Jun  5 12:52:43 2010


@<TRIPOS>MOLECULE
frag3-270-2/31924 -- energy: -1.035352
   17    16     1     1     1
SMALL
USER_CHARGES


@<TRIPOS>ATOM
      1 S1         -4.8694   -0.9803    1.5591 S.2        1 <1>        0.000
      2 P1         -6.0620   -1.0477    0.0522 P.3        1 <1>        0.000
      3 O1         -5.2969   -1.1938   -1.3112 O.3        1 <1>        0.000
      4 P2         -4.5068   -2.4875   -1.6326 P.3        1 <1>        0.000
      5 O2         -5.4251   -3.5798   -1.8584 O.2        1 <1>        0.000
      6 O3         -3.5661   -2.7941   -0.4107 O.3        1 <1>        0.000
      7 P3         -2.0137   -2.7048   -0.5295 P.3        1 <1>        0.000
      8 O4         -1.6803   -1.3943   -1.0560 O.2        1 <1>        0.000
      9 O5         -1.6328   -3.7981   -1.6100 O.3        1 <1>        0.000
     10 O9         -1.2742   -3.0859    0.7799 O.3        1 <1>        0.000
     11 O10        -3.5048   -2.2755   -2.8389 O.3        1 <1>        0.000
     12 O11        -7.0625   -2.3220    0.1062 O.3        1 <1>        0.000
     13 O12        -6.9446    0.1028    0.0196 O.2        1 <1>        0.000
     14 H          -1.8495   -4.6699   -1.2716 H.spc      1 <1>        0.000
     15 H          -1.5502   -3.9621    1.0585 H.spc      1 <1>        0.000
     16 H          -2.9183   -1.5417   -2.6411 H.spc      1 <1>        0.000
     17 H          -7.6350   -2.3108   -0.6643 H.spc      1 <1>        0.000
@<TRIPOS>BOND
     1    7    9 1  
     2    7    8 2  
     3    7   10 1  
     4    2    3 1  
     5    1    2 2  
     6    2   12 1  
     7    2   13 2  
     8    3    4 1  
     9    4    5 2  
    10    4    6 1  
    11    4   11 1  
    12    6    7 1  
    13    9   14 1  
    14   10   15 1  
    15   11   16 1  
    16   12   17 1  
# Name:          frag3-270-2/31924 -- energy: -2.872437
# Creation time: Sat Jun  5 12:52:43 2010


@<TRIPOS>MOLECULE
frag3-270-2/31924 -- energy: -2.872437
   17    16     1     1     1
SMALL
USER_CHARGES


@<TRIPOS>ATOM
      1 S1         -6.0282   -2.3337    1.5550 S.2        1 <1>        0.000
      2 P1         -5.8154   -1.0209    0.1609 P.3        1 <1>        0.000
      3 O1         -4.6129   -1.3881   -0.7793 O.3        1 <1>        0.000
      4 P2         -4.5538   -2.7866   -1.5171 P.3        1 <1>        0.000
      5 O2         -5.7575   -3.4937   -1.1384 O.2        1 <1>        0.000
      6 O3         -3.2560   -3.4826   -1.0493 O.3        1 <1>        0.000
      7 P3         -1.9479   -2.6637   -0.7918 P.3        1 <1>        0.000
      8 O4         -1.8165   -1.7279   -1.8935 O.2        1 <1>        0.000
      9 O5         -0.7218   -3.5919   -0.6830 O.3        1 <1>        0.000
     10 O9         -2.1396   -1.9240    0.5975 O.3        1 <1>        0.000
     11 O10        -4.4530   -2.5388   -3.0642 O.3        1 <1>        0.000
     12 O11        -7.0796   -0.9224   -0.8363 O.3        1 <1>        0.000
     13 O12        -5.6569    0.3133    0.7089 O.2        1 <1>        0.000
     14 H          -0.8430   -4.1953    0.0538 H.spc      1 <1>        0.000
     15 H          -2.2223   -2.5761    1.2972 H.spc      1 <1>        0.000
     16 H          -3.6393   -2.0683   -3.2594 H.spc      1 <1>        0.000
     17 H          -6.9084   -0.2533   -1.5031 H.spc      1 <1>        0.000
@<TRIPOS>BOND
     1    7    9 1  
     2    7    8 2  
     3    7   10 1  
     4    2    3 1  
     5    1    2 2  
     6    2   12 1  
     7    2   13 2  
     8    3    4 1  
     9    4    5 2  
    10    4    6 1  
    11    4   11 1  
    12    6    7 1  
    13    9   14 1  
    14   10   15 1  
    15   11   16 1  
    16   12   17 1  
# Name:          frag3-270-2/31924 -- energy: 0.404120
# Creation time: Sat Jun  5 12:52:43 2010


@<TRIPOS>MOLECULE
frag3-270-2/31924 -- energy: 0.404120
   17    16     1     1     1
SMALL
USER_CHARGES


@<TRIPOS>ATOM
      1 S1         -6.0957   -0.1041    1.7646 S.2        1 <1>        0.000
      2 P1         -5.7779   -0.9233    0.0904 P.3        1 <1>        0.000
      3 O1         -5.0962   -2.3473    0.0958 O.3        1 <1>        0.000
      4 P2         -4.6573   -3.1211   -1.1736 P.3        1 <1>        0.000
      5 O2         -5.6633   -4.0767   -1.5859 O.2        1 <1>        0.000
      6 O3         -3.2434   -3.6946   -0.9828 O.3        1 <1>        0.000
      7 P3         -2.0154   -2.7472   -0.7810 P.3        1 <1>        0.000
      8 O4         -2.5445   -1.4349   -0.4343 O.2        1 <1>        0.000
      9 O5         -1.2337   -2.6454   -2.1355 O.3        1 <1>        0.000
     10 O9         -1.0293   -3.3084    0.2966 O.3        1 <1>        0.000
     11 O10        -4.4841   -1.9681   -2.3030 O.3        1 <1>        0.000
     12 O11        -7.1031   -1.1008   -0.8246 O.3        1 <1>        0.000
     13 O12        -4.8953   -0.0891   -0.7570 O.2        1 <1>        0.000
     14 H          -0.8835   -3.5087   -2.3672 H.spc      1 <1>        0.000
     15 H          -0.7118   -4.1711    0.0198 H.spc      1 <1>        0.000
     16 H          -3.8151   -1.3411   -2.0186 H.spc      1 <1>        0.000
     17 H          -6.8641   -1.5213   -1.6539 H.spc      1 <1>        0.000
@<TRIPOS>BOND
     1    7    9 1  
     2    7    8 2  
     3    7   10 1  
     4    2    3 1  
     5    1    2 2  
     6    2   12 1  
     7    2   13 2  
     8    3    4 1  
     9    4    5 2  
    10    4    6 1  
    11    4   11 1  
    12    6    7 1  
    13    9   14 1  
    14   10   15 1  
    15   11   16 1  
    16   12   17 1  
# Name:          frag3-270-2/31924 -- energy: 0.776036
# Creation time: Sat Jun  5 12:52:43 2010


@<TRIPOS>MOLECULE
frag3-270-2/31924 -- energy: 0.776036
   17    16     1     1     1
SMALL
USER_CHARGES


@<TRIPOS>ATOM
      1 S1         -5.9738    0.4802    1.2466 S.2        1 <1>        0.000
      2 P1         -5.6066   -1.1339    0.3146 P.3        1 <1>        0.000
      3 O1         -4.8313   -1.0017   -1.0493 O.3        1 <1>        0.000
      4 P2         -4.5840   -2.2171   -1.9865 P.3        1 <1>        0.000
      5 O2         -5.8273   -2.7101   -2.4953 O.2        1 <1>        0.000
      6 O3         -3.8561   -3.2658   -1.0503 O.3        1 <1>        0.000
      7 P3         -2.3891   -3.0033   -0.5635 P.3        1 <1>        0.000
      8 O4         -2.1289   -1.5846   -0.7739 O.2        1 <1>        0.000
      9 O5         -1.4145   -3.8448   -1.4509 O.3        1 <1>        0.000
     10 O9         -2.1826   -3.4407    0.9262 O.3        1 <1>        0.000
     11 O10        -3.5227   -1.8834   -3.1118 O.3        1 <1>        0.000
     12 O11        -4.6919   -2.0901    1.2701 O.3        1 <1>        0.000
     13 O12        -6.8304   -1.8658   -0.0065 O.2        1 <1>        0.000
     14 H          -1.5847   -4.7795   -1.3134 H.spc      1 <1>        0.000
     15 H          -2.3656   -4.3792    1.0113 H.spc      1 <1>        0.000
     16 H          -2.7164   -1.5593   -2.7037 H.spc      1 <1>        0.000
     17 H          -4.4993   -2.9102    0.8097 H.spc      1 <1>        0.000
@<TRIPOS>BOND
     1    7    9 1  
     2    7    8 2  
     3    7   10 1  
     4    2    3 1  
     5    1    2 2  
     6    2   12 1  
     7    2   13 2  
     8    3    4 1  
     9    4    5 2  
    10    4    6 1  
    11    4   11 1  
    12    6    7 1  
    13    9   14 1  
    14   10   15 1  
    15   11   16 1  
    16   12   17 1  
# Name:          frag3-270-2/31924 -- energy: -2.167788
# Creation time: Sat Jun  5 12:52:43 2010


@<TRIPOS>MOLECULE
frag3-270-2/31924 -- energy: -2.167788
   17    16     1     1     1
SMALL
USER_CHARGES


@<TRIPOS>ATOM
      1 S1         -5.1062   -1.8960    1.6266 S.2        1 <1>        0.000
      2 P1         -5.8567   -1.0466    0.0589 P.3        1 <1>        0.000
      3 O1         -4.9591   -1.2608   -1.2025 O.3        1 <1>        0.000
      4 P2         -4.5630   -2.7154   -1.6425 P.3        1 <1>        0.000
      5 O2         -5.7555   -3.5230   -1.6481 O.2        1 <1>        0.000
      6 O3         -3.5025   -3.2051   -0.5984 O.3        1 <1>        0.000
      7 P3         -2.0573   -2.5891   -0.5661 P.3        1 <1>        0.000
      8 O4         -2.1543   -1.3152   -1.2629 O.2        1 <1>        0.000
      9 O5         -1.1357   -3.5548   -1.3811 O.3        1 <1>        0.000
     10 O9         -1.5218   -2.4678    0.8875 O.3        1 <1>        0.000
     11 O10        -3.8072   -2.7034   -3.0256 O.3        1 <1>        0.000
     12 O11        -7.3207   -1.6454   -0.2775 O.3        1 <1>        0.000
     13 O12        -6.0991    0.3615    0.3011 O.2        1 <1>        0.000
     14 H          -1.0706   -4.3958   -0.9228 H.spc      1 <1>        0.000
     15 H          -1.4832   -3.3399    1.2869 H.spc      1 <1>        0.000
     16 H          -3.0254   -2.1505   -2.9570 H.spc      1 <1>        0.000
     17 H          -7.6720   -1.2096   -1.0574 H.spc      1 <1>        0.000
@<TRIPOS>BOND
     1    7    9 1  
     2    7    8 2  
     3    7   10 1  
     4    2    3 1  
     5    1    2 2  
     6    2   12 1  
     7    2   13 2  
     8    3    4 1  
     9    4    5 2  
    10    4    6 1  
    11    4   11 1  
    12    6    7 1  
    13    9   14 1  
    14   10   15 1  
    15   11   16 1  
    16   12   17 1  
# Name:          frag3-270-2/31924 -- energy: -2.174758
# Creation time: Sat Jun  5 12:52:43 2010


@<TRIPOS>MOLECULE
frag3-270-2/31924 -- energy: -2.174758
   17    16     1     1     1
SMALL
USER_CHARGES


@<TRIPOS>ATOM
      1 S1         -7.2734   -1.9499    0.3540 S.2        1 <1>        0.000
      2 P1         -5.5675   -1.0657    0.2666 P.3        1 <1>        0.000
      3 O1         -4.9647   -1.1409   -1.1931 O.3        1 <1>        0.000
      4 P2         -4.6927   -2.5446   -1.8505 P.3        1 <1>        0.000
      5 O2         -5.9247   -3.2535   -2.0494 O.2        1 <1>        0.000
      6 O3         -3.7434   -3.2624   -0.8156 O.3        1 <1>        0.000
      7 P3         -2.2835   -2.7335   -0.5755 P.3        1 <1>        0.000
      8 O4         -2.2592   -1.3563   -1.0540 O.2        1 <1>        0.000
      9 O5         -1.3274   -3.6008   -1.4723 O.3        1 <1>        0.000
     10 O9         -1.8196   -2.8845    0.9027 O.3        1 <1>        0.000
     11 O10        -3.8290   -2.3968   -3.1645 O.3        1 <1>        0.000
     12 O11        -5.5660    0.4200    0.8115 O.3        1 <1>        0.000
     13 O12        -4.5878   -1.7919    1.1097 O.2        1 <1>        0.000
     14 H          -1.3379   -4.5097   -1.1634 H.spc      1 <1>        0.000
     15 H          -1.8582   -3.8096    1.1561 H.spc      1 <1>        0.000
     16 H          -3.0227   -1.9159   -2.9637 H.spc      1 <1>        0.000
     17 H          -4.6826    0.7875    0.7331 H.spc      1 <1>        0.000
@<TRIPOS>BOND
     1    7    9 1  
     2    7    8 2  
     3    7   10 1  
     4    2    3 1  
     5    1    2 2  
     6    2   12 1  
     7    2   13 2  
     8    3    4 1  
     9    4    5 2  
    10    4    6 1  
    11    4   11 1  
    12    6    7 1  
    13    9   14 1  
    14   10   15 1  
    15   11   16 1  
    16   12   17 1  
# Name:          frag3-270-2/31924 -- energy: -1.840829
# Creation time: Sat Jun  5 12:52:43 2010


@<TRIPOS>MOLECULE
frag3-270-2/31924 -- energy: -1.840829
   17    16     1     1     1
SMALL
USER_CHARGES


@<TRIPOS>ATOM
      1 S1         -6.0930   -0.5020    2.1833 S.2        1 <1>        0.000
      2 P1         -5.9910   -1.1458    0.4072 P.3        1 <1>        0.000
      3 O1         -4.8195   -2.1443    0.0678 O.3        1 <1>        0.000
      4 P2         -4.5245   -2.6900   -1.3621 P.3        1 <1>        0.000
      5 O2         -5.7101   -3.3654   -1.8447 O.2        1 <1>        0.000
      6 O3         -3.2415   -3.5344   -1.3709 O.3        1 <1>        0.000
      7 P3         -1.8509   -2.8957   -1.1114 P.3        1 <1>        0.000
      8 O4         -1.4034   -2.1763   -2.2852 O.2        1 <1>        0.000
      9 O5         -0.8067   -3.9218   -0.6199 O.3        1 <1>        0.000
     10 O9         -2.0613   -1.8732    0.1192 O.3        1 <1>        0.000
     11 O10        -4.1938   -1.3927   -2.2476 O.3        1 <1>        0.000
     12 O11        -7.3311   -1.8798   -0.1113 O.3        1 <1>        0.000
     13 O12        -5.8123   -0.0395   -0.5548 O.2        1 <1>        0.000
     14 H          -1.1445   -4.3734    0.1570 H.spc      1 <1>        0.000
     15 H          -2.3577   -2.3604    0.8915 H.spc      1 <1>        0.000
     16 H          -3.4048   -0.9659   -1.9056 H.spc      1 <1>        0.000
     17 H          -7.2026   -2.1769   -1.0151 H.spc      1 <1>        0.000
@<TRIPOS>BOND
     1    7    9 1  
     2    7    8 2  
     3    7   10 1  
     4    2    3 1  
     5    1    2 2  
     6    2   12 1  
     7    2   13 2  
     8    3    4 1  
     9    4    5 2  
    10    4    6 1  
    11    4   11 1  
    12    6    7 1  
    13    9   14 1  
    14   10   15 1  
    15   11   16 1  
    16   12   17 1  
# Name:          frag3-270-2/31924 -- energy: -1.775114
# Creation time: Sat Jun  5 12:52:43 2010


@<TRIPOS>MOLECULE
frag3-270-2/31924 -- energy: -1.775114
   17    16     1     1     1
SMALL
USER_CHARGES


@<TRIPOS>ATOM
      1 S1         -7.7161   -0.0652    0.3383 S.2        1 <1>        0.000
      2 P1         -6.0975   -1.0337    0.3092 P.3        1 <1>        0.000
      3 O1         -5.1657   -0.8169   -0.9326 O.3        1 <1>        0.000
      4 P2         -4.3512   -1.9401   -1.5827 P.3        1 <1>        0.000
      5 O2         -5.2317   -2.9374   -2.1573 O.2        1 <1>        0.000
      6 O3         -3.4753   -2.6159   -0.4589 O.3        1 <1>        0.000
      7 P3         -2.0509   -3.1696   -0.7761 P.3        1 <1>        0.000
      8 O4         -1.2585   -2.0768   -1.3070 O.2        1 <1>        0.000
      9 O5         -2.2596   -4.2631   -1.8894 O.3        1 <1>        0.000
     10 O9         -1.4018   -3.8836    0.4473 O.3        1 <1>        0.000
     11 O10        -3.3022   -1.3928   -2.6240 O.3        1 <1>        0.000
     12 O11        -5.1792   -0.8692    1.6246 O.3        1 <1>        0.000
     13 O12        -6.3493   -2.4966    0.2782 O.2        1 <1>        0.000
     14 H          -2.7843   -4.9841   -1.5338 H.spc      1 <1>        0.000
     15 H          -1.9771   -4.5920    0.7452 H.spc      1 <1>        0.000
     16 H          -2.7435   -0.7377   -2.1995 H.spc      1 <1>        0.000
     17 H          -4.3811   -1.3931    1.5239 H.spc      1 <1>        0.000
@<TRIPOS>BOND
     1    7    9 1  
     2    7    8 2  
     3    7   10 1  
     4    2    3 1  
     5    1    2 2  
     6    2   12 1  
     7    2   13 2  
     8    3    4 1  
     9    4    5 2  
    10    4    6 1  
    11    4   11 1  
    12    6    7 1  
    13    9   14 1  
    14   10   15 1  
    15   11   16 1  
    16   12   17 1  
# Name:          frag3-270-2/31924 -- energy: -0.363554
# Creation time: Sat Jun  5 12:52:43 2010


@<TRIPOS>MOLECULE
frag3-270-2/31924 -- energy: -0.363554
   17    16     1     1     1
SMALL
USER_CHARGES


@<TRIPOS>ATOM
      1 S1         -7.5742   -2.0758    0.2167 S.2        1 <1>        0.000
      2 P1         -5.9963   -0.9911    0.1721 P.3        1 <1>        0.000
      3 O1         -5.2302   -1.1219   -1.1968 O.3        1 <1>        0.000
      4 P2         -4.5533   -2.4599   -1.5820 P.3        1 <1>        0.000
      5 O2         -5.5232   -3.5127   -1.7414 O.2        1 <1>        0.000
      6 O3         -3.5358   -2.8016   -0.4307 O.3        1 <1>        0.000
      7 P3         -1.9966   -2.7803   -0.6634 P.3        1 <1>        0.000
      8 O4         -1.6476   -1.4858   -1.2140 O.2        1 <1>        0.000
      9 O5         -1.7399   -3.8891   -1.7643 O.3        1 <1>        0.000
     10 O9         -1.1814   -3.1917    0.5918 O.3        1 <1>        0.000
     11 O10        -3.6294   -2.2878   -2.8596 O.3        1 <1>        0.000
     12 O11        -6.2156    0.5252    0.5711 O.3        1 <1>        0.000
     13 O12        -5.0158   -1.4884    1.1702 O.2        1 <1>        0.000
     14 H          -1.9685   -4.7509   -1.4083 H.spc      1 <1>        0.000
     15 H          -1.4723   -4.0560    0.8918 H.spc      1 <1>        0.000
     16 H          -3.0020   -1.5775   -2.7061 H.spc      1 <1>        0.000
     17 H          -5.3783    0.9922    0.5218 H.spc      1 <1>        0.000
@<TRIPOS>BOND
     1    7    9 1  
     2    7    8 2  
     3    7   10 1  
     4    2    3 1  
     5    1    2 2  
     6    2   12 1  
     7    2   13 2  
     8    3    4 1  
     9    4    5 2  
    10    4    6 1  
    11    4   11 1  
    12    6    7 1  
    13    9   14 1  
    14   10   15 1  
    15   11   16 1  
    16   12   17 1  
# Name:          frag3-270-2/31924 -- energy: -0.678124
# Creation time: Sat Jun  5 12:52:43 2010


@<TRIPOS>MOLECULE
frag3-270-2/31924 -- energy: -0.678124
   17    16     1     1     1
SMALL
USER_CHARGES


@<TRIPOS>ATOM
      1 S1         -6.1567   -1.4013    1.6421 S.2        1 <1>        0.000
      2 P1         -5.9976   -0.8175   -0.1892 P.3        1 <1>        0.000
      3 O1         -4.6845   -1.3613   -0.8553 O.3        1 <1>        0.000
      4 P2         -4.4876   -2.8995   -1.1355 P.3        1 <1>        0.000
      5 O2         -5.7136   -3.5550   -0.7168 O.2        1 <1>        0.000
      6 O3         -3.2261   -3.3789   -0.3887 O.3        1 <1>        0.000
      7 P3         -1.8522   -2.6834   -0.6250 P.3        1 <1>        0.000
      8 O4         -1.9836   -1.2742   -0.3184 O.2        1 <1>        0.000
      9 O5         -1.5691   -2.8384   -2.1830 O.3        1 <1>        0.000
     10 O9         -0.6862   -3.3952    0.1194 O.3        1 <1>        0.000
     11 O10        -4.2328   -3.0763   -2.6919 O.3        1 <1>        0.000
     12 O11        -7.1641   -1.5060   -1.0833 O.3        1 <1>        0.000
     13 O12        -6.0850    0.6260   -0.3047 O.2        1 <1>        0.000
     14 H          -1.4798   -3.7693   -2.3998 H.spc      1 <1>        0.000
     15 H          -0.6638   -4.3208   -0.1343 H.spc      1 <1>        0.000
     16 H          -3.4168   -2.6322   -2.9339 H.spc      1 <1>        0.000
     17 H          -7.0823   -1.2136   -1.9940 H.spc      1 <1>        0.000
@<TRIPOS>BOND
     1    7    9 1  
     2    7    8 2  
     3    7   10 1  
     4    2    3 1  
     5    1    2 2  
     6    2   12 1  
     7    2   13 2  
     8    3    4 1  
     9    4    5 2  
    10    4    6 1  
    11    4   11 1  
    12    6    7 1  
    13    9   14 1  
    14   10   15 1  
    15   11   16 1  
    16   12   17 1  
# Name:          frag3-270-2/31924 -- energy: -1.149099
# Creation time: Sat Jun  5 12:52:43 2010


@<TRIPOS>MOLECULE
frag3-270-2/31924 -- energy: -1.149099
   17    16     1     1     1
SMALL
USER_CHARGES


@<TRIPOS>ATOM
      1 S1         -6.5134   -1.4941    1.6799 S.2        1 <1>        0.000
      2 P1         -6.2895   -0.8453   -0.1257 P.3        1 <1>        0.000
      3 O1         -4.8415   -1.1166   -0.6576 O.3        1 <1>        0.000
      4 P2         -4.3604   -2.5696   -0.9619 P.3        1 <1>        0.000
      5 O2         -5.4831   -3.4609   -0.7058 O.2        1 <1>        0.000
      6 O3         -3.0990   -2.9338   -0.1547 O.3        1 <1>        0.000
      7 P3         -1.6850   -2.8113   -0.7877 P.3        1 <1>        0.000
      8 O4         -1.5490   -1.4759   -1.3444 O.2        1 <1>        0.000
      9 O5         -1.6731   -3.8583   -1.9818 O.3        1 <1>        0.000
     10 O9         -0.5241   -3.2255    0.1577 O.3        1 <1>        0.000
     11 O10        -3.9526   -2.6205   -2.5044 O.3        1 <1>        0.000
     12 O11        -7.2383   -1.7129   -1.1112 O.3        1 <1>        0.000
     13 O12        -6.6301    0.5639   -0.2328 O.2        1 <1>        0.000
     14 H          -1.7623   -4.7463   -1.6282 H.spc      1 <1>        0.000
     15 H          -0.6813   -4.1141    0.4853 H.spc      1 <1>        0.000
     16 H          -3.2123   -2.0289   -2.6582 H.spc      1 <1>        0.000
     17 H          -7.1346   -1.3983   -2.0122 H.spc      1 <1>        0.000
@<TRIPOS>BOND
     1    7    9 1  
     2    7    8 2  
     3    7   10 1  
     4    2    3 1  
     5    1    2 2  
     6    2   12 1  
     7    2   13 2  
     8    3    4 1  
     9    4    5 2  
    10    4    6 1  
    11    4   11 1  
    12    6    7 1  
    13    9   14 1  
    14   10   15 1  
    15   11   16 1  
    16   12   17 1  
# Name:          frag3-270-2/31924 -- energy: 0.102884
# Creation time: Sat Jun  5 12:52:43 2010


@<TRIPOS>MOLECULE
frag3-270-2/31924 -- energy: 0.102884
   17    16     1     1     1
SMALL
USER_CHARGES


@<TRIPOS>ATOM
      1 S1         -5.5465   -1.1914    1.7166 S.2        1 <1>        0.000
      2 P1         -6.3655   -1.1185   -0.0215 P.3        1 <1>        0.000
      3 O1         -5.2975   -0.9671   -1.1635 O.3        1 <1>        0.000
      4 P2         -4.2720   -2.0844   -1.4400 P.3        1 <1>        0.000
      5 O2         -4.5512   -3.1811   -0.4792 O.2        1 <1>        0.000
      6 O3         -2.7872   -1.6868   -1.1856 O.3        1 <1>        0.000
      7 P3         -1.7146   -2.7402   -0.7880 P.3        1 <1>        0.000
      8 O4         -0.3761   -2.4048   -1.2351 O.2        1 <1>        0.000
      9 O5         -2.1966   -4.0820   -1.4799 O.3        1 <1>        0.000
     10 O9         -1.8217   -2.9695    0.7712 O.3        1 <1>        0.000
     11 O10        -4.3855   -2.6282   -2.9175 O.3        1 <1>        0.000
     12 O11        -7.1815   -2.4643   -0.3984 O.3        1 <1>        0.000
     13 O12        -7.3431   -0.0426   -0.1096 O.2        1 <1>        0.000
     14 H          -3.0825   -4.2959   -1.1783 H.spc      1 <1>        0.000
     15 H          -2.7283   -3.1868    1.0000 H.spc      1 <1>        0.000
     16 H          -4.2041   -1.9154   -3.5344 H.spc      1 <1>        0.000
     17 H          -7.5663   -2.3696   -1.2728 H.spc      1 <1>        0.000
@<TRIPOS>BOND
     1    7    9 1  
     2    7    8 2  
     3    7   10 1  
     4    2    3 1  
     5    1    2 2  
     6    2   12 1  
     7    2   13 2  
     8    3    4 1  
     9    4    5 2  
    10    4    6 1  
    11    4   11 1  
    12    6    7 1  
    13    9   14 1  
    14   10   15 1  
    15   11   16 1  
    16   12   17 1  
# Name:          frag3-270-2/31924 -- energy: -1.765713
# Creation time: Sat Jun  5 12:52:43 2010


@<TRIPOS>MOLECULE
frag3-270-2/31924 -- energy: -1.765713
   17    16     1     1     1
SMALL
USER_CHARGES


@<TRIPOS>ATOM
      1 S1         -4.8066   -0.0689    1.1620 S.2        1 <1>        0.000
      2 P1         -6.0395   -1.1183    0.1374 P.3        1 <1>        0.000
      3 O1         -5.6113   -1.2707   -1.3653 O.3        1 <1>        0.000
      4 P2         -4.4972   -2.2434   -1.7944 P.3        1 <1>        0.000
      5 O2         -5.0258   -3.4438   -2.4055 O.2        1 <1>        0.000
      6 O3         -3.6958   -2.6561   -0.4905 O.3        1 <1>        0.000
      7 P3         -2.1521   -2.8862   -0.5120 P.3        1 <1>        0.000
      8 O4         -1.5444   -1.6996   -1.0892 O.2        1 <1>        0.000
      9 O5         -1.9301   -4.1147   -1.4691 O.3        1 <1>        0.000
     10 O9         -1.5915   -3.2621    0.8903 O.3        1 <1>        0.000
     11 O10        -3.3942   -1.5402   -2.6815 O.3        1 <1>        0.000
     12 O11        -6.1541   -2.6536    0.6667 O.3        1 <1>        0.000
     13 O12        -7.3964   -0.6033    0.2209 O.2        1 <1>        0.000
     14 H          -2.3332   -4.8961   -1.0837 H.spc      1 <1>        0.000
     15 H          -2.0351   -4.0511    1.2100 H.spc      1 <1>        0.000
     16 H          -3.0781   -0.7528   -2.2325 H.spc      1 <1>        0.000
     17 H          -6.7819   -3.1330    0.1211 H.spc      1 <1>        0.000
@<TRIPOS>BOND
     1    7    9 1  
     2    7    8 2  
     3    7   10 1  
     4    2    3 1  
     5    1    2 2  
     6    2   12 1  
     7    2   13 2  
     8    3    4 1  
     9    4    5 2  
    10    4    6 1  
    11    4   11 1  
    12    6    7 1  
    13    9   14 1  
    14   10   15 1  
    15   11   16 1  
    16   12   17 1  
# Name:          frag3-270-2/31924 -- energy: -1.335316
# Creation time: Sat Jun  5 12:52:43 2010


@<TRIPOS>MOLECULE
frag3-270-2/31924 -- energy: -1.335316
   17    16     1     1     1
SMALL
USER_CHARGES


@<TRIPOS>ATOM
      1 S1         -6.8753   -0.6477    1.7206 S.2        1 <1>        0.000
      2 P1         -5.9652   -0.9377    0.0867 P.3        1 <1>        0.000
      3 O1         -5.8933   -2.4353   -0.4154 O.3        1 <1>        0.000
      4 P2         -4.6968   -3.0097   -1.1787 P.3        1 <1>        0.000
      5 O2         -4.9315   -4.2639   -1.8704 O.2        1 <1>        0.000
      6 O3         -3.4440   -3.1207   -0.2498 O.3        1 <1>        0.000
      7 P3         -2.0115   -2.7113   -0.7390 P.3        1 <1>        0.000
      8 O4         -1.9880   -1.2779   -0.9839 O.2        1 <1>        0.000
      9 O5         -1.8314   -3.4723   -2.1194 O.3        1 <1>        0.000
     10 O9         -0.8873   -3.2153    0.2164 O.3        1 <1>        0.000
     11 O10        -4.2680   -1.8531   -2.2381 O.3        1 <1>        0.000
     12 O11        -6.5096   -0.0723   -1.1549 O.3        1 <1>        0.000
     13 O12        -4.5372   -0.5438    0.1954 O.2        1 <1>        0.000
     14 H          -1.8459   -4.4198   -1.9655 H.spc      1 <1>        0.000
     15 H          -0.9670   -4.1653    0.3294 H.spc      1 <1>        0.000
     16 H          -4.1161   -1.0302   -1.7676 H.spc      1 <1>        0.000
     17 H          -5.9951   -0.2800   -1.9383 H.spc      1 <1>        0.000
@<TRIPOS>BOND
     1    7    9 1  
     2    7    8 2  
     3    7   10 1  
     4    2    3 1  
     5    1    2 2  
     6    2   12 1  
     7    2   13 2  
     8    3    4 1  
     9    4    5 2  
    10    4    6 1  
    11    4   11 1  
    12    6    7 1  
    13    9   14 1  
    14   10   15 1  
    15   11   16 1  
    16   12   17 1  
# Name:          frag3-270-2/31924 -- energy: -2.062176
# Creation time: Sat Jun  5 12:52:43 2010


@<TRIPOS>MOLECULE
frag3-270-2/31924 -- energy: -2.062176
   17    16     1     1     1
SMALL
USER_CHARGES


@<TRIPOS>ATOM
      1 S1         -5.4569   -0.9455    1.7946 S.2        1 <1>        0.000
      2 P1         -6.2863   -1.1413    0.0774 P.3        1 <1>        0.000
      3 O1         -5.3091   -0.8524   -1.1090 O.3        1 <1>        0.000
      4 P2         -4.2432   -1.8748   -1.5377 P.3        1 <1>        0.000
      5 O2         -4.8443   -3.2070   -1.4281 O.2        1 <1>        0.000
      6 O3         -3.0057   -1.8897   -0.5799 O.3        1 <1>        0.000
      7 P3         -1.8947   -2.9883   -0.6906 P.3        1 <1>        0.000
      8 O4         -1.4957   -3.0472   -2.0816 O.2        1 <1>        0.000
      9 O5         -2.5917   -4.3302   -0.2721 O.3        1 <1>        0.000
     10 O9         -0.7180   -2.7009    0.2873 O.3        1 <1>        0.000
     11 O10        -3.6762   -1.6210   -2.9764 O.3        1 <1>        0.000
     12 O11        -6.8398   -2.6441   -0.1684 O.3        1 <1>        0.000
     13 O12        -7.4774   -0.3185   -0.0460 O.2        1 <1>        0.000
     14 H          -2.8517   -4.2802    0.6507 H.spc      1 <1>        0.000
     15 H          -1.0505   -2.6753    1.1875 H.spc      1 <1>        0.000
     16 H          -3.2902   -0.7429   -3.0167 H.spc      1 <1>        0.000
     17 H          -7.2455   -2.6964   -1.0369 H.spc      1 <1>        0.000
@<TRIPOS>BOND
     1    7    9 1  
     2    7    8 2  
     3    7   10 1  
     4    2    3 1  
     5    1    2 2  
     6    2   12 1  
     7    2   13 2  
     8    3    4 1  
     9    4    5 2  
    10    4    6 1  
    11    4   11 1  
    12    6    7 1  
    13    9   14 1  
    14   10   15 1  
    15   11   16 1  
    16   12   17 1  
# Name:          frag3-270-2/31924 -- energy: -2.327454
# Creation time: Sat Jun  5 12:52:43 2010


@<TRIPOS>MOLECULE
frag3-270-2/31924 -- energy: -2.327454
   17    16     1     1     1
SMALL
USER_CHARGES


@<TRIPOS>ATOM
      1 S1         -5.2910   -1.6774    1.7937 S.2        1 <1>        0.000
      2 P1         -5.9618   -1.1050    0.0815 P.3        1 <1>        0.000
      3 O1         -5.9945   -2.2955   -0.9608 O.3        1 <1>        0.000
      4 P2         -4.6886   -2.9080   -1.4935 P.3        1 <1>        0.000
      5 O2         -4.7952   -4.2399   -2.0609 O.2        1 <1>        0.000
      6 O3         -3.6115   -2.9156   -0.3456 O.3        1 <1>        0.000
      7 P3         -2.1145   -2.5369   -0.5916 P.3        1 <1>        0.000
      8 O4         -2.0456   -1.1372   -0.9758 O.2        1 <1>        0.000
      9 O5         -1.6960   -3.4339   -1.8280 O.3        1 <1>        0.000
     10 O9         -1.1869   -2.9261    0.5943 O.3        1 <1>        0.000
     11 O10        -4.0618   -1.8721   -2.5494 O.3        1 <1>        0.000
     12 O11        -7.3652   -0.3806    0.1301 O.3        1 <1>        0.000
     13 O12        -5.0265   -0.1329   -0.5245 O.2        1 <1>        0.000
     14 H          -1.7398   -4.3601   -1.5794 H.spc      1 <1>        0.000
     15 H          -1.2898   -3.8611    0.7861 H.spc      1 <1>        0.000
     16 H          -4.0038   -1.0025   -2.1470 H.spc      1 <1>        0.000
     17 H          -7.6253   -0.1293   -0.7592 H.spc      1 <1>        0.000
@<TRIPOS>BOND
     1    7    9 1  
     2    7    8 2  
     3    7   10 1  
     4    2    3 1  
     5    1    2 2  
     6    2   12 1  
     7    2   13 2  
     8    3    4 1  
     9    4    5 2  
    10    4    6 1  
    11    4   11 1  
    12    6    7 1  
    13    9   14 1  
    14   10   15 1  
    15   11   16 1  
    16   12   17 1  
# Name:          frag3-270-2/31924 -- energy: 2.166608
# Creation time: Sat Jun  5 12:52:43 2010


@<TRIPOS>MOLECULE
frag3-270-2/31924 -- energy: 2.166608
   17    16     1     1     1
SMALL
USER_CHARGES


@<TRIPOS>ATOM
      1 S1         -7.2250    0.3573    0.9745 S.2        1 <1>        0.000
      2 P1         -6.2782   -1.0990    0.1908 P.3        1 <1>        0.000
      3 O1         -4.8970   -0.7426   -0.4649 O.3        1 <1>        0.000
      4 P2         -4.1009   -1.7403   -1.3138 P.3        1 <1>        0.000
      5 O2         -4.6239   -3.0913   -0.9824 O.2        1 <1>        0.000
      6 O3         -2.5817   -1.7977   -0.9731 O.3        1 <1>        0.000
      7 P3         -1.8110   -3.1518   -0.9408 P.3        1 <1>        0.000
      8 O4         -0.3763   -3.0121   -1.0696 O.2        1 <1>        0.000
      9 O5         -2.3950   -3.9916   -2.1477 O.3        1 <1>        0.000
     10 O9         -2.2480   -3.9007    0.3915 O.3        1 <1>        0.000
     11 O10        -4.2679   -1.4536   -2.8559 O.3        1 <1>        0.000
     12 O11        -5.9718   -2.2041    1.3353 O.3        1 <1>        0.000
     13 O12        -7.0623   -1.7335   -0.8743 O.2        1 <1>        0.000
     14 H          -3.3461   -4.0750   -2.0475 H.spc      1 <1>        0.000
     15 H          -3.2054   -3.9639    0.4224 H.spc      1 <1>        0.000
     16 H          -3.9267   -0.5790   -3.0564 H.spc      1 <1>        0.000
     17 H          -5.4946   -2.9412    0.9472 H.spc      1 <1>        0.000
@<TRIPOS>BOND
     1    7    9 1  
     2    7    8 2  
     3    7   10 1  
     4    2    3 1  
     5    1    2 2  
     6    2   12 1  
     7    2   13 2  
     8    3    4 1  
     9    4    5 2  
    10    4    6 1  
    11    4   11 1  
    12    6    7 1  
    13    9   14 1  
    14   10   15 1  
    15   11   16 1  
    16   12   17 1  
# Name:          frag3-270-2/31924 -- energy: 0.665184
# Creation time: Sat Jun  5 12:52:43 2010


@<TRIPOS>MOLECULE
frag3-270-2/31924 -- energy: 0.665184
   17    16     1     1     1
SMALL
USER_CHARGES


@<TRIPOS>ATOM
      1 S1         -5.3185    0.3649    1.3128 S.2        1 <1>        0.000
      2 P1         -5.9425   -1.0145    0.1684 P.3        1 <1>        0.000
      3 O1         -5.0193   -2.2787    0.0190 O.3        1 <1>        0.000
      4 P2         -4.5624   -2.8729   -1.3399 P.3        1 <1>        0.000
      5 O2         -5.6510   -3.6379   -1.9170 O.2        1 <1>        0.000
      6 O3         -3.2347   -3.6250   -1.1849 O.3        1 <1>        0.000
      7 P3         -1.9262   -2.8802   -0.7683 P.3        1 <1>        0.000
      8 O4         -2.3407   -1.5799   -0.2568 O.2        1 <1>        0.000
      9 O5         -1.0378   -2.6850   -2.0358 O.3        1 <1>        0.000
     10 O9         -1.1391   -3.7238    0.2854 O.3        1 <1>        0.000
     11 O10        -4.1985   -1.5954   -2.2529 O.3        1 <1>        0.000
     12 O11        -7.4308   -1.5156    0.4644 O.3        1 <1>        0.000
     13 O12        -6.0376   -0.5168   -1.2248 O.2        1 <1>        0.000
     14 H          -0.7665   -3.5430   -2.3702 H.spc      1 <1>        0.000
     15 H          -0.8912   -4.5666   -0.1017 H.spc      1 <1>        0.000
     16 H          -3.4768   -1.1091   -1.8477 H.spc      1 <1>        0.000
     17 H          -7.6632   -2.2094   -0.1571 H.spc      1 <1>        0.000
@<TRIPOS>BOND
     1    7    9 1  
     2    7    8 2  
     3    7   10 1  
     4    2    3 1  
     5    1    2 2  
     6    2   12 1  
     7    2   13 2  
     8    3    4 1  
     9    4    5 2  
    10    4    6 1  
    11    4   11 1  
    12    6    7 1  
    13    9   14 1  
    14   10   15 1  
    15   11   16 1  
    16   12   17 1  
# Name:          frag3-270-2/31924 -- energy: -2.761568
# Creation time: Sat Jun  5 12:52:43 2010


@<TRIPOS>MOLECULE
frag3-270-2/31924 -- energy: -2.761568
   17    16     1     1     1
SMALL
USER_CHARGES


@<TRIPOS>ATOM
      1 S1         -7.2937   -0.5294   -0.7302 S.2        1 <1>        0.000
      2 P1         -5.5775   -0.8215    0.0940 P.3        1 <1>        0.000
      3 O1         -5.1110   -2.3202   -0.0533 O.3        1 <1>        0.000
      4 P2         -4.7224   -2.9075   -1.4567 P.3        1 <1>        0.000
      5 O2         -4.7188   -4.3543   -1.4914 O.2        1 <1>        0.000
      6 O3         -3.2529   -2.4050   -1.6904 O.3        1 <1>        0.000
      7 P3         -2.1248   -2.7533   -0.6617 P.3        1 <1>        0.000
      8 O4         -2.1876   -1.8421    0.4597 O.2        1 <1>        0.000
      9 O5         -0.7347   -2.7623   -1.3358 O.3        1 <1>        0.000
     10 O9         -2.4390   -4.2582   -0.2130 O.3        1 <1>        0.000
     11 O10        -5.6984   -2.2642   -2.5101 O.3        1 <1>        0.000
     12 O11        -4.4076    0.0568   -0.6206 O.3        1 <1>        0.000
     13 O12        -5.5708   -0.3998    1.4791 O.2        1 <1>        0.000
     14 H          -0.7410   -3.3790   -2.0715 H.spc      1 <1>        0.000
     15 H          -2.3894   -4.8360   -0.9780 H.spc      1 <1>        0.000
     16 H          -5.6577   -1.3076   -2.4399 H.spc      1 <1>        0.000
     17 H          -3.5694   -0.1140   -0.1848 H.spc      1 <1>        0.000
@<TRIPOS>BOND
     1    7    9 1  
     2    7    8 2  
     3    7   10 1  
     4    2    3 1  
     5    1    2 2  
     6    2   12 1  
     7    2   13 2  
     8    3    4 1  
     9    4    5 2  
    10    4    6 1  
    11    4   11 1  
    12    6    7 1  
    13    9   14 1  
    14   10   15 1  
    15   11   16 1  
    16   12   17 1  
# Name:          frag3-270-2/31924 -- energy: 0.820351
# Creation time: Sat Jun  5 12:52:43 2010


@<TRIPOS>MOLECULE
frag3-270-2/31924 -- energy: 0.820351
   17    16     1     1     1
SMALL
USER_CHARGES


@<TRIPOS>ATOM
      1 S1         -6.5934    0.6652    1.0816 S.2        1 <1>        0.000
      2 P1         -6.3199   -0.9451    0.1067 P.3        1 <1>        0.000
      3 O1         -4.8510   -1.5136    0.1097 O.3        1 <1>        0.000
      4 P2         -4.3430   -2.4624   -0.9888 P.3        1 <1>        0.000
      5 O2         -5.4657   -3.1985   -1.5141 O.2        1 <1>        0.000
      6 O3         -3.2006   -3.3799   -0.5021 O.3        1 <1>        0.000
      7 P3         -1.7137   -3.1084   -0.9067 P.3        1 <1>        0.000
      8 O4         -1.4328   -1.7094   -0.6548 O.2        1 <1>        0.000
      9 O5         -1.6555   -3.3629   -2.4721 O.3        1 <1>        0.000
     10 O9         -0.7140   -4.0963   -0.2477 O.3        1 <1>        0.000
     11 O10        -3.6636   -1.5576   -2.1440 O.3        1 <1>        0.000
     12 O11        -7.2472   -2.1228    0.7139 O.3        1 <1>        0.000
     13 O12        -6.6388   -0.7694   -1.3120 O.2        1 <1>        0.000
     14 H          -1.8402   -4.2876   -2.6519 H.spc      1 <1>        0.000
     15 H          -0.9683   -4.9971   -0.4612 H.spc      1 <1>        0.000
     16 H          -2.9194   -1.0760   -1.7755 H.spc      1 <1>        0.000
     17 H          -7.1028   -2.9310    0.2163 H.spc      1 <1>        0.000
@<TRIPOS>BOND
     1    7    9 1  
     2    7    8 2  
     3    7   10 1  
     4    2    3 1  
     5    1    2 2  
     6    2   12 1  
     7    2   13 2  
     8    3    4 1  
     9    4    5 2  
    10    4    6 1  
    11    4   11 1  
    12    6    7 1  
    13    9   14 1  
    14   10   15 1  
    15   11   16 1  
    16   12   17 1  
# Name:          frag3-270-2/31924 -- energy: -0.290270
# Creation time: Sat Jun  5 12:52:43 2010


@<TRIPOS>MOLECULE
frag3-270-2/31924 -- energy: -0.290270
   17    16     1     1     1
SMALL
USER_CHARGES


@<TRIPOS>ATOM
      1 S1         -5.6963    0.0828    1.8249 S.2        1 <1>        0.000
      2 P1         -5.8181   -0.9852    0.2756 P.3        1 <1>        0.000
      3 O1         -4.4886   -1.4084   -0.4418 O.3        1 <1>        0.000
      4 P2         -4.3964   -2.3063   -1.7220 P.3        1 <1>        0.000
      5 O2         -5.1541   -3.5122   -1.4244 O.2        1 <1>        0.000
      6 O3         -2.9263   -2.6684   -1.9825 O.3        1 <1>        0.000
      7 P3         -1.9958   -3.1302   -0.8313 P.3        1 <1>        0.000
      8 O4         -2.4682   -4.3851   -0.3008 O.2        1 <1>        0.000
      9 O5         -2.1354   -2.0121    0.2938 O.3        1 <1>        0.000
     10 O9         -0.4871   -3.1244   -1.2266 O.3        1 <1>        0.000
     11 O10        -5.0486   -1.4592   -2.8701 O.3        1 <1>        0.000
     12 O11        -6.6499   -2.3546    0.4719 O.3        1 <1>        0.000
     13 O12        -6.5744   -0.2977   -0.7971 O.2        1 <1>        0.000
     14 H          -1.8229   -1.1723   -0.0507 H.spc      1 <1>        0.000
     15 H          -0.2505   -2.2593   -1.5691 H.spc      1 <1>        0.000
     16 H          -4.5162   -0.6767   -3.0309 H.spc      1 <1>        0.000
     17 H          -6.6663   -2.8393   -0.3566 H.spc      1 <1>        0.000
@<TRIPOS>BOND
     1    7    9 1  
     2    7    8 2  
     3    7   10 1  
     4    2    3 1  
     5    1    2 2  
     6    2   12 1  
     7    2   13 2  
     8    3    4 1  
     9    4    5 2  
    10    4    6 1  
    11    4   11 1  
    12    6    7 1  
    13    9   14 1  
    14   10   15 1  
    15   11   16 1  
    16   12   17 1  
# Name:          frag3-270-2/31924 -- energy: -1.759782
# Creation time: Sat Jun  5 12:52:43 2010


@<TRIPOS>MOLECULE
frag3-270-2/31924 -- energy: -1.759782
   17    16     1     1     1
SMALL
USER_CHARGES


@<TRIPOS>ATOM
      1 S1         -6.2336    0.3337    1.4705 S.2        1 <1>        0.000
      2 P1         -6.1773   -1.0836    0.2201 P.3        1 <1>        0.000
      3 O1         -5.3004   -0.8507   -1.0596 O.3        1 <1>        0.000
      4 P2         -4.2909   -1.8666   -1.6049 P.3        1 <1>        0.000
      5 O2         -5.0099   -3.0382   -2.0817 O.2        1 <1>        0.000
      6 O3         -3.3527   -2.3480   -0.4333 O.3        1 <1>        0.000
      7 P3         -2.0404   -3.1432   -0.7171 P.3        1 <1>        0.000
      8 O4         -1.2640   -2.3700   -1.6620 O.2        1 <1>        0.000
      9 O5         -2.5067   -4.4910   -1.3795 O.3        1 <1>        0.000
     10 O9         -1.2743   -3.4889    0.5936 O.3        1 <1>        0.000
     11 O10        -3.3341   -1.2538   -2.6824 O.3        1 <1>        0.000
     12 O11        -5.5524   -2.4692    0.8390 O.3        1 <1>        0.000
     13 O12        -7.5025   -1.4914   -0.2332 O.2        1 <1>        0.000
     14 H          -3.0206   -4.9967   -0.7457 H.spc      1 <1>        0.000
     15 H          -1.8456   -3.9999    1.1716 H.spc      1 <1>        0.000
     16 H          -2.8884   -0.4874   -2.3142 H.spc      1 <1>        0.000
     17 H          -5.5498   -3.1486    0.1608 H.spc      1 <1>        0.000
@<TRIPOS>BOND
     1    7    9 1  
     2    7    8 2  
     3    7   10 1  
     4    2    3 1  
     5    1    2 2  
     6    2   12 1  
     7    2   13 2  
     8    3    4 1  
     9    4    5 2  
    10    4    6 1  
    11    4   11 1  
    12    6    7 1  
    13    9   14 1  
    14   10   15 1  
    15   11   16 1  
    16   12   17 1  
# Name:          frag3-270-2/31924 -- energy: -2.023168
# Creation time: Sat Jun  5 12:52:43 2010


@<TRIPOS>MOLECULE
frag3-270-2/31924 -- energy: -2.023168
   17    16     1     1     1
SMALL
USER_CHARGES


@<TRIPOS>ATOM
      1 S1         -6.1001    0.5852   -0.2000 S.2        1 <1>        0.000
      2 P1         -5.9079   -1.2230    0.4035 P.3        1 <1>        0.000
      3 O1         -4.5916   -1.8866   -0.1398 O.3        1 <1>        0.000
      4 P2         -4.4111   -2.2161   -1.6725 P.3        1 <1>        0.000
      5 O2         -5.6787   -2.7233   -2.1408 O.2        1 <1>        0.000
      6 O3         -3.2509   -3.2141   -1.8026 O.3        1 <1>        0.000
      7 P3         -1.9925   -3.1173   -0.8918 P.3        1 <1>        0.000
      8 O4         -1.6136   -1.7187   -0.8228 O.2        1 <1>        0.000
      9 O5         -0.8363   -4.0043   -1.3895 O.3        1 <1>        0.000
     10 O9         -2.4467   -3.6656    0.5371 O.3        1 <1>        0.000
     11 O10        -3.9822   -0.8772   -2.4020 O.3        1 <1>        0.000
     12 O11        -6.0588   -1.4303    1.9650 O.3        1 <1>        0.000
     13 O12        -6.9687   -2.0698   -0.1744 O.2        1 <1>        0.000
     14 H          -1.1266   -4.9188   -1.4208 H.spc      1 <1>        0.000
     15 H          -2.6909   -4.5909    0.4607 H.spc      1 <1>        0.000
     16 H          -3.1365   -0.5825   -2.0563 H.spc      1 <1>        0.000
     17 H          -5.9483   -2.3604    2.1753 H.spc      1 <1>        0.000
@<TRIPOS>BOND
     1    7    9 1  
     2    7    8 2  
     3    7   10 1  
     4    2    3 1  
     5    1    2 2  
     6    2   12 1  
     7    2   13 2  
     8    3    4 1  
     9    4    5 2  
    10    4    6 1  
    11    4   11 1  
    12    6    7 1  
    13    9   14 1  
    14   10   15 1  
    15   11   16 1  
    16   12   17 1  
# Name:          frag3-270-2/31924 -- energy: -0.797922
# Creation time: Sat Jun  5 12:52:43 2010


@<TRIPOS>MOLECULE
frag3-270-2/31924 -- energy: -0.797922
   17    16     1     1     1
SMALL
USER_CHARGES


@<TRIPOS>ATOM
      1 S1         -6.4463   -1.9126    1.6018 S.2        1 <1>        0.000
      2 P1         -6.4751   -0.9703   -0.0767 P.3        1 <1>        0.000
      3 O1         -5.0404   -0.8836   -0.7062 O.3        1 <1>        0.000
      4 P2         -4.2298   -2.1703   -0.9665 P.3        1 <1>        0.000
      5 O2         -5.0505   -3.3100   -0.5762 O.2        1 <1>        0.000
      6 O3         -2.8698   -2.2320   -0.2347 O.3        1 <1>        0.000
      7 P3         -1.6281   -2.9064   -0.8885 P.3        1 <1>        0.000
      8 O4         -1.4388   -2.3093   -2.1976 O.2        1 <1>        0.000
      9 O5         -2.0061   -4.4274   -1.0520 O.3        1 <1>        0.000
     10 O9         -0.3673   -2.8412    0.0225 O.3        1 <1>        0.000
     11 O10        -3.8708   -2.2646   -2.5168 O.3        1 <1>        0.000
     12 O11        -7.3751   -1.6913   -1.2084 O.3        1 <1>        0.000
     13 O12        -7.0409    0.3580    0.0692 O.2        1 <1>        0.000
     14 H          -2.1308   -4.8200   -0.1849 H.spc      1 <1>        0.000
     15 H          -0.5630   -3.2521    0.8677 H.spc      1 <1>        0.000
     16 H          -3.3306   -1.5109   -2.7654 H.spc      1 <1>        0.000
     17 H          -7.3470   -1.1732   -2.0161 H.spc      1 <1>        0.000
@<TRIPOS>BOND
     1    7    9 1  
     2    7    8 2  
     3    7   10 1  
     4    2    3 1  
     5    1    2 2  
     6    2   12 1  
     7    2   13 2  
     8    3    4 1  
     9    4    5 2  
    10    4    6 1  
    11    4   11 1  
    12    6    7 1  
    13    9   14 1  
    14   10   15 1  
    15   11   16 1  
    16   12   17 1  
# Name:          frag3-270-2/31924 -- energy: -1.178089
# Creation time: Sat Jun  5 12:52:43 2010


@<TRIPOS>MOLECULE
frag3-270-2/31924 -- energy: -1.178089
   17    16     1     1     1
SMALL
USER_CHARGES


@<TRIPOS>ATOM
      1 S1         -5.7612    0.8079    0.6505 S.2        1 <1>        0.000
      2 P1         -6.0860   -1.0152    0.2264 P.3        1 <1>        0.000
      3 O1         -4.8160   -1.9030    0.0199 O.3        1 <1>        0.000
      4 P2         -4.4298   -2.5401   -1.3364 P.3        1 <1>        0.000
      5 O2         -5.6346   -3.1007   -1.9114 O.2        1 <1>        0.000
      6 O3         -3.2914   -3.5589   -1.1719 O.3        1 <1>        0.000
      7 P3         -1.8622   -3.0838   -0.7959 P.3        1 <1>        0.000
      8 O4         -1.9974   -1.7585   -0.2055 O.2        1 <1>        0.000
      9 O5         -1.0218   -2.9948   -2.1111 O.3        1 <1>        0.000
     10 O9         -1.1566   -4.1037    0.1530 O.3        1 <1>        0.000
     11 O10        -3.9396   -1.4178   -2.3667 O.3        1 <1>        0.000
     12 O11        -7.0843   -1.7774    1.2099 O.3        1 <1>        0.000
     13 O12        -6.7582   -1.1151   -1.0912 O.2        1 <1>        0.000
     14 H          -0.9365   -3.8706   -2.4949 H.spc      1 <1>        0.000
     15 H          -1.0944   -4.9560   -0.2845 H.spc      1 <1>        0.000
     16 H          -3.1372   -1.0086   -2.0345 H.spc      1 <1>        0.000
     17 H          -7.1869   -2.6864    0.9186 H.spc      1 <1>        0.000
@<TRIPOS>BOND
     1    7    9 1  
     2    7    8 2  
     3    7   10 1  
     4    2    3 1  
     5    1    2 2  
     6    2   12 1  
     7    2   13 2  
     8    3    4 1  
     9    4    5 2  
    10    4    6 1  
    11    4   11 1  
    12    6    7 1  
    13    9   14 1  
    14   10   15 1  
    15   11   16 1  
    16   12   17 1  
# Name:          frag3-270-2/31924 -- energy: -2.889414
# Creation time: Sat Jun  5 12:52:43 2010


@<TRIPOS>MOLECULE
frag3-270-2/31924 -- energy: -2.889414
   17    16     1     1     1
SMALL
USER_CHARGES


@<TRIPOS>ATOM
      1 S1         -7.2736   -1.6811    0.9900 S.2        1 <1>        0.000
      2 P1         -5.7756   -0.8648    0.1294 P.3        1 <1>        0.000
      3 O1         -4.5850   -1.8684   -0.0748 O.3        1 <1>        0.000
      4 P2         -4.6025   -2.9761   -1.1891 P.3        1 <1>        0.000
      5 O2         -5.6815   -3.8999   -0.9317 O.2        1 <1>        0.000
      6 O3         -3.2082   -3.6168   -1.2628 O.3        1 <1>        0.000
      7 P3         -1.9280   -2.7867   -0.9309 P.3        1 <1>        0.000
      8 O4         -2.0561   -1.5077   -1.6058 O.2        1 <1>        0.000
      9 O5         -0.6503   -3.5338   -1.3792 O.3        1 <1>        0.000
     10 O9         -1.8399   -2.6159    0.6420 O.3        1 <1>        0.000
     11 O10        -4.8071   -2.1913   -2.5687 O.3        1 <1>        0.000
     12 O11        -6.1050   -0.3478   -1.3740 O.3        1 <1>        0.000
     13 O12        -5.3263    0.3292    0.8252 O.2        1 <1>        0.000
     14 H          -0.5932   -4.3734   -0.9173 H.spc      1 <1>        0.000
     15 H          -1.7563   -3.4797    1.0524 H.spc      1 <1>        0.000
     16 H          -4.0723   -1.5886   -2.7047 H.spc      1 <1>        0.000
     17 H          -5.3186    0.0510   -1.7535 H.spc      1 <1>        0.000
@<TRIPOS>BOND
     1    7    9 1  
     2    7    8 2  
     3    7   10 1  
     4    2    3 1  
     5    1    2 2  
     6    2   12 1  
     7    2   13 2  
     8    3    4 1  
     9    4    5 2  
    10    4    6 1  
    11    4   11 1  
    12    6    7 1  
    13    9   14 1  
    14   10   15 1  
    15   11   16 1  
    16   12   17 1  
# Name:          frag3-270-2/31924 -- energy: 0.763504
# Creation time: Sat Jun  5 12:52:43 2010


@<TRIPOS>MOLECULE
frag3-270-2/31924 -- energy: 0.763504
   17    16     1     1     1
SMALL
USER_CHARGES


@<TRIPOS>ATOM
      1 S1         -5.9301   -0.2514    1.9536 S.2        1 <1>        0.000
      2 P1         -5.9061   -0.9757    0.2154 P.3        1 <1>        0.000
      3 O1         -4.7487   -1.9746   -0.1516 O.3        1 <1>        0.000
      4 P2         -4.4635   -2.5349   -1.5765 P.3        1 <1>        0.000
      5 O2         -4.8745   -3.9108   -1.6750 O.2        1 <1>        0.000
      6 O3         -2.9508   -2.4183   -1.8393 O.3        1 <1>        0.000
      7 P3         -1.9234   -2.9443   -0.7890 P.3        1 <1>        0.000
      8 O4         -2.6938   -3.6450    0.2162 O.2        1 <1>        0.000
      9 O5         -1.2033   -1.7172   -0.1468 O.3        1 <1>        0.000
     10 O9         -0.8424   -3.8354   -1.4775 O.3        1 <1>        0.000
     11 O10        -5.2814   -1.5893   -2.5431 O.3        1 <1>        0.000
     12 O11        -7.2387   -1.8370   -0.1011 O.3        1 <1>        0.000
     13 O12        -5.7823    0.0730   -0.8158 O.2        1 <1>        0.000
     14 H          -0.6948   -1.2580   -0.8193 H.spc      1 <1>        0.000
     15 H          -0.3686   -3.3148   -2.1303 H.spc      1 <1>        0.000
     16 H          -4.9727   -0.6859   -2.4419 H.spc      1 <1>        0.000
     17 H          -7.1874   -2.1875   -0.9933 H.spc      1 <1>        0.000
@<TRIPOS>BOND
     1    7    9 1  
     2    7    8 2  
     3    7   10 1  
     4    2    3 1  
     5    1    2 2  
     6    2   12 1  
     7    2   13 2  
     8    3    4 1  
     9    4    5 2  
    10    4    6 1  
    11    4   11 1  
    12    6    7 1  
    13    9   14 1  
    14   10   15 1  
    15   11   16 1  
    16   12   17 1  
# Name:          frag3-270-2/31924 -- energy: -1.470535
# Creation time: Sat Jun  5 12:52:43 2010


@<TRIPOS>MOLECULE
frag3-270-2/31924 -- energy: -1.470535
   17    16     1     1     1
SMALL
USER_CHARGES


@<TRIPOS>ATOM
      1 S1         -6.5430    0.7055    0.6315 S.2        1 <1>        0.000
      2 P1         -5.6791   -0.9415    0.2450 P.3        1 <1>        0.000
      3 O1         -4.6335   -0.9244   -0.9299 O.3        1 <1>        0.000
      4 P2         -4.3854   -2.1160   -1.8963 P.3        1 <1>        0.000
      5 O2         -5.0397   -3.2665   -1.2671 O.2        1 <1>        0.000
      6 O3         -2.8747   -2.4497   -1.9100 O.3        1 <1>        0.000
      7 P3         -2.1731   -3.0835   -0.6856 P.3        1 <1>        0.000
      8 O4         -2.2708   -2.1653    0.4454 O.2        1 <1>        0.000
      9 O5         -0.7025   -3.4707   -0.9724 O.3        1 <1>        0.000
     10 O9         -2.9231   -4.4515   -0.3681 O.3        1 <1>        0.000
     11 O10        -4.9588   -1.8128   -3.3138 O.3        1 <1>        0.000
     12 O11        -4.9838   -1.6461    1.5010 O.3        1 <1>        0.000
     13 O12        -6.6715   -1.9385   -0.2102 O.2        1 <1>        0.000
     14 H          -0.6712   -4.0733   -1.7190 H.spc      1 <1>        0.000
     15 H          -2.8469   -5.0396   -1.1230 H.spc      1 <1>        0.000
     16 H          -4.5029   -1.0547   -3.6868 H.spc      1 <1>        0.000
     17 H          -4.5736   -2.4671    1.2194 H.spc      1 <1>        0.000
@<TRIPOS>BOND
     1    7    9 1  
     2    7    8 2  
     3    7   10 1  
     4    2    3 1  
     5    1    2 2  
     6    2   12 1  
     7    2   13 2  
     8    3    4 1  
     9    4    5 2  
    10    4    6 1  
    11    4   11 1  
    12    6    7 1  
    13    9   14 1  
    14   10   15 1  
    15   11   16 1  
    16   12   17 1  
# Name:          frag3-270-2/31924 -- energy: -2.592975
# Creation time: Sat Jun  5 12:52:43 2010


@<TRIPOS>MOLECULE
frag3-270-2/31924 -- energy: -2.592975
   17    16     1     1     1
SMALL
USER_CHARGES


@<TRIPOS>ATOM
      1 S1         -7.2766   -0.7385    0.0561 S.2        1 <1>        0.000
      2 P1         -5.5223   -1.3363    0.4973 P.3        1 <1>        0.000
      3 O1         -4.5072   -1.1099   -0.6896 O.3        1 <1>        0.000
      4 P2         -4.5337   -2.0246   -1.9856 P.3        1 <1>        0.000
      5 O2         -5.9130   -2.4011   -2.1922 O.2        1 <1>        0.000
      6 O3         -3.6234   -3.2211   -1.5944 O.3        1 <1>        0.000
      7 P3         -2.3024   -3.0256   -0.7846 P.3        1 <1>        0.000
      8 O4         -1.4701   -2.0913   -1.5110 O.2        1 <1>        0.000
      9 O5         -1.5886   -4.3552   -0.4940 O.3        1 <1>        0.000
     10 O9         -2.7705   -2.4010    0.6234 O.3        1 <1>        0.000
     11 O10        -3.9033   -1.2515   -3.1855 O.3        1 <1>        0.000
     12 O11        -4.9347   -0.7890    1.8628 O.3        1 <1>        0.000
     13 O12        -5.4933   -2.8159    0.6671 O.2        1 <1>        0.000
     14 H          -2.1815   -4.9368   -0.0125 H.spc      1 <1>        0.000
     15 H          -3.3203   -3.0367    1.0872 H.spc      1 <1>        0.000
     16 H          -2.9909   -1.0341   -2.9808 H.spc      1 <1>        0.000
     17 H          -4.0528   -1.1442    1.9956 H.spc      1 <1>        0.000
@<TRIPOS>BOND
     1    7    9 1  
     2    7    8 2  
     3    7   10 1  
     4    2    3 1  
     5    1    2 2  
     6    2   12 1  
     7    2   13 2  
     8    3    4 1  
     9    4    5 2  
    10    4    6 1  
    11    4   11 1  
    12    6    7 1  
    13    9   14 1  
    14   10   15 1  
    15   11   16 1  
    16   12   17 1  
# Name:          frag3-270-2/31924 -- energy: 0.535834
# Creation time: Sat Jun  5 12:52:43 2010


@<TRIPOS>MOLECULE
frag3-270-2/31924 -- energy: 0.535834
   17    16     1     1     1
SMALL
USER_CHARGES


@<TRIPOS>ATOM
      1 S1         -4.6738   -0.0890    1.4837 S.2        1 <1>        0.000
      2 P1         -5.6203   -1.1021    0.1781 P.3        1 <1>        0.000
      3 O1         -4.9685   -1.1502   -1.2552 O.3        1 <1>        0.000
      4 P2         -4.5898   -2.4834   -1.9804 P.3        1 <1>        0.000
      5 O2         -5.8030   -3.1604   -2.3675 O.2        1 <1>        0.000
      6 O3         -3.7743   -3.2881   -0.8952 O.3        1 <1>        0.000
      7 P3         -2.3362   -2.8472   -0.4674 P.3        1 <1>        0.000
      8 O4         -1.3979   -3.2128   -1.5000 O.2        1 <1>        0.000
      9 O5         -1.9411   -3.3887    0.9195 O.3        1 <1>        0.000
     10 O9         -2.4098   -1.2455   -0.3187 O.3        1 <1>        0.000
     11 O10        -3.5792   -2.2381   -3.1547 O.3        1 <1>        0.000
     12 O11        -5.7425   -2.6791    0.5918 O.3        1 <1>        0.000
     13 O12        -7.0025   -0.6762    0.0356 O.2        1 <1>        0.000
     14 H          -2.5966   -3.1174    1.5663 H.spc      1 <1>        0.000
     15 H          -3.0373   -1.0178    0.3712 H.spc      1 <1>        0.000
     16 H          -2.8025   -1.7857   -2.8177 H.spc      1 <1>        0.000
     17 H          -6.2246   -3.1514   -0.0909 H.spc      1 <1>        0.000
@<TRIPOS>BOND
     1    7    9 1  
     2    7    8 2  
     3    7   10 1  
     4    2    3 1  
     5    1    2 2  
     6    2   12 1  
     7    2   13 2  
     8    3    4 1  
     9    4    5 2  
    10    4    6 1  
    11    4   11 1  
    12    6    7 1  
    13    9   14 1  
    14   10   15 1  
    15   11   16 1  
    16   12   17 1  
# Name:          frag3-270-2/31924 -- energy: -2.674760
# Creation time: Sat Jun  5 12:52:43 2010


@<TRIPOS>MOLECULE
frag3-270-2/31924 -- energy: -2.674760
   17    16     1     1     1
SMALL
USER_CHARGES


@<TRIPOS>ATOM
      1 S1         -6.0781   -1.7493    1.6747 S.2        1 <1>        0.000
      2 P1         -6.0605   -0.8840   -0.0422 P.3        1 <1>        0.000
      3 O1         -4.7699   -1.2586   -0.8575 O.3        1 <1>        0.000
      4 P2         -4.4860   -2.7595   -1.2324 P.3        1 <1>        0.000
      5 O2         -5.7009   -3.4984   -0.9818 O.2        1 <1>        0.000
      6 O3         -3.2767   -3.2561   -0.4005 O.3        1 <1>        0.000
      7 P3         -1.8245   -2.8216   -0.7447 P.3        1 <1>        0.000
      8 O4         -1.3915   -3.4908   -1.9460 O.2        1 <1>        0.000
      9 O5         -0.8535   -3.0200    0.4317 O.3        1 <1>        0.000
     10 O9         -1.8978   -1.2286   -0.9874 O.3        1 <1>        0.000
     11 O10        -4.0282   -2.8441   -2.7436 O.3        1 <1>        0.000
     12 O11        -7.2948   -1.3072   -0.9880 O.3        1 <1>        0.000
     13 O12        -6.1768    0.5570    0.0872 O.2        1 <1>        0.000
     14 H          -1.1877   -2.5560    1.2028 H.spc      1 <1>        0.000
     15 H          -2.1870   -0.7961   -0.1806 H.spc      1 <1>        0.000
     16 H          -3.2198   -2.3397   -2.8606 H.spc      1 <1>        0.000
     17 H          -7.2283   -0.8431   -1.8257 H.spc      1 <1>        0.000
@<TRIPOS>BOND
     1    7    9 1  
     2    7    8 2  
     3    7   10 1  
     4    2    3 1  
     5    1    2 2  
     6    2   12 1  
     7    2   13 2  
     8    3    4 1  
     9    4    5 2  
    10    4    6 1  
    11    4   11 1  
    12    6    7 1  
    13    9   14 1  
    14   10   15 1  
    15   11   16 1  
    16   12   17 1  
# Name:          frag3-270-2/31924 -- energy: -2.045889
# Creation time: Sat Jun  5 12:52:43 2010


@<TRIPOS>MOLECULE
frag3-270-2/31924 -- energy: -2.045889
   17    16     1     1     1
SMALL
USER_CHARGES


@<TRIPOS>ATOM
      1 S1         -4.7244   -1.5806    1.7453 S.2        1 <1>        0.000
      2 P1         -5.9386   -1.5278    0.2590 P.3        1 <1>        0.000
      3 O1         -5.5825   -2.5975   -0.8537 O.3        1 <1>        0.000
      4 P2         -4.4707   -2.3229   -1.9231 P.3        1 <1>        0.000
      5 O2         -3.9483   -3.5220   -2.5207 O.2        1 <1>        0.000
      6 O3         -3.2763   -1.6685   -1.1219 O.3        1 <1>        0.000
      7 P3         -2.1136   -2.5524   -0.5632 P.3        1 <1>        0.000
      8 O4         -1.3554   -3.0751   -1.6649 O.2        1 <1>        0.000
      9 O5         -2.8583   -3.7500    0.1837 O.3        1 <1>        0.000
     10 O9         -1.2630   -1.8247    0.5236 O.3        1 <1>        0.000
     11 O10        -5.0569   -1.2989   -2.9568 O.3        1 <1>        0.000
     12 O11        -7.4687   -1.6021    0.6338 O.3        1 <1>        0.000
     13 O12        -5.7825   -0.2384   -0.4715 O.2        1 <1>        0.000
     14 H          -3.3652   -3.4004    0.9202 H.spc      1 <1>        0.000
     15 H          -1.8411   -1.5068    1.2210 H.spc      1 <1>        0.000
     16 H          -5.3856   -0.5272   -2.4898 H.spc      1 <1>        0.000
     17 H          -7.9954   -1.5693   -0.1681 H.spc      1 <1>        0.000
@<TRIPOS>BOND
     1    7    9 1  
     2    7    8 2  
     3    7   10 1  
     4    2    3 1  
     5    1    2 2  
     6    2   12 1  
     7    2   13 2  
     8    3    4 1  
     9    4    5 2  
    10    4    6 1  
    11    4   11 1  
    12    6    7 1  
    13    9   14 1  
    14   10   15 1  
    15   11   16 1  
    16   12   17 1  
# Name:          frag3-270-2/31924 -- energy: 0.136109
# Creation time: Sat Jun  5 12:52:43 2010


@<TRIPOS>MOLECULE
frag3-270-2/31924 -- energy: 0.136109
   17    16     1     1     1
SMALL
USER_CHARGES


@<TRIPOS>ATOM
      1 S1         -6.1124    0.3761   -1.2464 S.2        1 <1>        0.000
      2 P1         -6.0843   -0.9669    0.1421 P.3        1 <1>        0.000
      3 O1         -4.8051   -1.8656    0.0195 O.3        1 <1>        0.000
      4 P2         -4.4190   -2.5001   -1.3627 P.3        1 <1>        0.000
      5 O2         -5.6250   -2.9463   -2.0087 O.2        1 <1>        0.000
      6 O3         -3.3494   -3.5850   -1.1658 O.3        1 <1>        0.000
      7 P3         -1.9141   -3.2331   -0.6612 P.3        1 <1>        0.000
      8 O4         -2.0282   -2.5264    0.5937 O.2        1 <1>        0.000
      9 O5         -1.3364   -2.2308   -1.7547 O.3        1 <1>        0.000
     10 O9         -0.9753   -4.4695   -0.6277 O.3        1 <1>        0.000
     11 O10        -3.6970   -1.3365   -2.2183 O.3        1 <1>        0.000
     12 O11        -6.2801   -0.3793    1.5988 O.3        1 <1>        0.000
     13 O12        -7.2128   -1.8975   -0.0390 O.2        1 <1>        0.000
     14 H          -1.2552   -2.6879   -2.5950 H.spc      1 <1>        0.000
     15 H          -0.9560   -4.8789   -1.4958 H.spc      1 <1>        0.000
     16 H          -2.8973   -1.0578   -1.7662 H.spc      1 <1>        0.000
     17 H          -6.2561   -1.0956    2.2375 H.spc      1 <1>        0.000
@<TRIPOS>BOND
     1    7    9 1  
     2    7    8 2  
     3    7   10 1  
     4    2    3 1  
     5    1    2 2  
     6    2   12 1  
     7    2   13 2  
     8    3    4 1  
     9    4    5 2  
    10    4    6 1  
    11    4   11 1  
    12    6    7 1  
    13    9   14 1  
    14   10   15 1  
    15   11   16 1  
    16   12   17 1  
# Name:          frag3-270-2/31924 -- energy: 0.642380
# Creation time: Sat Jun  5 12:52:43 2010


@<TRIPOS>MOLECULE
frag3-270-2/31924 -- energy: 0.642380
   17    16     1     1     1
SMALL
USER_CHARGES


@<TRIPOS>ATOM
      1 S1         -6.7073    0.3274   -0.7079 S.2        1 <1>        0.000
      2 P1         -5.8083   -1.0787    0.2367 P.3        1 <1>        0.000
      3 O1         -5.6362   -2.3793   -0.6539 O.3        1 <1>        0.000
      4 P2         -4.5598   -2.4350   -1.7829 P.3        1 <1>        0.000
      5 O2         -4.2543   -3.7950   -2.1977 O.2        1 <1>        0.000
      6 O3         -3.2273   -1.8958   -1.1119 O.3        1 <1>        0.000
      7 P3         -2.1728   -2.8767   -0.5177 P.3        1 <1>        0.000
      8 O4         -1.2000   -2.2566    0.3486 O.2        1 <1>        0.000
      9 O5         -1.4935   -3.5686   -1.7484 O.3        1 <1>        0.000
     10 O9         -3.0196   -4.0117    0.2293 O.3        1 <1>        0.000
     11 O10        -5.0030   -1.5066   -2.9614 O.3        1 <1>        0.000
     12 O11        -4.2916   -0.6763    0.6500 O.3        1 <1>        0.000
     13 O12        -6.4655   -1.4079    1.4868 O.2        1 <1>        0.000
     14 H          -2.1681   -3.9694   -2.3014 H.spc      1 <1>        0.000
     15 H          -3.6512   -4.3941   -0.3842 H.spc      1 <1>        0.000
     16 H          -5.1890   -0.6279   -2.6225 H.spc      1 <1>        0.000
     17 H          -3.8839   -1.4083    1.1185 H.spc      1 <1>        0.000
@<TRIPOS>BOND
     1    7    9 1  
     2    7    8 2  
     3    7   10 1  
     4    2    3 1  
     5    1    2 2  
     6    2   12 1  
     7    2   13 2  
     8    3    4 1  
     9    4    5 2  
    10    4    6 1  
    11    4   11 1  
    12    6    7 1  
    13    9   14 1  
    14   10   15 1  
    15   11   16 1  
    16   12   17 1  
# Name:          frag3-270-2/31924 -- energy: -0.037320
# Creation time: Sat Jun  5 12:52:43 2010


@<TRIPOS>MOLECULE
frag3-270-2/31924 -- energy: -0.037320
   17    16     1     1     1
SMALL
USER_CHARGES


@<TRIPOS>ATOM
      1 S1         -5.4837    0.6388   -0.2345 S.2        1 <1>        0.000
      2 P1         -5.7872   -1.2335    0.1709 P.3        1 <1>        0.000
      3 O1         -5.5662   -2.1165   -1.1122 O.3        1 <1>        0.000
      4 P2         -4.2886   -1.9385   -1.9879 P.3        1 <1>        0.000
      5 O2         -4.0120   -3.0617   -2.8504 O.2        1 <1>        0.000
      6 O3         -3.1035   -1.9004   -0.9369 O.3        1 <1>        0.000
      7 P3         -2.5207   -3.2241   -0.3485 P.3        1 <1>        0.000
      8 O4         -3.6198   -4.0177    0.1617 O.2        1 <1>        0.000
      9 O5         -1.4399   -2.9850    0.7251 O.3        1 <1>        0.000
     10 O9         -1.8064   -3.9421   -1.5870 O.3        1 <1>        0.000
     11 O10        -4.3300   -0.5710   -2.7579 O.3        1 <1>        0.000
     12 O11        -4.7722   -1.7714    1.3024 O.3        1 <1>        0.000
     13 O12        -7.1088   -1.4378    0.7247 O.2        1 <1>        0.000
     14 H          -0.7303   -2.4574    0.3513 H.spc      1 <1>        0.000
     15 H          -1.0846   -3.3926   -1.9012 H.spc      1 <1>        0.000
     16 H          -4.5168    0.1382   -2.1384 H.spc      1 <1>        0.000
     17 H          -4.9512   -2.6983    1.4767 H.spc      1 <1>        0.000
@<TRIPOS>BOND
     1    7    9 1  
     2    7    8 2  
     3    7   10 1  
     4    2    3 1  
     5    1    2 2  
     6    2   12 1  
     7    2   13 2  
     8    3    4 1  
     9    4    5 2  
    10    4    6 1  
    11    4   11 1  
    12    6    7 1  
    13    9   14 1  
    14   10   15 1  
    15   11   16 1  
    16   12   17 1  
# Name:          frag3-270-2/31924 -- energy: -0.968031
# Creation time: Sat Jun  5 12:52:43 2010


@<TRIPOS>MOLECULE
frag3-270-2/31924 -- energy: -0.968031
   17    16     1     1     1
SMALL
USER_CHARGES


@<TRIPOS>ATOM
      1 S1         -7.3410    0.5081    0.7538 S.2        1 <1>        0.000
      2 P1         -6.4378   -1.0553    0.1934 P.3        1 <1>        0.000
      3 O1         -4.8850   -0.9380    0.0027 O.3        1 <1>        0.000
      4 P2         -4.0809   -1.8615   -0.9225 P.3        1 <1>        0.000
      5 O2         -5.0087   -2.8625   -1.4534 O.2        1 <1>        0.000
      6 O3         -2.9276   -2.6193   -0.2160 O.3        1 <1>        0.000
      7 P3         -1.7652   -3.2714   -1.0377 P.3        1 <1>        0.000
      8 O4         -1.0964   -2.2169   -1.7808 O.2        1 <1>        0.000
      9 O5         -2.4919   -4.2451   -2.0450 O.3        1 <1>        0.000
     10 O9         -0.8193   -4.1218   -0.1443 O.3        1 <1>        0.000
     11 O10        -3.4038   -1.0369   -2.0930 O.3        1 <1>        0.000
     12 O11        -6.6593   -2.3437    1.1419 O.3        1 <1>        0.000
     13 O12        -6.9222   -1.4969   -1.1295 O.2        1 <1>        0.000
     14 H          -2.9334   -4.9413   -1.5531 H.spc      1 <1>        0.000
     15 H          -1.3307   -4.7938    0.3123 H.spc      1 <1>        0.000
     16 H          -2.8017   -0.3890   -1.7198 H.spc      1 <1>        0.000
     17 H          -6.1688   -3.0889    0.7872 H.spc      1 <1>        0.000
@<TRIPOS>BOND
     1    7    9 1  
     2    7    8 2  
     3    7   10 1  
     4    2    3 1  
     5    1    2 2  
     6    2   12 1  
     7    2   13 2  
     8    3    4 1  
     9    4    5 2  
    10    4    6 1  
    11    4   11 1  
    12    6    7 1  
    13    9   14 1  
    14   10   15 1  
    15   11   16 1  
    16   12   17 1  
# Name:          frag3-270-2/31924 -- energy: -3.366528
# Creation time: Sat Jun  5 12:52:43 2010


@<TRIPOS>MOLECULE
frag3-270-2/31924 -- energy: -3.366528
   17    16     1     1     1
SMALL
USER_CHARGES


@<TRIPOS>ATOM
      1 S1         -4.6144   -0.2784    1.2162 S.2        1 <1>        0.000
      2 P1         -6.0159   -0.9955    0.1026 P.3        1 <1>        0.000
      3 O1         -5.5402   -1.2192   -1.3759 O.3        1 <1>        0.000
      4 P2         -4.5253   -2.3256   -1.7321 P.3        1 <1>        0.000
      5 O2         -5.1929   -3.5464   -2.1190 O.2        1 <1>        0.000
      6 O3         -3.6497   -2.6208   -0.4550 O.3        1 <1>        0.000
      7 P3         -2.1437   -2.9971   -0.5560 P.3        1 <1>        0.000
      8 O4         -2.0190   -3.9191   -1.6620 O.2        1 <1>        0.000
      9 O5         -1.5896   -3.5885    0.7529 O.3        1 <1>        0.000
     10 O9         -1.3546   -1.6350   -0.8370 O.3        1 <1>        0.000
     11 O10        -3.4658   -1.8265   -2.7951 O.3        1 <1>        0.000
     12 O11        -6.5266   -2.4482    0.5960 O.3        1 <1>        0.000
     13 O12        -7.2013   -0.1607    0.1341 O.2        1 <1>        0.000
     14 H          -1.6907   -2.9475    1.4604 H.spc      1 <1>        0.000
     15 H          -1.4571   -1.0463   -0.0857 H.spc      1 <1>        0.000
     16 H          -3.0581   -1.0155   -2.4825 H.spc      1 <1>        0.000
     17 H          -7.2210   -2.7581    0.0100 H.spc      1 <1>        0.000
@<TRIPOS>BOND
     1    7    9 1  
     2    7    8 2  
     3    7   10 1  
     4    2    3 1  
     5    1    2 2  
     6    2   12 1  
     7    2   13 2  
     8    3    4 1  
     9    4    5 2  
    10    4    6 1  
    11    4   11 1  
    12    6    7 1  
    13    9   14 1  
    14   10   15 1  
    15   11   16 1  
    16   12   17 1  
# Name:          frag3-270-2/31924 -- energy: 0.493887
# Creation time: Sat Jun  5 12:52:43 2010


@<TRIPOS>MOLECULE
frag3-270-2/31924 -- energy: 0.493887
   17    16     1     1     1
SMALL
USER_CHARGES


@<TRIPOS>ATOM
      1 S1         -5.0079   -0.8378    1.8530 S.2        1 <1>        0.000
      2 P1         -5.8784   -1.2159    0.2099 P.3        1 <1>        0.000
      3 O1         -5.5603   -2.6537   -0.3866 O.3        1 <1>        0.000
      4 P2         -4.6063   -2.8367   -1.6020 P.3        1 <1>        0.000
      5 O2         -4.0189   -4.1672   -1.6657 O.2        1 <1>        0.000
      6 O3         -3.3916   -1.8548   -1.3428 O.3        1 <1>        0.000
      7 P3         -2.0712   -2.3521   -0.7009 P.3        1 <1>        0.000
      8 O4         -1.1933   -1.3113   -0.2226 O.2        1 <1>        0.000
      9 O5         -1.3636   -3.2548   -1.7720 O.3        1 <1>        0.000
     10 O9         -2.5353   -3.3471    0.4702 O.3        1 <1>        0.000
     11 O10        -5.3773   -2.4277   -2.9010 O.3        1 <1>        0.000
     12 O11        -7.4532   -0.9902    0.1968 O.3        1 <1>        0.000
     13 O12        -5.3818   -0.3119   -0.8668 O.2        1 <1>        0.000
     14 H          -1.9729   -3.9348   -2.0686 H.spc      1 <1>        0.000
     15 H          -3.1154   -4.0197    0.1059 H.spc      1 <1>        0.000
     16 H          -5.7378   -1.5445   -2.7931 H.spc      1 <1>        0.000
     17 H          -7.7992   -1.2068   -0.6721 H.spc      1 <1>        0.000
@<TRIPOS>BOND
     1    7    9 1  
     2    7    8 2  
     3    7   10 1  
     4    2    3 1  
     5    1    2 2  
     6    2   12 1  
     7    2   13 2  
     8    3    4 1  
     9    4    5 2  
    10    4    6 1  
    11    4   11 1  
    12    6    7 1  
    13    9   14 1  
    14   10   15 1  
    15   11   16 1  
    16   12   17 1  
# Name:          frag3-270-2/31924 -- energy: 2.260517
# Creation time: Sat Jun  5 12:52:43 2010


@<TRIPOS>MOLECULE
frag3-270-2/31924 -- energy: 2.260517
   17    16     1     1     1
SMALL
USER_CHARGES


@<TRIPOS>ATOM
      1 S1         -6.0286    0.4907    0.6967 S.2        1 <1>        0.000
      2 P1         -6.5794   -1.2533    0.0958 P.3        1 <1>        0.000
      3 O1         -5.4238   -2.3123    0.2427 O.3        1 <1>        0.000
      4 P2         -4.1814   -2.2461   -0.6596 P.3        1 <1>        0.000
      5 O2         -4.5873   -2.3233   -2.0633 O.2        1 <1>        0.000
      6 O3         -3.0838   -3.3075   -0.4159 O.3        1 <1>        0.000
      7 P3         -1.7373   -3.2807   -1.1784 P.3        1 <1>        0.000
      8 O4         -0.7644   -4.2499   -0.7204 O.2        1 <1>        0.000
      9 O5         -1.1648   -1.8134   -1.0141 O.3        1 <1>        0.000
     10 O9         -2.0762   -3.4249   -2.7267 O.3        1 <1>        0.000
     11 O10        -3.4495   -0.8245   -0.4103 O.3        1 <1>        0.000
     12 O11        -7.9046   -1.7944    0.7745 O.3        1 <1>        0.000
     13 O12        -6.8581   -1.2215   -1.3514 O.2        1 <1>        0.000
     14 H          -1.8179   -1.1801   -1.3207 H.spc      1 <1>        0.000
     15 H          -2.7233   -2.7606   -2.9747 H.spc      1 <1>        0.000
     16 H          -3.1783   -0.7623    0.5085 H.spc      1 <1>        0.000
     17 H          -8.1106   -2.6639    0.4235 H.spc      1 <1>        0.000
@<TRIPOS>BOND
     1    7    9 1  
     2    7    8 2  
     3    7   10 1  
     4    2    3 1  
     5    1    2 2  
     6    2   12 1  
     7    2   13 2  
     8    3    4 1  
     9    4    5 2  
    10    4    6 1  
    11    4   11 1  
    12    6    7 1  
    13    9   14 1  
    14   10   15 1  
    15   11   16 1  
    16   12   17 1  
# Name:          frag3-270-2/31924 -- energy: 0.091436
# Creation time: Sat Jun  5 12:52:43 2010


@<TRIPOS>MOLECULE
frag3-270-2/31924 -- energy: 0.091436
   17    16     1     1     1
SMALL
USER_CHARGES


@<TRIPOS>ATOM
      1 S1         -5.1318    0.4807    1.2206 S.2        1 <1>        0.000
      2 P1         -5.5623   -1.0205    0.1463 P.3        1 <1>        0.000
      3 O1         -4.8375   -1.1236   -1.2570 O.3        1 <1>        0.000
      4 P2         -4.5817   -2.4656   -1.9760 P.3        1 <1>        0.000
      5 O2         -5.8381   -3.0452   -2.3653 O.2        1 <1>        0.000
      6 O3         -3.8199   -3.3447   -0.9144 O.3        1 <1>        0.000
      7 P3         -2.4253   -2.8775   -0.3546 P.3        1 <1>        0.000
      8 O4         -2.5796   -1.5307    0.1441 O.2        1 <1>        0.000
      9 O5         -1.4650   -2.8803   -1.5998 O.3        1 <1>        0.000
     10 O9         -1.8451   -3.8704    0.6933 O.3        1 <1>        0.000
     11 O10        -3.6804   -2.3630   -3.2704 O.3        1 <1>        0.000
     12 O11        -5.0862   -2.3908    0.9222 O.3        1 <1>        0.000
     13 O12        -6.9861   -1.1295   -0.1194 O.2        1 <1>        0.000
     14 H          -1.3675   -3.7782   -1.9253 H.spc      1 <1>        0.000
     15 H          -1.7689   -4.7422    0.2986 H.spc      1 <1>        0.000
     16 H          -2.8321   -1.9779   -3.0386 H.spc      1 <1>        0.000
     17 H          -5.3021   -3.1545    0.3820 H.spc      1 <1>        0.000
@<TRIPOS>BOND
     1    7    9 1  
     2    7    8 2  
     3    7   10 1  
     4    2    3 1  
     5    1    2 2  
     6    2   12 1  
     7    2   13 2  
     8    3    4 1  
     9    4    5 2  
    10    4    6 1  
    11    4   11 1  
    12    6    7 1  
    13    9   14 1  
    14   10   15 1  
    15   11   16 1  
    16   12   17 1  
# Name:          frag3-270-2/31924 -- energy: -0.006524
# Creation time: Sat Jun  5 12:52:43 2010


@<TRIPOS>MOLECULE
frag3-270-2/31924 -- energy: -0.006524
   17    16     1     1     1
SMALL
USER_CHARGES


@<TRIPOS>ATOM
      1 S1         -5.0337   -0.0044    0.9299 S.2        1 <1>        0.000
      2 P1         -6.3368   -1.0712   -0.0152 P.3        1 <1>        0.000
      3 O1         -5.8009   -2.5327   -0.2709 O.3        1 <1>        0.000
      4 P2         -4.4843   -2.7573   -1.0334 P.3        1 <1>        0.000
      5 O2         -4.3672   -4.0454   -1.6900 O.2        1 <1>        0.000
      6 O3         -3.2139   -2.5579   -0.1355 O.3        1 <1>        0.000
      7 P3         -1.7810   -2.7744   -0.6944 P.3        1 <1>        0.000
      8 O4         -0.7315   -2.1586    0.0900 O.2        1 <1>        0.000
      9 O5         -1.8089   -2.1552   -2.1526 O.3        1 <1>        0.000
     10 O9         -1.5847   -4.3362   -0.8923 O.3        1 <1>        0.000
     11 O10        -4.4032   -1.5721   -2.1335 O.3        1 <1>        0.000
     12 O11        -7.7690   -1.0876    0.6387 O.3        1 <1>        0.000
     13 O12        -6.5239   -0.5078   -1.3713 O.2        1 <1>        0.000
     14 H          -2.5081   -2.5711   -2.6623 H.spc      1 <1>        0.000
     15 H          -2.3087   -4.6845   -1.4177 H.spc      1 <1>        0.000
     16 H          -4.4812   -0.7226   -1.6933 H.spc      1 <1>        0.000
     17 H          -8.3539   -1.6368    0.1116 H.spc      1 <1>        0.000
@<TRIPOS>BOND
     1    7    9 1  
     2    7    8 2  
     3    7   10 1  
     4    2    3 1  
     5    1    2 2  
     6    2   12 1  
     7    2   13 2  
     8    3    4 1  
     9    4    5 2  
    10    4    6 1  
    11    4   11 1  
    12    6    7 1  
    13    9   14 1  
    14   10   15 1  
    15   11   16 1  
    16   12   17 1  
# Name:          frag3-270-2/31924 -- energy: -1.052047
# Creation time: Sat Jun  5 12:52:43 2010


@<TRIPOS>MOLECULE
frag3-270-2/31924 -- energy: -1.052047
   17    16     1     1     1
SMALL
USER_CHARGES


@<TRIPOS>ATOM
      1 S1         -7.0155   -0.0042   -1.2942 S.2        1 <1>        0.000
      2 P1         -6.2604   -0.9757    0.1765 P.3        1 <1>        0.000
      3 O1         -4.7388   -1.2871   -0.0558 O.3        1 <1>        0.000
      4 P2         -4.3055   -2.2563   -1.1951 P.3        1 <1>        0.000
      5 O2         -5.4967   -2.7828   -1.8104 O.2        1 <1>        0.000
      6 O3         -3.3667   -3.3458   -0.6495 O.3        1 <1>        0.000
      7 P3         -1.8222   -3.2249   -0.7720 P.3        1 <1>        0.000
      8 O4         -1.4275   -1.9395   -0.2444 O.2        1 <1>        0.000
      9 O5         -1.5290   -3.2468   -2.3319 O.3        1 <1>        0.000
     10 O9         -1.0480   -4.4329   -0.1785 O.3        1 <1>        0.000
     11 O10        -3.4469   -1.4158   -2.2565 O.3        1 <1>        0.000
     12 O11        -6.5092   -0.3309    1.6021 O.3        1 <1>        0.000
     13 O12        -6.8727   -2.3184    0.2792 O.2        1 <1>        0.000
     14 H          -1.7880   -4.0977   -2.6931 H.spc      1 <1>        0.000
     15 H          -1.3680   -5.2446   -0.5790 H.spc      1 <1>        0.000
     16 H          -2.6584   -1.0734   -1.8292 H.spc      1 <1>        0.000
     17 H          -6.0997   -0.8788    2.2757 H.spc      1 <1>        0.000
@<TRIPOS>BOND
     1    7    9 1  
     2    7    8 2  
     3    7   10 1  
     4    2    3 1  
     5    1    2 2  
     6    2   12 1  
     7    2   13 2  
     8    3    4 1  
     9    4    5 2  
    10    4    6 1  
    11    4   11 1  
    12    6    7 1  
    13    9   14 1  
    14   10   15 1  
    15   11   16 1  
    16   12   17 1  
# Name:          frag3-270-2/31924 -- energy: 2.942140
# Creation time: Sat Jun  5 12:52:43 2010


@<TRIPOS>MOLECULE
frag3-270-2/31924 -- energy: 2.942140
   17    16     1     1     1
SMALL
USER_CHARGES


@<TRIPOS>ATOM
      1 S1         -7.7960   -2.3376   -0.2453 S.2        1 <1>        0.000
      2 P1         -6.4210   -1.0142   -0.0576 P.3        1 <1>        0.000
      3 O1         -5.3452   -1.1131   -1.1969 O.3        1 <1>        0.000
      4 P2         -4.3021   -2.2401   -1.1799 P.3        1 <1>        0.000
      5 O2         -4.6294   -3.1588   -0.0838 O.2        1 <1>        0.000
      6 O3         -2.8452   -1.7449   -0.9424 O.3        1 <1>        0.000
      7 P3         -1.6422   -2.7231   -0.9082 P.3        1 <1>        0.000
      8 O4         -0.3439   -2.0806   -0.8617 O.2        1 <1>        0.000
      9 O5         -1.7774   -3.5739   -2.2406 O.3        1 <1>        0.000
     10 O9         -1.8812   -3.7500    0.2695 O.3        1 <1>        0.000
     11 O10        -4.2635   -3.0487   -2.5545 O.3        1 <1>        0.000
     12 O11        -6.9470    0.4746    0.0916 O.3        1 <1>        0.000
     13 O12        -5.6449   -1.2507    1.1794 O.2        1 <1>        0.000
     14 H          -2.6394   -3.9958   -2.2635 H.spc      1 <1>        0.000
     15 H          -2.7546   -4.1387    0.1814 H.spc      1 <1>        0.000
     16 H          -4.0494   -2.4479   -3.2720 H.spc      1 <1>        0.000
     17 H          -6.1989    1.0697    0.1799 H.spc      1 <1>        0.000
@<TRIPOS>BOND
     1    7    9 1  
     2    7    8 2  
     3    7   10 1  
     4    2    3 1  
     5    1    2 2  
     6    2   12 1  
     7    2   13 2  
     8    3    4 1  
     9    4    5 2  
    10    4    6 1  
    11    4   11 1  
    12    6    7 1  
    13    9   14 1  
    14   10   15 1  
    15   11   16 1  
    16   12   17 1  
# Name:          frag3-270-2/31924 -- energy: -3.062530
# Creation time: Sat Jun  5 12:52:43 2010


@<TRIPOS>MOLECULE
frag3-270-2/31924 -- energy: -3.062530
   17    16     1     1     1
SMALL
USER_CHARGES


@<TRIPOS>ATOM
      1 S1         -5.0771    0.5743    0.0717 S.2        1 <1>        0.000
      2 P1         -5.8047   -1.1936    0.3105 P.3        1 <1>        0.000
      3 O1         -4.8146   -2.3079   -0.2141 O.3        1 <1>        0.000
      4 P2         -4.5030   -2.4822   -1.7554 P.3        1 <1>        0.000
      5 O2         -5.5601   -3.2734   -2.3460 O.2        1 <1>        0.000
      6 O3         -3.0994   -3.0895   -1.8888 O.3        1 <1>        0.000
      7 P3         -2.0516   -2.9560   -0.7477 P.3        1 <1>        0.000
      8 O4         -2.0839   -1.5853   -0.2704 O.2        1 <1>        0.000
      9 O5         -0.6339   -3.3691   -1.1975 O.3        1 <1>        0.000
     10 O9         -2.4929   -3.9773    0.3975 O.3        1 <1>        0.000
     11 O10        -4.4666   -0.9956   -2.3235 O.3        1 <1>        0.000
     12 O11        -6.2662   -1.5293    1.7828 O.3        1 <1>        0.000
     13 O12        -6.9852   -1.3761   -0.5496 O.2        1 <1>        0.000
     14 H          -0.6494   -4.2781   -1.5060 H.spc      1 <1>        0.000
     15 H          -2.4622   -4.8735    0.0547 H.spc      1 <1>        0.000
     16 H          -3.7519   -0.5113   -1.9038 H.spc      1 <1>        0.000
     17 H          -6.6136   -2.4238    1.8120 H.spc      1 <1>        0.000
@<TRIPOS>BOND
     1    7    9 1  
     2    7    8 2  
     3    7   10 1  
     4    2    3 1  
     5    1    2 2  
     6    2   12 1  
     7    2   13 2  
     8    3    4 1  
     9    4    5 2  
    10    4    6 1  
    11    4   11 1  
    12    6    7 1  
    13    9   14 1  
    14   10   15 1  
    15   11   16 1  
    16   12   17 1  
# Name:          frag3-270-2/31924 -- energy: -1.312211
# Creation time: Sat Jun  5 12:52:43 2010


@<TRIPOS>MOLECULE
frag3-270-2/31924 -- energy: -1.312211
   17    16     1     1     1
SMALL
USER_CHARGES


@<TRIPOS>ATOM
      1 S1         -7.7012   -2.3644   -0.4658 S.2        1 <1>        0.000
      2 P1         -6.3660   -1.1014    0.0882 P.3        1 <1>        0.000
      3 O1         -5.2661   -0.8913   -1.0143 O.3        1 <1>        0.000
      4 P2         -4.2738   -2.0201   -1.3452 P.3        1 <1>        0.000
      5 O2         -4.8395   -3.2872   -0.8574 O.2        1 <1>        0.000
      6 O3         -2.9062   -1.8426   -0.6109 O.3        1 <1>        0.000
      7 P3         -1.7301   -2.8371   -0.8044 P.3        1 <1>        0.000
      8 O4         -0.6845   -2.2775   -1.6375 O.2        1 <1>        0.000
      9 O5         -2.3884   -4.0678   -1.5701 O.3        1 <1>        0.000
     10 O9         -1.2319   -3.4204    0.5569 O.3        1 <1>        0.000
     11 O10        -3.9147   -2.1244   -2.8783 O.3        1 <1>        0.000
     12 O11        -6.9297    0.3003    0.5648 O.3        1 <1>        0.000
     13 O12        -5.6071   -1.6272    1.2436 O.2        1 <1>        0.000
     14 H          -3.0832   -4.4467   -1.0267 H.spc      1 <1>        0.000
     15 H          -1.9799   -3.7696    1.0470 H.spc      1 <1>        0.000
     16 H          -3.5476   -1.2893   -3.1774 H.spc      1 <1>        0.000
     17 H          -6.1989    0.8670    0.8223 H.spc      1 <1>        0.000
@<TRIPOS>BOND
     1    7    9 1  
     2    7    8 2  
     3    7   10 1  
     4    2    3 1  
     5    1    2 2  
     6    2   12 1  
     7    2   13 2  
     8    3    4 1  
     9    4    5 2  
    10    4    6 1  
    11    4   11 1  
    12    6    7 1  
    13    9   14 1  
    14   10   15 1  
    15   11   16 1  
    16   12   17 1  
# Name:          frag3-270-2/31924 -- energy: -1.246745
# Creation time: Sat Jun  5 12:52:43 2010


@<TRIPOS>MOLECULE
frag3-270-2/31924 -- energy: -1.246745
   17    16     1     1     1
SMALL
USER_CHARGES


@<TRIPOS>ATOM
      1 S1         -6.3880    0.7410   -0.2895 S.2        1 <1>        0.000
      2 P1         -6.3428   -1.1355    0.1008 P.3        1 <1>        0.000
      3 O1         -5.8064   -1.9900   -1.1065 O.3        1 <1>        0.000
      4 P2         -4.3073   -2.0616   -1.4297 P.3        1 <1>        0.000
      5 O2         -3.9749   -2.2706   -2.8256 O.2        1 <1>        0.000
      6 O3         -3.5855   -3.1731   -0.5860 O.3        1 <1>        0.000
      7 P3         -2.0649   -3.4679   -0.7716 P.3        1 <1>        0.000
      8 O4         -1.4638   -4.1865    0.3264 O.2        1 <1>        0.000
      9 O5         -1.3868   -2.0439   -0.9331 O.3        1 <1>        0.000
     10 O9         -1.8914   -4.1936   -2.1722 O.3        1 <1>        0.000
     11 O10        -3.6637   -0.6675   -0.9119 O.3        1 <1>        0.000
     12 O11        -5.3269   -1.4794    1.3324 O.3        1 <1>        0.000
     13 O12        -7.6368   -1.6324    0.5362 O.2        1 <1>        0.000
     14 H          -1.7955   -1.5774   -1.6658 H.spc      1 <1>        0.000
     15 H          -2.3106   -3.6682   -2.8576 H.spc      1 <1>        0.000
     16 H          -3.8881   -0.5365    0.0123 H.spc      1 <1>        0.000
     17 H          -5.3329   -2.4253    1.4960 H.spc      1 <1>        0.000
@<TRIPOS>BOND
     1    7    9 1  
     2    7    8 2  
     3    7   10 1  
     4    2    3 1  
     5    1    2 2  
     6    2   12 1  
     7    2   13 2  
     8    3    4 1  
     9    4    5 2  
    10    4    6 1  
    11    4   11 1  
    12    6    7 1  
    13    9   14 1  
    14   10   15 1  
    15   11   16 1  
    16   12   17 1  
# Name:          frag3-270-2/31924 -- energy: -0.959171
# Creation time: Sat Jun  5 12:52:44 2010


@<TRIPOS>MOLECULE
frag3-270-2/31924 -- energy: -0.959171
   17    16     1     1     1
SMALL
USER_CHARGES


@<TRIPOS>ATOM
      1 S1         -7.4787   -0.1607    1.3938 S.2        1 <1>        0.000
      2 P1         -6.4878   -0.9409   -0.0236 P.3        1 <1>        0.000
      3 O1         -4.9746   -1.2441    0.2716 O.3        1 <1>        0.000
      4 P2         -4.1020   -2.1773   -0.5734 P.3        1 <1>        0.000
      5 O2         -4.6554   -3.5341   -0.5068 O.2        1 <1>        0.000
      6 O3         -2.6027   -2.2357   -0.2321 O.3        1 <1>        0.000
      7 P3         -1.6042   -3.0311   -1.1140 P.3        1 <1>        0.000
      8 O4         -0.7575   -2.1561   -1.8961 O.2        1 <1>        0.000
      9 O5         -2.5226   -3.8826   -2.0948 O.3        1 <1>        0.000
     10 O9         -0.8202   -4.0836   -0.2530 O.3        1 <1>        0.000
     11 O10        -4.2355   -1.6156   -2.0739 O.3        1 <1>        0.000
     12 O11        -7.0997   -2.3929   -0.3988 O.3        1 <1>        0.000
     13 O12        -6.4980   -0.1062   -1.2294 O.2        1 <1>        0.000
     14 H          -3.0859   -4.4645   -1.5793 H.spc      1 <1>        0.000
     15 H          -1.4448   -4.6249    0.2353 H.spc      1 <1>        0.000
     16 H          -3.8729   -0.7277   -2.1155 H.spc      1 <1>        0.000
     17 H          -6.5909   -2.7776   -1.1163 H.spc      1 <1>        0.000
@<TRIPOS>BOND
     1    7    9 1  
     2    7    8 2  
     3    7   10 1  
     4    2    3 1  
     5    1    2 2  
     6    2   12 1  
     7    2   13 2  
     8    3    4 1  
     9    4    5 2  
    10    4    6 1  
    11    4   11 1  
    12    6    7 1  
    13    9   14 1  
    14   10   15 1  
    15   11   16 1  
    16   12   17 1  
# Name:          frag3-270-2/31924 -- energy: -3.549318
# Creation time: Sat Jun  5 12:52:44 2010


@<TRIPOS>MOLECULE
frag3-270-2/31924 -- energy: -3.549318
   17    16     1     1     1
SMALL
USER_CHARGES


@<TRIPOS>ATOM
      1 S1         -4.5562    0.0117    1.0972 S.2        1 <1>        0.000
      2 P1         -5.8133   -1.1473    0.2220 P.3        1 <1>        0.000
      3 O1         -5.5987   -1.2098   -1.3348 O.3        1 <1>        0.000
      4 P2         -4.4398   -2.0181   -1.9801 P.3        1 <1>        0.000
      5 O2         -4.7382   -3.4361   -1.7658 O.2        1 <1>        0.000
      6 O3         -3.1341   -1.7543   -1.1497 O.3        1 <1>        0.000
      7 P3         -2.2792   -2.9272   -0.5800 P.3        1 <1>        0.000
      8 O4         -1.9749   -3.8254   -1.6732 O.2        1 <1>        0.000
      9 O5         -3.1958   -3.6688    0.4704 O.3        1 <1>        0.000
     10 O9         -1.0241   -2.4385    0.2064 O.3        1 <1>        0.000
     11 O10        -4.2267   -1.6676   -3.4769 O.3        1 <1>        0.000
     12 O11        -5.6733   -2.6881    0.7021 O.3        1 <1>        0.000
     13 O12        -7.1848   -0.7915    0.5320 O.2        1 <1>        0.000
     14 H          -3.3972   -3.0723    1.1952 H.spc      1 <1>        0.000
     15 H          -1.2997   -1.8497    0.9128 H.spc      1 <1>        0.000
     16 H          -4.0351   -0.7307   -3.5609 H.spc      1 <1>        0.000
     17 H          -6.3194   -3.2263    0.2391 H.spc      1 <1>        0.000
@<TRIPOS>BOND
     1    7    9 1  
     2    7    8 2  
     3    7   10 1  
     4    2    3 1  
     5    1    2 2  
     6    2   12 1  
     7    2   13 2  
     8    3    4 1  
     9    4    5 2  
    10    4    6 1  
    11    4   11 1  
    12    6    7 1  
    13    9   14 1  
    14   10   15 1  
    15   11   16 1  
    16   12   17 1  
# Name:          frag3-270-2/31924 -- energy: 0.456907
# Creation time: Sat Jun  5 12:52:44 2010


@<TRIPOS>MOLECULE
frag3-270-2/31924 -- energy: 0.456907
   17    16     1     1     1
SMALL
USER_CHARGES


@<TRIPOS>ATOM
      1 S1         -6.3850    0.7857    0.7878 S.2        1 <1>        0.000
      2 P1         -5.9801   -0.9739    0.2124 P.3        1 <1>        0.000
      3 O1         -4.6554   -1.1570   -0.6155 O.3        1 <1>        0.000
      4 P2         -4.4461   -2.3382   -1.5948 P.3        1 <1>        0.000
      5 O2         -5.7283   -2.8556   -1.9570 O.2        1 <1>        0.000
      6 O3         -3.5501   -3.3787   -0.8615 O.3        1 <1>        0.000
      7 P3         -2.0206   -3.1259   -0.6421 P.3        1 <1>        0.000
      8 O4         -1.8705   -1.8045   -0.0855 O.2        1 <1>        0.000
      9 O5         -1.3974   -3.1351   -2.1011 O.3        1 <1>        0.000
     10 O9         -1.3356   -4.2568    0.1646 O.3        1 <1>        0.000
     11 O10        -3.6044   -1.8677   -2.8567 O.3        1 <1>        0.000
     12 O11        -5.8415   -1.9624    1.4874 O.3        1 <1>        0.000
     13 O12        -7.0241   -1.4908   -0.6685 O.2        1 <1>        0.000
     14 H          -1.4915   -4.0110   -2.4825 H.spc      1 <1>        0.000
     15 H          -1.4850   -5.0973   -0.2745 H.spc      1 <1>        0.000
     16 H          -2.7547   -1.5293   -2.5651 H.spc      1 <1>        0.000
     17 H          -5.6366   -2.8493    1.1825 H.spc      1 <1>        0.000
@<TRIPOS>BOND
     1    7    9 1  
     2    7    8 2  
     3    7   10 1  
     4    2    3 1  
     5    1    2 2  
     6    2   12 1  
     7    2   13 2  
     8    3    4 1  
     9    4    5 2  
    10    4    6 1  
    11    4   11 1  
    12    6    7 1  
    13    9   14 1  
    14   10   15 1  
    15   11   16 1  
    16   12   17 1  
