#      Rotatable Fragment
#      Build by yxyuan
#
# Name:          frag3-126-39/31924
# Creation time: Sat Jun  5 12:52:02 2010


@<TRIPOS>MOLECULE
frag3-126-39/31924
    6     5     1     1     1
SMALL
USER_CHARGES


@<TRIPOS>ATOM
      1 N2         -4.1830    0.7441    2.2021 N.3        1 <1>        0.000
      2 N3         -5.5255    0.5204    1.8705 N.3        1 <1>        0.000
      3 H          -3.5923    0.0996    1.6767 H.spc      1 <1>        0.000
      4 H          -3.9318    1.7047    1.9685 H.spc      1 <1>        0.000
      5 H          -6.1162    1.1649    2.3959 H.spc      1 <1>        0.000
      6 H          -5.6577    0.6741    0.8709 H.spc      1 <1>        0.000
@<TRIPOS>BOND
     1    1    2 1  
     2    1    3 1  
     3    1    4 1  
     4    2    5 1  
     5    2    6 1  
# Name:          frag3-126-39/31924 -- energy: -0.069053
# Creation time: Sat Jun  5 12:52:02 2010


@<TRIPOS>MOLECULE
frag3-126-39/31924 -- energy: -0.069053
    6     5     1     1     1
SMALL
USER_CHARGES


@<TRIPOS>ATOM
      1 N2         -4.1830    0.7441    2.2021 N.3        1 <1>        0.000
      2 N3         -5.5255    0.5204    1.8705 N.3        1 <1>        0.000
      3 H          -3.5923    0.0996    1.6767 H.spc      1 <1>        0.000
      4 H          -3.9318    1.7047    1.9685 H.spc      1 <1>        0.000
      5 H          -6.1162    1.1649    2.3959 H.spc      1 <1>        0.000
      6 H          -5.6577    0.6741    0.8709 H.spc      1 <1>        0.000
@<TRIPOS>BOND
     1    1    2 1  
     2    1    3 1  
     3    1    4 1  
     4    2    5 1  
     5    2    6 1  
