#      Rotatable Fragment
#      Build by yxyuan
#
# Name:          frag4-292-5499/150395
# Creation time: Sat Jun  5 12:53:29 2010


@<TRIPOS>MOLECULE
frag4-292-5499/150395
   16    17     1     1     1
SMALL
USER_CHARGES


@<TRIPOS>ATOM
      1 C1         -1.6548    0.4935    0.1328 C.2        1 <1>        0.000
      2 C2         -2.9437    0.9173    0.0246 C.2        1 <1>        0.000
      3 C4         -1.2553    1.7910   -0.1706 C.3        1 <1>        0.000
      4 C5         -2.6121    2.2393   -0.2876 C.2        1 <1>        0.000
      5 C6         -4.1956    0.3209    0.1546 C.2        1 <1>        0.000
      6 N1         -1.9247    2.4226   -0.3028 N.2        1 <1>        0.000
      7 C8         -3.7730    3.0209   -0.5425 C.2        1 <1>        0.000
      8 C9         -5.2901    1.1550   -0.0766 C.2        1 <1>        0.000
      9 C11        -5.0675    2.4910   -0.4308 C.2        1 <1>        0.000
     10 H          -1.1551   -0.4487    0.3582 H.spc      1 <1>        0.000
     11 H          -0.7227    1.7220   -1.1191 H.spc      1 <1>        0.000
     12 H          -0.6901    2.1362    0.6951 H.spc      1 <1>        0.000
     13 H          -4.3128   -0.7298    0.4199 H.spc      1 <1>        0.000
     14 H          -3.6532    4.0644   -0.8338 H.spc      1 <1>        0.000
     15 H          -6.3059    0.7711    0.0174 H.spc      1 <1>        0.000
     16 H          -5.9233    3.1374   -0.6252 H.spc      1 <1>        0.000
@<TRIPOS>BOND
     1    7    9 2  
     2    8    9 1  
     3    1    2 2  
     4    2    4 1  
     5    1    3 1  
     6    2    5 1  
     7    3    6 1  
     8    4    7 1  
     9    4    6 2  
    10    5    8 2  
    11    1   10 1  
    12    3   11 1  
    13    3   12 1  
    14    5   13 1  
    15    7   14 1  
    16    8   15 1  
    17    9   16 1  
# Name:          frag4-292-5499/150395 -- energy: 1.253573
# Creation time: Sat Jun  5 12:53:29 2010


@<TRIPOS>MOLECULE
frag4-292-5499/150395 -- energy: 1.253573
   16    17     1     1     1
SMALL
USER_CHARGES


@<TRIPOS>ATOM
      1 C1         -1.6548    0.4935    0.1328 C.2        1 <1>        0.000
      2 C2         -2.9437    0.9173    0.0246 C.2        1 <1>        0.000
      3 C4         -1.2553    1.7910   -0.1706 C.3        1 <1>        0.000
      4 C5         -2.6121    2.2393   -0.2876 C.2        1 <1>        0.000
      5 C6         -4.1956    0.3209    0.1546 C.2        1 <1>        0.000
      6 N1         -1.9247    2.4226   -0.3028 N.2        1 <1>        0.000
      7 C8         -3.7730    3.0209   -0.5425 C.2        1 <1>        0.000
      8 C9         -5.2901    1.1550   -0.0766 C.2        1 <1>        0.000
      9 C11        -5.0675    2.4910   -0.4308 C.2        1 <1>        0.000
     10 H          -1.1551   -0.4487    0.3582 H.spc      1 <1>        0.000
     11 H          -0.7227    1.7220   -1.1191 H.spc      1 <1>        0.000
     12 H          -0.6901    2.1362    0.6951 H.spc      1 <1>        0.000
     13 H          -4.3128   -0.7298    0.4199 H.spc      1 <1>        0.000
     14 H          -3.6532    4.0644   -0.8338 H.spc      1 <1>        0.000
     15 H          -6.3059    0.7711    0.0174 H.spc      1 <1>        0.000
     16 H          -5.9233    3.1374   -0.6252 H.spc      1 <1>        0.000
@<TRIPOS>BOND
     1    7    9 2  
     2    8    9 1  
     3    1    2 2  
     4    2    4 1  
     5    1    3 1  
     6    2    5 1  
     7    3    6 1  
     8    4    7 1  
     9    4    6 2  
    10    5    8 2  
    11    1   10 1  
    12    3   11 1  
    13    3   12 1  
    14    5   13 1  
    15    7   14 1  
    16    8   15 1  
    17    9   16 1  
