#      Rotatable Fragment
#      Build by yxyuan
#
# Name:          frag3-214-7/96164
# Creation time: Sat Jun  5 12:53:13 2010


@<TRIPOS>MOLECULE
frag3-214-7/96164
   14    13     1     1     1
SMALL
USER_CHARGES


@<TRIPOS>ATOM
      1 C14        -0.3423   -0.7173   -0.1842 C.2        1 <1>        0.000
      2 N3          0.5242   -0.3741    0.8089 N.am       1 <1>        0.000
      3 O3         -0.3937   -0.1496   -1.2682 O.2        1 <1>        0.000
      4 C23         0.8755   -1.1826    1.8152 C.2        1 <1>        0.000
      5 N4          1.7843   -1.0236    2.7978 N.am       1 <1>        0.000
      6 N5          0.2592   -2.2818    1.8424 N.2        1 <1>        0.000
      7 C31         1.9213   -1.7831    3.9655 C.2        1 <1>        0.000
      8 O6          0.8028   -1.6153    4.6992 O.3        1 <1>        0.000
      9 O7          2.8939   -2.3878    4.3630 O.2        1 <1>        0.000
     10 H          -1.0291   -1.5443   -0.0040 H.spc      1 <1>        0.000
     11 H           0.9320    0.5605    0.7838 H.spc      1 <1>        0.000
     12 H           2.4501   -0.2605    2.6762 H.spc      1 <1>        0.000
     13 H           0.4670   -2.9651    2.5706 H.spc      1 <1>        0.000
     14 H           0.1627   -1.1092    4.1935 H.spc      1 <1>        0.000
@<TRIPOS>BOND
     1    1    2 am 
     2    1    3 2  
     3    2    4 1  
     4    4    6 2  
     5    4    5 1  
     6    5    7 am 
     7    7    8 1  
     8    7    9 2  
     9    1   10 1  
    10    2   11 1  
    11    5   12 1  
    12    6   13 1  
    13    8   14 1  
# Name:          frag3-214-7/96164
# Creation time: Sat Jun  5 12:53:13 2010


@<TRIPOS>MOLECULE
frag3-214-7/96164
   14    13     1     1     1
SMALL
USER_CHARGES


@<TRIPOS>ATOM
      1 C14        -0.0844   -0.8605   -0.3344 C.2        1 <1>        0.000
      2 N3          0.5559   -0.3820    0.7747 N.am       1 <1>        0.000
      3 O3         -0.8410   -0.1884   -1.0387 O.2        1 <1>        0.000
      4 C23         1.0063   -1.1299    1.7855 C.2        1 <1>        0.000
      5 N4          1.4385   -0.8301    3.0132 N.am       1 <1>        0.000
      6 N5          1.0968   -2.3597    1.4714 N.2        1 <1>        0.000
      7 C31         1.6646   -1.7495    4.0159 C.2        1 <1>        0.000
      8 O6          1.2984   -1.1535    5.1599 O.3        1 <1>        0.000
      9 O7          2.1902   -2.8615    3.9922 O.2        1 <1>        0.000
     10 H           0.0844   -1.9006   -0.6133 H.spc      1 <1>        0.000
     11 H           0.7011    0.6258    0.8350 H.spc      1 <1>        0.000
     12 H           1.6144    0.1521    3.2249 H.spc      1 <1>        0.000
     13 H           1.4773   -3.0300    2.1394 H.spc      1 <1>        0.000
     14 H           0.9100   -0.2978    4.9635 H.spc      1 <1>        0.000
@<TRIPOS>BOND
     1    1    2 am 
     2    1    3 2  
     3    2    4 1  
     4    4    6 2  
     5    4    5 1  
     6    5    7 am 
     7    7    8 1  
     8    7    9 2  
     9    1   10 1  
    10    2   11 1  
    11    5   12 1  
    12    6   13 1  
    13    8   14 1  
# Name:          frag3-214-7/96164
# Creation time: Sat Jun  5 12:53:13 2010


@<TRIPOS>MOLECULE
frag3-214-7/96164
   14    13     1     1     1
SMALL
USER_CHARGES


@<TRIPOS>ATOM
      1 C14        -0.1223   -0.1731   -0.0316 C.2        1 <1>        0.000
      2 N3          0.9517   -0.8517    0.4663 N.am       1 <1>        0.000
      3 O3         -0.7233   -0.3509   -1.0927 O.2        1 <1>        0.000
      4 C23         0.9415   -1.2711    1.7257 C.2        1 <1>        0.000
      5 N4          1.9538   -1.5069    2.5770 N.am       1 <1>        0.000
      6 N5         -0.2108   -1.5839    2.1847 N.2        1 <1>        0.000
      7 C31         1.8991   -1.7654    3.9544 C.2        1 <1>        0.000
      8 O6          0.8460   -2.5144    4.2997 O.3        1 <1>        0.000
      9 O7          2.7897   -1.4978    4.7562 O.2        1 <1>        0.000
     10 H          -0.4998    0.6358    0.5939 H.spc      1 <1>        0.000
     11 H           1.7602   -1.0362   -0.1276 H.spc      1 <1>        0.000
     12 H           2.8875   -1.4965    2.1664 H.spc      1 <1>        0.000
     13 H          -0.2971   -1.9751    3.1227 H.spc      1 <1>        0.000
     14 H           0.2627   -2.6124    3.5435 H.spc      1 <1>        0.000
@<TRIPOS>BOND
     1    1    2 am 
     2    1    3 2  
     3    2    4 1  
     4    4    6 2  
     5    4    5 1  
     6    5    7 am 
     7    7    8 1  
     8    7    9 2  
     9    1   10 1  
    10    2   11 1  
    11    5   12 1  
    12    6   13 1  
    13    8   14 1  
# Name:          frag3-214-7/96164
# Creation time: Sat Jun  5 12:53:13 2010


@<TRIPOS>MOLECULE
frag3-214-7/96164
   14    13     1     1     1
SMALL
USER_CHARGES


@<TRIPOS>ATOM
      1 C14        -0.2697   -0.4955   -0.0803 C.2        1 <1>        0.000
      2 N3          0.8764   -0.6339    0.6526 N.am       1 <1>        0.000
      3 O3         -0.5061   -1.0023   -1.1715 O.2        1 <1>        0.000
      4 C23         0.8959   -0.7980    1.9829 C.2        1 <1>        0.000
      5 N4          1.8417   -0.9004    2.8917 N.am       1 <1>        0.000
      6 N5         -0.2605   -0.7932    2.5145 N.2        1 <1>        0.000
      7 C31         1.9236   -1.9354    3.7974 C.2        1 <1>        0.000
      8 O6          1.2763   -3.0401    3.4028 O.3        1 <1>        0.000
      9 O7          2.5476   -1.9163    4.8496 O.2        1 <1>        0.000
     10 H          -1.0530    0.1290    0.3493 H.spc      1 <1>        0.000
     11 H           1.7683   -0.6109    0.1583 H.spc      1 <1>        0.000
     12 H           2.5549   -0.1721    2.9278 H.spc      1 <1>        0.000
     13 H          -0.3564   -0.8638    3.5275 H.spc      1 <1>        0.000
     14 H           0.8455   -2.8738    2.5611 H.spc      1 <1>        0.000
@<TRIPOS>BOND
     1    1    2 am 
     2    1    3 2  
     3    2    4 1  
     4    4    6 2  
     5    4    5 1  
     6    5    7 am 
     7    7    8 1  
     8    7    9 2  
     9    1   10 1  
    10    2   11 1  
    11    5   12 1  
    12    6   13 1  
    13    8   14 1  
# Name:          frag3-214-7/96164
# Creation time: Sat Jun  5 12:53:13 2010


@<TRIPOS>MOLECULE
frag3-214-7/96164
   14    13     1     1     1
SMALL
USER_CHARGES


@<TRIPOS>ATOM
      1 C14         0.5039   -0.8598   -0.1169 C.2        1 <1>        0.000
      2 N3         -0.2146   -0.5256    0.9633 N.am       1 <1>        0.000
      3 O3          0.4240   -0.3763   -1.2351 O.2        1 <1>        0.000
      4 C23         0.3502   -1.0339    1.9839 C.2        1 <1>        0.000
      5 N4          1.5653   -1.4256    2.3885 N.am       1 <1>        0.000
      6 N5         -0.5629   -1.2246    2.8308 N.2        1 <1>        0.000
      7 C31         2.0106   -1.8250    3.6476 C.2        1 <1>        0.000
      8 O6          1.1189   -2.6043    4.2824 O.3        1 <1>        0.000
      9 O7          3.1300   -1.6400    4.0951 O.2        1 <1>        0.000
     10 H           1.2415   -1.6510    0.0174 H.spc      1 <1>        0.000
     11 H          -1.0651    0.0375    0.9669 H.spc      1 <1>        0.000
     12 H           2.2784   -1.4328    1.6593 H.spc      1 <1>        0.000
     13 H          -0.3417   -1.6452    3.7333 H.spc      1 <1>        0.000
     14 H           0.3012   -2.6276    3.7801 H.spc      1 <1>        0.000
@<TRIPOS>BOND
     1    1    2 am 
     2    1    3 2  
     3    2    4 1  
     4    4    6 2  
     5    4    5 1  
     6    5    7 am 
     7    7    8 1  
     8    7    9 2  
     9    1   10 1  
    10    2   11 1  
    11    5   12 1  
    12    6   13 1  
    13    8   14 1  
# Name:          frag3-214-7/96164
# Creation time: Sat Jun  5 12:53:13 2010


@<TRIPOS>MOLECULE
frag3-214-7/96164
   14    13     1     1     1
SMALL
USER_CHARGES


@<TRIPOS>ATOM
      1 C14         0.2229   -0.1824    0.1536 C.2        1 <1>        0.000
      2 N3         -0.5628   -1.1014    0.7721 N.am       1 <1>        0.000
      3 O3          1.4100   -0.2368   -0.1497 O.2        1 <1>        0.000
      4 C23         0.1905   -1.4915    1.7721 C.2        1 <1>        0.000
      5 N4          1.4284   -1.3847    2.2023 N.am       1 <1>        0.000
      6 N5         -0.5497   -2.2297    2.4640 N.2        1 <1>        0.000
      7 C31         1.9669   -1.5477    3.4734 C.2        1 <1>        0.000
      8 O6          1.0726   -1.9474    4.3908 O.3        1 <1>        0.000
      9 O7          3.1465   -1.3937    3.7610 O.2        1 <1>        0.000
     10 H          -0.2791    0.7472   -0.1147 H.spc      1 <1>        0.000
     11 H          -1.5021   -1.4103    0.5219 H.spc      1 <1>        0.000
     12 H           2.1081   -1.1412    1.4819 H.spc      1 <1>        0.000
     13 H          -0.1766   -2.6937    3.2921 H.spc      1 <1>        0.000
     14 H           0.2055   -2.0119    3.9839 H.spc      1 <1>        0.000
@<TRIPOS>BOND
     1    1    2 am 
     2    1    3 2  
     3    2    4 1  
     4    4    6 2  
     5    4    5 1  
     6    5    7 am 
     7    7    8 1  
     8    7    9 2  
     9    1   10 1  
    10    2   11 1  
    11    5   12 1  
    12    6   13 1  
    13    8   14 1  
# Name:          frag3-214-7/96164
# Creation time: Sat Jun  5 12:53:13 2010


@<TRIPOS>MOLECULE
frag3-214-7/96164
   14    13     1     1     1
SMALL
USER_CHARGES


@<TRIPOS>ATOM
      1 C14        -0.3030   -0.5842   -0.0755 C.2        1 <1>        0.000
      2 N3          0.7931   -1.3253    0.3265 N.am       1 <1>        0.000
      3 O3         -0.3448    0.5713   -0.5038 O.2        1 <1>        0.000
      4 C23         0.9350   -1.5816    1.6218 C.2        1 <1>        0.000
      5 N4          1.9403   -1.5663    2.4989 N.am       1 <1>        0.000
      6 N5         -0.1275   -2.1304    2.0410 N.2        1 <1>        0.000
      7 C31         1.8855   -1.6015    3.8950 C.2        1 <1>        0.000
      8 O6          0.6944   -1.8875    4.4116 O.3        1 <1>        0.000
      9 O7          2.8524   -1.4096    4.6242 O.2        1 <1>        0.000
     10 H          -1.2645   -1.0926   -0.0037 H.spc      1 <1>        0.000
     11 H           1.4736   -1.6656   -0.3529 H.spc      1 <1>        0.000
     12 H           2.8762   -1.5230    2.0957 H.spc      1 <1>        0.000
     13 H          -0.1640   -2.5168    2.9843 H.spc      1 <1>        0.000
     14 H           0.0590   -2.0055    3.7018 H.spc      1 <1>        0.000
@<TRIPOS>BOND
     1    1    2 am 
     2    1    3 2  
     3    2    4 1  
     4    4    6 2  
     5    4    5 1  
     6    5    7 am 
     7    7    8 1  
     8    7    9 2  
     9    1   10 1  
    10    2   11 1  
    11    5   12 1  
    12    6   13 1  
    13    8   14 1  
# Name:          frag3-214-7/96164
# Creation time: Sat Jun  5 12:53:13 2010


@<TRIPOS>MOLECULE
frag3-214-7/96164
   14    13     1     1     1
SMALL
USER_CHARGES


@<TRIPOS>ATOM
      1 C14        -0.1092   -0.3976    0.1893 C.2        1 <1>        0.000
      2 N3          0.9346   -1.2367    0.0681 N.am       1 <1>        0.000
      3 O3         -0.8868   -0.2310    1.1226 O.2        1 <1>        0.000
      4 C23         1.2929   -1.4374    1.3015 C.2        1 <1>        0.000
      5 N4          1.1898   -0.9115    2.5062 N.am       1 <1>        0.000
      6 N5          2.0438   -2.4596    1.2329 N.2        1 <1>        0.000
      7 C31         1.3019   -1.5410    3.7312 C.2        1 <1>        0.000
      8 O6          1.0148   -0.6026    4.6687 O.3        1 <1>        0.000
      9 O7          1.5434   -2.6977    4.0191 O.2        1 <1>        0.000
     10 H          -0.2931    0.2344   -0.6795 H.spc      1 <1>        0.000
     11 H           1.3447   -1.6214   -0.7829 H.spc      1 <1>        0.000
     12 H           1.0029    0.0907    2.5381 H.spc      1 <1>        0.000
     13 H           2.5086   -2.8082    2.0713 H.spc      1 <1>        0.000
     14 H           0.8560    0.2404    4.2378 H.spc      1 <1>        0.000
@<TRIPOS>BOND
     1    1    2 am 
     2    1    3 2  
     3    2    4 1  
     4    4    6 2  
     5    4    5 1  
     6    5    7 am 
     7    7    8 1  
     8    7    9 2  
     9    1   10 1  
    10    2   11 1  
    11    5   12 1  
    12    6   13 1  
    13    8   14 1  
# Name:          frag3-214-7/96164
# Creation time: Sat Jun  5 12:53:13 2010


@<TRIPOS>MOLECULE
frag3-214-7/96164
   14    13     1     1     1
SMALL
USER_CHARGES


@<TRIPOS>ATOM
      1 C14        -0.1444   -0.5650    0.2614 C.2        1 <1>        0.000
      2 N3          0.0368   -1.1636    1.5049 N.am       1 <1>        0.000
      3 O3         -0.5771    0.5829    0.0612 O.2        1 <1>        0.000
      4 C23         1.0578   -1.9616    1.7246 C.2        1 <1>        0.000
      5 N4          1.9227   -2.2621    2.6634 N.am       1 <1>        0.000
      6 N5          1.2739   -2.7586    0.7396 N.2        1 <1>        0.000
      7 C31         1.6652   -1.4619    3.7095 C.2        1 <1>        0.000
      8 O6          1.5342   -0.1828    3.2888 O.3        1 <1>        0.000
      9 O7          1.5562   -1.7424    4.8862 O.2        1 <1>        0.000
     10 H           0.1168   -1.1564   -0.6162 H.spc      1 <1>        0.000
     11 H          -0.6305   -0.9808    2.2544 H.spc      1 <1>        0.000
     12 H           2.6540   -2.9711    2.6088 H.spc      1 <1>        0.000
     13 H           2.0155   -3.4562    0.8013 H.spc      1 <1>        0.000
     14 H           1.6500   -0.1469    2.3365 H.spc      1 <1>        0.000
@<TRIPOS>BOND
     1    1    2 am 
     2    1    3 2  
     3    2    4 1  
     4    4    6 2  
     5    4    5 1  
     6    5    7 am 
     7    7    8 1  
     8    7    9 2  
     9    1   10 1  
    10    2   11 1  
    11    5   12 1  
    12    6   13 1  
    13    8   14 1  
# Name:          frag3-214-7/96164
# Creation time: Sat Jun  5 12:53:13 2010


@<TRIPOS>MOLECULE
frag3-214-7/96164
   14    13     1     1     1
SMALL
USER_CHARGES


@<TRIPOS>ATOM
      1 C14        -0.2131   -0.9999   -0.2047 C.2        1 <1>        0.000
      2 N3          0.2981   -0.3910    0.9049 N.am       1 <1>        0.000
      3 O3         -0.8038   -0.3938   -1.1019 O.2        1 <1>        0.000
      4 C23         1.0466   -1.0181    1.8243 C.2        1 <1>        0.000
      5 N4          1.3368   -0.7817    3.0851 N.am       1 <1>        0.000
      6 N5          1.7438   -1.9238    1.2977 N.2        1 <1>        0.000
      7 C31         1.5417   -1.7959    3.9965 C.2        1 <1>        0.000
      8 O6          2.1655   -1.2292    5.0354 O.3        1 <1>        0.000
      9 O7          1.2097   -2.9817    4.0023 O.2        1 <1>        0.000
     10 H          -0.0929   -2.0788   -0.3030 H.spc      1 <1>        0.000
     11 H           0.0990    0.5998    1.0430 H.spc      1 <1>        0.000
     12 H           1.4129    0.1856    3.3997 H.spc      1 <1>        0.000
     13 H           2.4587   -2.4012    1.8466 H.spc      1 <1>        0.000
     14 H           2.3382   -0.3056    4.8385 H.spc      1 <1>        0.000
@<TRIPOS>BOND
     1    1    2 am 
     2    1    3 2  
     3    2    4 1  
     4    4    6 2  
     5    4    5 1  
     6    5    7 am 
     7    7    8 1  
     8    7    9 2  
     9    1   10 1  
    10    2   11 1  
    11    5   12 1  
    12    6   13 1  
    13    8   14 1  
# Name:          frag3-214-7/96164 -- energy: 0.113811
# Creation time: Sat Jun  5 12:53:13 2010


@<TRIPOS>MOLECULE
frag3-214-7/96164 -- energy: 0.113811
   14    13     1     1     1
SMALL
USER_CHARGES


@<TRIPOS>ATOM
      1 C14        -0.3423   -0.7173   -0.1842 C.2        1 <1>        0.000
      2 N3          0.5242   -0.3741    0.8089 N.am       1 <1>        0.000
      3 O3         -0.3937   -0.1496   -1.2682 O.2        1 <1>        0.000
      4 C23         0.8755   -1.1826    1.8152 C.2        1 <1>        0.000
      5 N4          1.7843   -1.0236    2.7978 N.am       1 <1>        0.000
      6 N5          0.2592   -2.2818    1.8424 N.2        1 <1>        0.000
      7 C31         1.9213   -1.7831    3.9655 C.2        1 <1>        0.000
      8 O6          0.8028   -1.6153    4.6992 O.3        1 <1>        0.000
      9 O7          2.8939   -2.3878    4.3630 O.2        1 <1>        0.000
     10 H          -1.0291   -1.5443   -0.0040 H.spc      1 <1>        0.000
     11 H           0.9320    0.5605    0.7838 H.spc      1 <1>        0.000
     12 H           2.4501   -0.2605    2.6762 H.spc      1 <1>        0.000
     13 H           0.4670   -2.9651    2.5706 H.spc      1 <1>        0.000
     14 H           0.1627   -1.1092    4.1935 H.spc      1 <1>        0.000
@<TRIPOS>BOND
     1    1    2 am 
     2    1    3 2  
     3    2    4 1  
     4    4    6 2  
     5    4    5 1  
     6    5    7 am 
     7    7    8 1  
     8    7    9 2  
     9    1   10 1  
    10    2   11 1  
    11    5   12 1  
    12    6   13 1  
    13    8   14 1  
# Name:          frag3-214-7/96164 -- energy: 1.244324
# Creation time: Sat Jun  5 12:53:13 2010


@<TRIPOS>MOLECULE
frag3-214-7/96164 -- energy: 1.244324
   14    13     1     1     1
SMALL
USER_CHARGES


@<TRIPOS>ATOM
      1 C14        -0.2697   -0.4955   -0.0803 C.2        1 <1>        0.000
      2 N3          0.8764   -0.6339    0.6526 N.am       1 <1>        0.000
      3 O3         -0.5061   -1.0023   -1.1715 O.2        1 <1>        0.000
      4 C23         0.8959   -0.7980    1.9829 C.2        1 <1>        0.000
      5 N4          1.8417   -0.9004    2.8917 N.am       1 <1>        0.000
      6 N5         -0.2605   -0.7932    2.5145 N.2        1 <1>        0.000
      7 C31         1.9236   -1.9354    3.7974 C.2        1 <1>        0.000
      8 O6          1.2763   -3.0401    3.4028 O.3        1 <1>        0.000
      9 O7          2.5476   -1.9163    4.8496 O.2        1 <1>        0.000
     10 H          -1.0530    0.1290    0.3493 H.spc      1 <1>        0.000
     11 H           1.7683   -0.6109    0.1583 H.spc      1 <1>        0.000
     12 H           2.5549   -0.1721    2.9278 H.spc      1 <1>        0.000
     13 H          -0.3564   -0.8638    3.5275 H.spc      1 <1>        0.000
     14 H           0.8455   -2.8738    2.5611 H.spc      1 <1>        0.000
@<TRIPOS>BOND
     1    1    2 am 
     2    1    3 2  
     3    2    4 1  
     4    4    6 2  
     5    4    5 1  
     6    5    7 am 
     7    7    8 1  
     8    7    9 2  
     9    1   10 1  
    10    2   11 1  
    11    5   12 1  
    12    6   13 1  
    13    8   14 1  
# Name:          frag3-214-7/96164 -- energy: 1.273569
# Creation time: Sat Jun  5 12:53:13 2010


@<TRIPOS>MOLECULE
frag3-214-7/96164 -- energy: 1.273569
   14    13     1     1     1
SMALL
USER_CHARGES


@<TRIPOS>ATOM
      1 C14        -0.2131   -0.9999   -0.2047 C.2        1 <1>        0.000
      2 N3          0.2981   -0.3910    0.9049 N.am       1 <1>        0.000
      3 O3         -0.8038   -0.3938   -1.1019 O.2        1 <1>        0.000
      4 C23         1.0466   -1.0181    1.8243 C.2        1 <1>        0.000
      5 N4          1.3368   -0.7817    3.0851 N.am       1 <1>        0.000
      6 N5          1.7438   -1.9238    1.2977 N.2        1 <1>        0.000
      7 C31         1.5417   -1.7959    3.9965 C.2        1 <1>        0.000
      8 O6          2.1655   -1.2292    5.0354 O.3        1 <1>        0.000
      9 O7          1.2097   -2.9817    4.0023 O.2        1 <1>        0.000
     10 H          -0.0929   -2.0788   -0.3030 H.spc      1 <1>        0.000
     11 H           0.0990    0.5998    1.0430 H.spc      1 <1>        0.000
     12 H           1.4129    0.1856    3.3997 H.spc      1 <1>        0.000
     13 H           2.4587   -2.4012    1.8466 H.spc      1 <1>        0.000
     14 H           2.3382   -0.3056    4.8385 H.spc      1 <1>        0.000
@<TRIPOS>BOND
     1    1    2 am 
     2    1    3 2  
     3    2    4 1  
     4    4    6 2  
     5    4    5 1  
     6    5    7 am 
     7    7    8 1  
     8    7    9 2  
     9    1   10 1  
    10    2   11 1  
    11    5   12 1  
    12    6   13 1  
    13    8   14 1  
