#      Rotatable Fragment
#      Build by yxyuan
#
# Name:          frag3-159-12/31924
# Creation time: Sat Jun  5 12:52:05 2010


@<TRIPOS>MOLECULE
frag3-159-12/31924
    7     6     1     1     1
SMALL
USER_CHARGES


@<TRIPOS>ATOM
      1 O2          1.3457    0.5092    0.2928 O.3        1 <1>        0.000
      2 C9          0.2577   -0.2439    0.0438 C.2        1 <1>        0.000
      3 C10        -1.0052    0.1419   -0.0501 C.2        1 <1>        0.000
      4 H           2.1257   -0.0503    0.3010 H.spc      1 <1>        0.000
      5 H           0.4404   -1.3090   -0.0989 H.spc      1 <1>        0.000
      6 H          -1.2654    1.1923    0.0809 H.spc      1 <1>        0.000
      7 H          -1.7848   -0.5908   -0.2584 H.spc      1 <1>        0.000
@<TRIPOS>BOND
     1    2    3 2  
     2    1    2 1  
     3    1    4 1  
     4    2    5 1  
     5    3    6 1  
     6    3    7 1  
# Name:          frag3-159-12/31924 -- energy: -0.120854
# Creation time: Sat Jun  5 12:52:05 2010


@<TRIPOS>MOLECULE
frag3-159-12/31924 -- energy: -0.120854
    7     6     1     1     1
SMALL
USER_CHARGES


@<TRIPOS>ATOM
      1 O2          1.3457    0.5092    0.2928 O.3        1 <1>        0.000
      2 C9          0.2577   -0.2439    0.0438 C.2        1 <1>        0.000
      3 C10        -1.0052    0.1419   -0.0501 C.2        1 <1>        0.000
      4 H           2.1257   -0.0503    0.3010 H.spc      1 <1>        0.000
      5 H           0.4404   -1.3090   -0.0989 H.spc      1 <1>        0.000
      6 H          -1.2654    1.1923    0.0809 H.spc      1 <1>        0.000
      7 H          -1.7848   -0.5908   -0.2584 H.spc      1 <1>        0.000
@<TRIPOS>BOND
     1    2    3 2  
     2    1    2 1  
     3    1    4 1  
     4    2    5 1  
     5    3    6 1  
     6    3    7 1  
