#      Rotatable Fragment
#      Build by yxyuan
#
# Name:          frag5-647-27/41815
# Creation time: Sat Jun  5 12:53:01 2010


@<TRIPOS>MOLECULE
frag5-647-27/41815
   29    30     1     1     1
SMALL
USER_CHARGES


@<TRIPOS>ATOM
      1 C12        -2.8330   -0.2249    0.9635 C.3        1 <1>        0.000
      2 C13        -3.7305    1.0350    0.9044 C.3        1 <1>        0.000
      3 C14        -5.2349    0.6513    1.0105 C.3        1 <1>        0.000
      4 C15        -5.5998   -0.3858   -0.0803 C.3        1 <1>        0.000
      5 C16        -4.6972   -1.6346   -0.0078 C.3        1 <1>        0.000
      6 C17        -3.2128   -1.2384   -0.1328 C.3        1 <1>        0.000
      7 C19        -6.0696    1.9194    1.0286 C.2        1 <1>        0.000
      8 C20        -5.7132    2.9057    2.1157 C.3        1 <1>        0.000
      9 C21        -4.2305    3.2987    1.9703 C.3        1 <1>        0.000
     10 C22        -3.3340    2.0460    2.0068 C.3        1 <1>        0.000
     11 C23        -7.0502    2.1914    0.1542 C.2        1 <1>        0.000
     12 H          -1.7980    0.0801    0.8090 H.spc      1 <1>        0.000
     13 H          -2.9673   -0.7000    1.9353 H.spc      1 <1>        0.000
     14 H          -3.5762    1.5154   -0.0618 H.spc      1 <1>        0.000
     15 H          -5.4585    0.1430    1.9485 H.spc      1 <1>        0.000
     16 H          -5.4623    0.0803   -1.0560 H.spc      1 <1>        0.000
     17 H          -6.6319   -0.6993    0.0765 H.spc      1 <1>        0.000
     18 H          -4.8519   -2.1272    0.9522 H.spc      1 <1>        0.000
     19 H          -4.9544   -2.3046   -0.8282 H.spc      1 <1>        0.000
     20 H          -2.5967   -2.1305   -0.0203 H.spc      1 <1>        0.000
     21 H          -3.0480   -0.7832   -1.1094 H.spc      1 <1>        0.000
     22 H          -5.8789    2.4516    3.0927 H.spc      1 <1>        0.000
     23 H          -6.3392    3.7935    2.0261 H.spc      1 <1>        0.000
     24 H          -4.0907    3.8065    1.0160 H.spc      1 <1>        0.000
     25 H          -3.9555    3.9551    2.7959 H.spc      1 <1>        0.000
     26 H          -2.3020    2.3541    1.8387 H.spc      1 <1>        0.000
     27 H          -3.4525    1.5639    2.9772 H.spc      1 <1>        0.000
     28 H          -7.5978    3.1312    0.2244 H.spc      1 <1>        0.000
     29 H          -7.2992    1.4726   -0.6264 H.spc      1 <1>        0.000
@<TRIPOS>BOND
     1    1    6 1  
     2    3    7 1  
     3    7   11 2  
     4    5    6 1  
     5    2   10 1  
     6    3    4 1  
     7    9   10 1  
     8    4    5 1  
     9    1    2 1  
    10    2    3 1  
    11    7    8 1  
    12    8    9 1  
    13    1   12 1  
    14    1   13 1  
    15    2   14 1  
    16    3   15 1  
    17    4   16 1  
    18    4   17 1  
    19    5   18 1  
    20    5   19 1  
    21    6   20 1  
    22    6   21 1  
    23    8   22 1  
    24    8   23 1  
    25    9   24 1  
    26    9   25 1  
    27   10   26 1  
    28   10   27 1  
    29   11   28 1  
    30   11   29 1  
# Name:          frag5-647-27/41815 -- energy: -4.321150
# Creation time: Sat Jun  5 12:53:01 2010


@<TRIPOS>MOLECULE
frag5-647-27/41815 -- energy: -4.321150
   29    30     1     1     1
SMALL
USER_CHARGES


@<TRIPOS>ATOM
      1 C12        -2.8330   -0.2249    0.9635 C.3        1 <1>        0.000
      2 C13        -3.7305    1.0350    0.9044 C.3        1 <1>        0.000
      3 C14        -5.2349    0.6513    1.0105 C.3        1 <1>        0.000
      4 C15        -5.5998   -0.3858   -0.0803 C.3        1 <1>        0.000
      5 C16        -4.6972   -1.6346   -0.0078 C.3        1 <1>        0.000
      6 C17        -3.2128   -1.2384   -0.1328 C.3        1 <1>        0.000
      7 C19        -6.0696    1.9194    1.0286 C.2        1 <1>        0.000
      8 C20        -5.7132    2.9057    2.1157 C.3        1 <1>        0.000
      9 C21        -4.2305    3.2987    1.9703 C.3        1 <1>        0.000
     10 C22        -3.3340    2.0460    2.0068 C.3        1 <1>        0.000
     11 C23        -7.0502    2.1914    0.1542 C.2        1 <1>        0.000
     12 H          -1.7980    0.0801    0.8090 H.spc      1 <1>        0.000
     13 H          -2.9673   -0.7000    1.9353 H.spc      1 <1>        0.000
     14 H          -3.5762    1.5154   -0.0618 H.spc      1 <1>        0.000
     15 H          -5.4585    0.1430    1.9485 H.spc      1 <1>        0.000
     16 H          -5.4623    0.0803   -1.0560 H.spc      1 <1>        0.000
     17 H          -6.6319   -0.6993    0.0765 H.spc      1 <1>        0.000
     18 H          -4.8519   -2.1272    0.9522 H.spc      1 <1>        0.000
     19 H          -4.9544   -2.3046   -0.8282 H.spc      1 <1>        0.000
     20 H          -2.5967   -2.1305   -0.0203 H.spc      1 <1>        0.000
     21 H          -3.0480   -0.7832   -1.1094 H.spc      1 <1>        0.000
     22 H          -5.8789    2.4516    3.0927 H.spc      1 <1>        0.000
     23 H          -6.3392    3.7935    2.0261 H.spc      1 <1>        0.000
     24 H          -4.0907    3.8065    1.0160 H.spc      1 <1>        0.000
     25 H          -3.9555    3.9551    2.7959 H.spc      1 <1>        0.000
     26 H          -2.3020    2.3541    1.8387 H.spc      1 <1>        0.000
     27 H          -3.4525    1.5639    2.9772 H.spc      1 <1>        0.000
     28 H          -7.5978    3.1312    0.2244 H.spc      1 <1>        0.000
     29 H          -7.2992    1.4726   -0.6264 H.spc      1 <1>        0.000
@<TRIPOS>BOND
     1    1    6 1  
     2    3    7 1  
     3    7   11 2  
     4    5    6 1  
     5    2   10 1  
     6    3    4 1  
     7    9   10 1  
     8    4    5 1  
     9    1    2 1  
    10    2    3 1  
    11    7    8 1  
    12    8    9 1  
    13    1   12 1  
    14    1   13 1  
    15    2   14 1  
    16    3   15 1  
    17    4   16 1  
    18    4   17 1  
    19    5   18 1  
    20    5   19 1  
    21    6   20 1  
    22    6   21 1  
    23    8   22 1  
    24    8   23 1  
    25    9   24 1  
    26    9   25 1  
    27   10   26 1  
    28   10   27 1  
    29   11   28 1  
    30   11   29 1  
