#      Rotatable Fragment
#      Build by yxyuan
#
# Name:          frag3-224-4/31924
# Creation time: Sat Jun  5 12:52:22 2010


@<TRIPOS>MOLECULE
frag3-224-4/31924
   22    21     1     1     1
SMALL
USER_CHARGES


@<TRIPOS>ATOM
      1 N1          2.8575   -0.9339   -0.8153 N.pl3      1 <1>        0.000
      2 N2          2.1909   -1.2154    0.2748 N.2        1 <1>        0.000
      3 C1          1.6787   -2.3194    0.6131 C.2        1 <1>        0.000
      4 C3          1.7456   -3.5566   -0.2103 C.2        1 <1>        0.000
      5 N3          0.9215   -3.8411   -1.1230 N.2        1 <1>        0.000
      6 N4         -0.1077   -3.1450   -1.5302 N.pl3      1 <1>        0.000
      7 C4         -1.1603   -3.7071   -2.1235 C.cat      1 <1>        0.000
      8 N5         -2.1383   -3.0466   -2.5735 N.pl3      1 <1>        0.000
      9 N6         -1.1245   -5.0399   -2.2167 N.pl3      1 <1>        0.000
     10 C11         3.8280   -0.0209   -0.8473 C.cat      1 <1>        0.000
     11 N7          4.5069    0.2351   -1.8817 N.pl3      1 <1>        0.000
     12 N8          4.0592    0.6172    0.3040 N.pl3      1 <1>        0.000
     13 H           2.6254   -1.4327   -1.6742 H.spc      1 <1>        0.000
     14 H           1.1551   -2.3686    1.5678 H.spc      1 <1>        0.000
     15 H           2.5550   -4.2597   -0.0136 H.spc      1 <1>        0.000
     16 H          -0.1048   -2.1349   -1.3886 H.spc      1 <1>        0.000
     17 H          -2.9191   -3.5300   -3.0175 H.spc      1 <1>        0.000
     18 H          -1.8958   -5.5412   -2.6573 H.spc      1 <1>        0.000
     19 H          -0.3258   -5.5557   -1.8472 H.spc      1 <1>        0.000
     20 H           5.2449    0.9383   -1.8463 H.spc      1 <1>        0.000
     21 H           4.7933    1.3234    0.3572 H.spc      1 <1>        0.000
     22 H           3.5015    0.3981    1.1295 H.spc      1 <1>        0.000
@<TRIPOS>BOND
     1   10   11 ar 
     2    4    5 2  
     3    7    9 ar 
     4    7    8 ar 
     5   10   12 ar 
     6    5    6 1  
     7    3    4 1  
     8    6    7 ar 
     9    2    3 2  
    10    1    2 1  
    11    1   10 ar 
    12    1   13 1  
    13    3   14 1  
    14    4   15 1  
    15    6   16 1  
    16    8   17 1  
    17    9   18 1  
    18    9   19 1  
    19   11   20 1  
    20   12   21 1  
    21   12   22 1  
# Name:          frag3-224-4/31924
# Creation time: Sat Jun  5 12:52:22 2010


@<TRIPOS>MOLECULE
frag3-224-4/31924
   22    21     1     1     1
SMALL
USER_CHARGES


@<TRIPOS>ATOM
      1 N1          3.3168   -0.9339   -0.9276 N.pl3      1 <1>        0.000
      2 N2          2.0477   -0.9407   -0.6130 N.2        1 <1>        0.000
      3 C1          1.2452   -1.9154   -0.5754 C.2        1 <1>        0.000
      4 C3          1.6230   -3.3300   -0.8616 C.2        1 <1>        0.000
      5 N3          0.8316   -4.3269   -0.8348 N.2        1 <1>        0.000
      6 N4         -0.4782   -4.2343   -0.7535 N.pl3      1 <1>        0.000
      7 C4         -1.2922   -3.8925   -1.7539 C.cat      1 <1>        0.000
      8 N5         -2.5456   -3.7353   -1.6261 N.pl3      1 <1>        0.000
      9 N6         -0.6990   -3.6967   -2.9321 N.pl3      1 <1>        0.000
     10 C11         4.1677    0.0168   -0.5586 C.cat      1 <1>        0.000
     11 N7          5.4039    0.0040   -0.8432 N.pl3      1 <1>        0.000
     12 N8          3.6366    1.0113    0.1501 N.pl3      1 <1>        0.000
     13 H           3.6750   -1.7054   -1.4905 H.spc      1 <1>        0.000
     14 H           0.2067   -1.7091   -0.3164 H.spc      1 <1>        0.000
     15 H           2.6647   -3.5267   -1.1151 H.spc      1 <1>        0.000
     16 H          -0.9068   -4.4408    0.1487 H.spc      1 <1>        0.000
     17 H          -3.1092   -3.4566   -2.4293 H.spc      1 <1>        0.000
     18 H          -1.2529   -3.4178   -3.7419 H.spc      1 <1>        0.000
     19 H           0.3087   -3.8258   -3.0235 H.spc      1 <1>        0.000
     20 H           6.0076    0.7634   -0.5282 H.spc      1 <1>        0.000
     21 H           4.2258    1.7787    0.4731 H.spc      1 <1>        0.000
     22 H           2.6406    1.0056    0.3699 H.spc      1 <1>        0.000
@<TRIPOS>BOND
     1   10   11 ar 
     2    4    5 2  
     3    7    9 ar 
     4    7    8 ar 
     5   10   12 ar 
     6    5    6 1  
     7    3    4 1  
     8    6    7 ar 
     9    2    3 2  
    10    1    2 1  
    11    1   10 ar 
    12    1   13 1  
    13    3   14 1  
    14    4   15 1  
    15    6   16 1  
    16    8   17 1  
    17    9   18 1  
    18    9   19 1  
    19   11   20 1  
    20   12   21 1  
    21   12   22 1  
# Name:          frag3-224-4/31924
# Creation time: Sat Jun  5 12:52:22 2010


@<TRIPOS>MOLECULE
frag3-224-4/31924
   22    21     1     1     1
SMALL
USER_CHARGES


@<TRIPOS>ATOM
      1 N1          3.0532   -0.4520   -0.0629 N.pl3      1 <1>        0.000
      2 N2          2.9228   -1.7290    0.1762 N.2        1 <1>        0.000
      3 C1          1.8795   -2.4330    0.1011 C.2        1 <1>        0.000
      4 C3          0.5473   -1.9189   -0.2954 C.2        1 <1>        0.000
      5 N3         -0.3416   -2.6106   -0.8586 N.2        1 <1>        0.000
      6 N4         -0.3081   -3.8737   -1.1820 N.pl3      1 <1>        0.000
      7 C4         -1.0509   -4.4050   -2.1518 C.cat      1 <1>        0.000
      8 N5         -1.0944   -5.6435   -2.4032 N.pl3      1 <1>        0.000
      9 N6         -1.7667   -3.5307   -2.8626 N.pl3      1 <1>        0.000
     10 C11         4.1143    0.0846   -0.6663 C.cat      1 <1>        0.000
     11 N7          4.2262    1.3177   -0.9245 N.pl3      1 <1>        0.000
     12 N8          5.0759   -0.7794   -0.9998 N.pl3      1 <1>        0.000
     13 H           2.3000    0.1710    0.2287 H.spc      1 <1>        0.000
     14 H           1.9631   -3.4922    0.3445 H.spc      1 <1>        0.000
     15 H           0.3220   -0.8732   -0.0857 H.spc      1 <1>        0.000
     16 H           0.3207   -4.4878   -0.6644 H.spc      1 <1>        0.000
     17 H          -1.6837   -5.9898   -3.1603 H.spc      1 <1>        0.000
     18 H          -2.3619   -3.8580   -3.6236 H.spc      1 <1>        0.000
     19 H          -1.7185   -2.5354   -2.6448 H.spc      1 <1>        0.000
     20 H           5.0613    1.6665   -1.3949 H.spc      1 <1>        0.000
     21 H           5.9180   -0.4485   -1.4708 H.spc      1 <1>        0.000
     22 H           4.9685   -1.7704   -0.7836 H.spc      1 <1>        0.000
@<TRIPOS>BOND
     1   10   11 ar 
     2    4    5 2  
     3    7    9 ar 
     4    7    8 ar 
     5   10   12 ar 
     6    5    6 1  
     7    3    4 1  
     8    6    7 ar 
     9    2    3 2  
    10    1    2 1  
    11    1   10 ar 
    12    1   13 1  
    13    3   14 1  
    14    4   15 1  
    15    6   16 1  
    16    8   17 1  
    17    9   18 1  
    18    9   19 1  
    19   11   20 1  
    20   12   21 1  
    21   12   22 1  
# Name:          frag3-224-4/31924
# Creation time: Sat Jun  5 12:52:22 2010


@<TRIPOS>MOLECULE
frag3-224-4/31924
   22    21     1     1     1
SMALL
USER_CHARGES


@<TRIPOS>ATOM
      1 N1         -0.5137   -4.0744   -0.8890 N.pl3      1 <1>        0.000
      2 N2          0.7314   -4.4439   -0.6842 N.2        1 <1>        0.000
      3 C1          1.6490   -3.7015   -0.2113 C.2        1 <1>        0.000
      4 C3          1.4435   -2.3499    0.3773 C.2        1 <1>        0.000
      5 N3          2.1374   -1.3345    0.0966 N.2        1 <1>        0.000
      6 N4          3.1176   -1.2157   -0.7579 N.pl3      1 <1>        0.000
      7 C4          3.7748   -0.0797   -0.9688 C.cat      1 <1>        0.000
      8 N5          4.7340    0.0355   -1.7904 N.pl3      1 <1>        0.000
      9 N6          3.3602    0.9612   -0.2472 N.pl3      1 <1>        0.000
     10 C11        -0.9628   -3.4563   -1.9844 C.cat      1 <1>        0.000
     11 N7         -2.1761   -3.1299   -2.1640 N.pl3      1 <1>        0.000
     12 N8         -0.0379   -3.1846   -2.9063 N.pl3      1 <1>        0.000
     13 H          -1.1904   -4.2758   -0.1528 H.spc      1 <1>        0.000
     14 H           2.6686   -4.0860   -0.2392 H.spc      1 <1>        0.000
     15 H           0.6375   -2.2291    1.1011 H.spc      1 <1>        0.000
     16 H           3.3939   -2.0392   -1.2925 H.spc      1 <1>        0.000
     17 H           5.2007    0.9350   -1.9067 H.spc      1 <1>        0.000
     18 H           3.8159    1.8678   -0.3513 H.spc      1 <1>        0.000
     19 H           2.5872    0.8513    0.4092 H.spc      1 <1>        0.000
     20 H          -2.4545   -2.6535   -3.0219 H.spc      1 <1>        0.000
     21 H          -0.3020   -2.7087   -3.7689 H.spc      1 <1>        0.000
     22 H           0.9335   -3.4527   -2.7486 H.spc      1 <1>        0.000
@<TRIPOS>BOND
     1   10   11 ar 
     2    4    5 2  
     3    7    9 ar 
     4    7    8 ar 
     5   10   12 ar 
     6    5    6 1  
     7    3    4 1  
     8    6    7 ar 
     9    2    3 2  
    10    1    2 1  
    11    1   10 ar 
    12    1   13 1  
    13    3   14 1  
    14    4   15 1  
    15    6   16 1  
    16    8   17 1  
    17    9   18 1  
    18    9   19 1  
    19   11   20 1  
    20   12   21 1  
    21   12   22 1  
# Name:          frag3-224-4/31924
# Creation time: Sat Jun  5 12:52:22 2010


@<TRIPOS>MOLECULE
frag3-224-4/31924
   22    21     1     1     1
SMALL
USER_CHARGES


@<TRIPOS>ATOM
      1 N1         -0.5381   -3.4383   -1.2694 N.pl3      1 <1>        0.000
      2 N2          0.6727   -3.2609   -1.7258 N.2        1 <1>        0.000
      3 C1          1.4949   -2.3376   -1.4777 C.2        1 <1>        0.000
      4 C3          1.2278   -1.2183   -0.5363 C.2        1 <1>        0.000
      5 N3          1.9701   -0.2029   -0.3776 N.2        1 <1>        0.000
      6 N4          3.1488   -0.0247   -0.9210 N.pl3      1 <1>        0.000
      7 C4          4.3256   -0.3082   -0.3518 C.cat      1 <1>        0.000
      8 N5          5.4480   -0.0671   -0.8842 N.pl3      1 <1>        0.000
      9 N6          4.2442   -0.8871    0.8489 N.pl3      1 <1>        0.000
     10 C11        -1.3575   -4.4146   -1.6564 C.cat      1 <1>        0.000
     11 N7         -2.5378   -4.5598   -1.2238 N.pl3      1 <1>        0.000
     12 N8         -0.8414   -5.2542   -2.5545 N.pl3      1 <1>        0.000
     13 H          -0.8805   -2.7828   -0.5669 H.spc      1 <1>        0.000
     14 H           2.4598   -2.3615   -1.9841 H.spc      1 <1>        0.000
     15 H           0.3210   -1.2753    0.0658 H.spc      1 <1>        0.000
     16 H           3.1711    0.3654   -1.8632 H.spc      1 <1>        0.000
     17 H           6.3082   -0.3155   -0.3955 H.spc      1 <1>        0.000
     18 H           5.0947   -1.1419    1.3510 H.spc      1 <1>        0.000
     19 H           3.3315   -1.0745    1.2639 H.spc      1 <1>        0.000
     20 H          -3.1138   -5.3306   -1.5622 H.spc      1 <1>        0.000
     21 H          -1.4003   -6.0317   -2.9060 H.spc      1 <1>        0.000
     22 H           0.1123   -5.1190   -2.8900 H.spc      1 <1>        0.000
@<TRIPOS>BOND
     1   10   11 ar 
     2    4    5 2  
     3    7    9 ar 
     4    7    8 ar 
     5   10   12 ar 
     6    5    6 1  
     7    3    4 1  
     8    6    7 ar 
     9    2    3 2  
    10    1    2 1  
    11    1   10 ar 
    12    1   13 1  
    13    3   14 1  
    14    4   15 1  
    15    6   16 1  
    16    8   17 1  
    17    9   18 1  
    18    9   19 1  
    19   11   20 1  
    20   12   21 1  
    21   12   22 1  
# Name:          frag3-224-4/31924
# Creation time: Sat Jun  5 12:52:22 2010


@<TRIPOS>MOLECULE
frag3-224-4/31924
   22    21     1     1     1
SMALL
USER_CHARGES


@<TRIPOS>ATOM
      1 N1         -0.5620   -3.3310   -1.5401 N.pl3      1 <1>        0.000
      2 N2          0.7213   -3.5824   -1.4835 N.2        1 <1>        0.000
      3 C1          1.6357   -2.9453   -0.8927 C.2        1 <1>        0.000
      4 C3          1.3978   -1.7083   -0.1126 C.2        1 <1>        0.000
      5 N3          2.0924   -0.6573   -0.2151 N.2        1 <1>        0.000
      6 N4          3.1594   -0.4696   -0.9512 N.pl3      1 <1>        0.000
      7 C4          4.3322   -0.0280   -0.4876 C.cat      1 <1>        0.000
      8 N5          5.3622    0.1400   -1.2031 N.pl3      1 <1>        0.000
      9 N6          4.3552    0.2218    0.8240 N.pl3      1 <1>        0.000
     10 C11        -1.4908   -4.2192   -1.8996 C.cat      1 <1>        0.000
     11 N7         -2.7345   -4.0496   -1.7367 N.pl3      1 <1>        0.000
     12 N8         -1.0114   -5.3447   -2.4315 N.pl3      1 <1>        0.000
     13 H          -0.8735   -2.3918   -1.2924 H.spc      1 <1>        0.000
     14 H           2.6552   -3.3250   -0.9596 H.spc      1 <1>        0.000
     15 H           0.5696   -1.7044    0.5960 H.spc      1 <1>        0.000
     16 H           3.0902   -0.6749   -1.9479 H.spc      1 <1>        0.000
     17 H           6.2289    0.4714   -0.7795 H.spc      1 <1>        0.000
     18 H           5.2129    0.5539    1.2650 H.spc      1 <1>        0.000
     19 H           3.5150    0.0805    1.3849 H.spc      1 <1>        0.000
     20 H          -3.3895   -4.7807   -2.0139 H.spc      1 <1>        0.000
     21 H          -1.6505   -6.0874   -2.7150 H.spc      1 <1>        0.000
     22 H          -0.0058   -5.4626   -2.5547 H.spc      1 <1>        0.000
@<TRIPOS>BOND
     1   10   11 ar 
     2    4    5 2  
     3    7    9 ar 
     4    7    8 ar 
     5   10   12 ar 
     6    5    6 1  
     7    3    4 1  
     8    6    7 ar 
     9    2    3 2  
    10    1    2 1  
    11    1   10 ar 
    12    1   13 1  
    13    3   14 1  
    14    4   15 1  
    15    6   16 1  
    16    8   17 1  
    17    9   18 1  
    18    9   19 1  
    19   11   20 1  
    20   12   21 1  
    21   12   22 1  
# Name:          frag3-224-4/31924
# Creation time: Sat Jun  5 12:52:22 2010


@<TRIPOS>MOLECULE
frag3-224-4/31924
   22    21     1     1     1
SMALL
USER_CHARGES


@<TRIPOS>ATOM
      1 N1         -0.4559   -4.3081   -0.8409 N.pl3      1 <1>        0.000
      2 N2         -0.0087   -3.6171    0.1904 N.2        1 <1>        0.000
      3 C1          1.0509   -2.9048    0.1755 C.2        1 <1>        0.000
      4 C3          2.0429   -2.8444   -0.9441 C.2        1 <1>        0.000
      5 N3          2.6666   -1.8034   -1.3044 N.2        1 <1>        0.000
      6 N4          2.6560   -0.6167   -0.7512 N.pl3      1 <1>        0.000
      7 C4          3.7477    0.1203   -0.5689 C.cat      1 <1>        0.000
      8 N5          3.7449    1.2654   -0.0227 N.pl3      1 <1>        0.000
      9 N6          4.8830   -0.4361   -0.9908 N.pl3      1 <1>        0.000
     10 C11        -0.8948   -3.8149   -2.0019 C.cat      1 <1>        0.000
     11 N7         -1.2511   -4.5296   -2.9898 N.pl3      1 <1>        0.000
     12 N8         -0.9241   -2.4843   -2.0808 N.pl3      1 <1>        0.000
     13 H          -0.4676   -5.3232   -0.7412 H.spc      1 <1>        0.000
     14 H           1.2500   -2.2885    1.0522 H.spc      1 <1>        0.000
     15 H           2.2432   -3.7662   -1.4902 H.spc      1 <1>        0.000
     16 H           1.7610   -0.2366   -0.4431 H.spc      1 <1>        0.000
     17 H           4.6203    1.7745    0.0991 H.spc      1 <1>        0.000
     18 H           5.7671    0.0596   -0.8766 H.spc      1 <1>        0.000
     19 H           4.8677   -1.3576   -1.4279 H.spc      1 <1>        0.000
     20 H          -1.5633   -4.0863   -3.8537 H.spc      1 <1>        0.000
     21 H          -1.2347   -2.0311   -2.9402 H.spc      1 <1>        0.000
     22 H          -0.6359   -1.9196   -1.2818 H.spc      1 <1>        0.000
@<TRIPOS>BOND
     1   10   11 ar 
     2    4    5 2  
     3    7    9 ar 
     4    7    8 ar 
     5   10   12 ar 
     6    5    6 1  
     7    3    4 1  
     8    6    7 ar 
     9    2    3 2  
    10    1    2 1  
    11    1   10 ar 
    12    1   13 1  
    13    3   14 1  
    14    4   15 1  
    15    6   16 1  
    16    8   17 1  
    17    9   18 1  
    18    9   19 1  
    19   11   20 1  
    20   12   21 1  
    21   12   22 1  
# Name:          frag3-224-4/31924
# Creation time: Sat Jun  5 12:52:22 2010


@<TRIPOS>MOLECULE
frag3-224-4/31924
   22    21     1     1     1
SMALL
USER_CHARGES


@<TRIPOS>ATOM
      1 N1         -0.1918   -3.2120   -1.0703 N.pl3      1 <1>        0.000
      2 N2          0.7841   -4.0054   -0.7090 N.2        1 <1>        0.000
      3 C1          1.7180   -3.7894    0.1131 C.2        1 <1>        0.000
      4 C3          1.8721   -2.5366    0.8911 C.2        1 <1>        0.000
      5 N3          2.4794   -1.5124    0.4750 N.2        1 <1>        0.000
      6 N4          3.0626   -1.3142   -0.6779 N.pl3      1 <1>        0.000
      7 C4          3.4934   -0.1198   -1.0845 C.cat      1 <1>        0.000
      8 N5          3.9952    0.0965   -2.2250 N.pl3      1 <1>        0.000
      9 N6          3.3582    0.8674   -0.1945 N.pl3      1 <1>        0.000
     10 C11        -0.9000   -3.3811   -2.1879 C.cat      1 <1>        0.000
     11 N7         -1.5695   -2.4617   -2.7420 N.pl3      1 <1>        0.000
     12 N8         -0.8441   -4.6051   -2.7178 N.pl3      1 <1>        0.000
     13 H          -0.4229   -2.4234   -0.4660 H.spc      1 <1>        0.000
     14 H           2.4591   -4.5751    0.2604 H.spc      1 <1>        0.000
     15 H           1.4319   -2.4982    1.8875 H.spc      1 <1>        0.000
     16 H           3.1947   -2.1135   -1.2976 H.spc      1 <1>        0.000
     17 H           4.3036    1.0356   -2.4767 H.spc      1 <1>        0.000
     18 H           3.6617    1.8121   -0.4307 H.spc      1 <1>        0.000
     19 H           2.9515    0.6764    0.7212 H.spc      1 <1>        0.000
     20 H          -2.0768   -2.6504   -3.6065 H.spc      1 <1>        0.000
     21 H          -1.3457   -4.8101   -3.5819 H.spc      1 <1>        0.000
     22 H          -0.2997   -5.3353   -2.2586 H.spc      1 <1>        0.000
@<TRIPOS>BOND
     1   10   11 ar 
     2    4    5 2  
     3    7    9 ar 
     4    7    8 ar 
     5   10   12 ar 
     6    5    6 1  
     7    3    4 1  
     8    6    7 ar 
     9    2    3 2  
    10    1    2 1  
    11    1   10 ar 
    12    1   13 1  
    13    3   14 1  
    14    4   15 1  
    15    6   16 1  
    16    8   17 1  
    17    9   18 1  
    18    9   19 1  
    19   11   20 1  
    20   12   21 1  
    21   12   22 1  
# Name:          frag3-224-4/31924
# Creation time: Sat Jun  5 12:52:22 2010


@<TRIPOS>MOLECULE
frag3-224-4/31924
   22    21     1     1     1
SMALL
USER_CHARGES


@<TRIPOS>ATOM
      1 N1          2.4045   -0.9948   -0.1605 N.pl3      1 <1>        0.000
      2 N2          3.0270   -2.0712    0.2507 N.2        1 <1>        0.000
      3 C1          2.5339   -3.1399    0.7129 C.2        1 <1>        0.000
      4 C3          1.0768   -3.4083    0.8306 C.2        1 <1>        0.000
      5 N3          0.2959   -3.5433   -0.1533 N.2        1 <1>        0.000
      6 N4          0.5810   -3.5393   -1.4303 N.pl3      1 <1>        0.000
      7 C4         -0.3072   -3.2308   -2.3758 C.cat      1 <1>        0.000
      8 N5         -0.0594   -3.2826   -3.6144 N.pl3      1 <1>        0.000
      9 N6         -1.5115   -2.8638   -1.9268 N.pl3      1 <1>        0.000
     10 C11         2.8787   -0.1914   -1.1144 C.cat      1 <1>        0.000
     11 N7          2.2663    0.8296   -1.5400 N.pl3      1 <1>        0.000
     12 N8          4.0713   -0.5379   -1.6084 N.pl3      1 <1>        0.000
     13 H           1.5109   -0.7584    0.2708 H.spc      1 <1>        0.000
     14 H           3.2230   -3.9155    1.0471 H.spc      1 <1>        0.000
     15 H           0.6541   -3.4943    1.8316 H.spc      1 <1>        0.000
     16 H           1.5289   -3.7841   -1.7165 H.spc      1 <1>        0.000
     17 H          -0.7846   -3.0420   -4.2901 H.spc      1 <1>        0.000
     18 H          -2.2494   -2.6196   -2.5873 H.spc      1 <1>        0.000
     19 H          -1.6926   -2.8280   -0.9236 H.spc      1 <1>        0.000
     20 H           2.6817    1.4048   -2.2728 H.spc      1 <1>        0.000
     21 H           4.5027    0.0249   -2.3416 H.spc      1 <1>        0.000
     22 H           4.5500   -1.3652   -1.2522 H.spc      1 <1>        0.000
@<TRIPOS>BOND
     1   10   11 ar 
     2    4    5 2  
     3    7    9 ar 
     4    7    8 ar 
     5   10   12 ar 
     6    5    6 1  
     7    3    4 1  
     8    6    7 ar 
     9    2    3 2  
    10    1    2 1  
    11    1   10 ar 
    12    1   13 1  
    13    3   14 1  
    14    4   15 1  
    15    6   16 1  
    16    8   17 1  
    17    9   18 1  
    18    9   19 1  
    19   11   20 1  
    20   12   21 1  
    21   12   22 1  
# Name:          frag3-224-4/31924
# Creation time: Sat Jun  5 12:52:22 2010


@<TRIPOS>MOLECULE
frag3-224-4/31924
   22    21     1     1     1
SMALL
USER_CHARGES


@<TRIPOS>ATOM
      1 N1          0.0736   -3.9524   -1.3541 N.pl3      1 <1>        0.000
      2 N2          0.0340   -3.3866   -0.1766 N.2        1 <1>        0.000
      3 C1          0.9993   -2.9913    0.5347 C.2        1 <1>        0.000
      4 C3          2.4264   -3.0750    0.1374 C.2        1 <1>        0.000
      5 N3          3.1488   -2.0799   -0.1415 N.2        1 <1>        0.000
      6 N4          2.8407   -0.8119   -0.1061 N.pl3      1 <1>        0.000
      7 C4          3.4714    0.1149   -0.8273 C.cat      1 <1>        0.000
      8 N5          3.2466    1.3552   -0.7245 N.pl3      1 <1>        0.000
      9 N6          4.3823   -0.3510   -1.6860 N.pl3      1 <1>        0.000
     10 C11        -0.8149   -3.7090   -2.3192 C.cat      1 <1>        0.000
     11 N7         -0.7613   -4.2322   -3.4697 N.pl3      1 <1>        0.000
     12 N8         -1.7895   -2.8544   -1.9969 N.pl3      1 <1>        0.000
     13 H           0.8243   -4.6159   -1.5456 H.spc      1 <1>        0.000
     14 H           0.7683   -2.5586    1.5081 H.spc      1 <1>        0.000
     15 H           2.8813   -4.0640    0.0829 H.spc      1 <1>        0.000
     16 H           2.0790   -0.5154    0.5041 H.spc      1 <1>        0.000
     17 H           3.7645    2.0170   -1.3026 H.spc      1 <1>        0.000
     18 H           4.9093    0.2968   -2.2717 H.spc      1 <1>        0.000
     19 H           4.5509   -1.3545   -1.7560 H.spc      1 <1>        0.000
     20 H          -1.4691   -4.0033   -4.1675 H.spc      1 <1>        0.000
     21 H          -2.5052   -2.6147   -2.6830 H.spc      1 <1>        0.000
     22 H          -1.8181   -2.4414   -1.0647 H.spc      1 <1>        0.000
@<TRIPOS>BOND
     1   10   11 ar 
     2    4    5 2  
     3    7    9 ar 
     4    7    8 ar 
     5   10   12 ar 
     6    5    6 1  
     7    3    4 1  
     8    6    7 ar 
     9    2    3 2  
    10    1    2 1  
    11    1   10 ar 
    12    1   13 1  
    13    3   14 1  
    14    4   15 1  
    15    6   16 1  
    16    8   17 1  
    17    9   18 1  
    18    9   19 1  
    19   11   20 1  
    20   12   21 1  
    21   12   22 1  
# Name:          frag3-224-4/31924
# Creation time: Sat Jun  5 12:52:22 2010


@<TRIPOS>MOLECULE
frag3-224-4/31924
   22    21     1     1     1
SMALL
USER_CHARGES


@<TRIPOS>ATOM
      1 N1          3.5073   -1.0646   -0.4997 N.pl3      1 <1>        0.000
      2 N2          2.3761   -1.1307    0.1473 N.2        1 <1>        0.000
      3 C1          1.5125   -2.0466    0.1330 C.2        1 <1>        0.000
      4 C3          1.6533   -3.3154   -0.6183 C.2        1 <1>        0.000
      5 N3          0.6869   -4.0036   -1.0454 N.2        1 <1>        0.000
      6 N4         -0.5868   -3.7203   -0.9922 N.pl3      1 <1>        0.000
      7 C4         -1.4289   -3.9328   -2.0051 C.cat      1 <1>        0.000
      8 N5         -2.6475   -3.5952   -1.9887 N.pl3      1 <1>        0.000
      9 N6         -0.8908   -4.5278   -3.0727 N.pl3      1 <1>        0.000
     10 C11         4.1808    0.0686   -0.6942 C.cat      1 <1>        0.000
     11 N7          5.2917    0.1298   -1.2954 N.pl3      1 <1>        0.000
     12 N8          3.6028    1.1647   -0.1980 N.pl3      1 <1>        0.000
     13 H           3.8975   -1.9280   -0.8774 H.spc      1 <1>        0.000
     14 H           0.6011   -1.8960    0.7116 H.spc      1 <1>        0.000
     15 H           2.6617   -3.6792   -0.8155 H.spc      1 <1>        0.000
     16 H          -0.9569   -3.3158   -0.1321 H.spc      1 <1>        0.000
     17 H          -3.2379   -3.7764   -2.8005 H.spc      1 <1>        0.000
     18 H          -1.4648   -4.7175   -3.8942 H.spc      1 <1>        0.000
     19 H           0.0942   -4.7926   -3.0666 H.spc      1 <1>        0.000
     20 H           5.7619    1.0280   -1.4080 H.spc      1 <1>        0.000
     21 H           4.0575    2.0720   -0.3006 H.spc      1 <1>        0.000
     22 H           2.7065    1.0950    0.2838 H.spc      1 <1>        0.000
@<TRIPOS>BOND
     1   10   11 ar 
     2    4    5 2  
     3    7    9 ar 
     4    7    8 ar 
     5   10   12 ar 
     6    5    6 1  
     7    3    4 1  
     8    6    7 ar 
     9    2    3 2  
    10    1    2 1  
    11    1   10 ar 
    12    1   13 1  
    13    3   14 1  
    14    4   15 1  
    15    6   16 1  
    16    8   17 1  
    17    9   18 1  
    18    9   19 1  
    19   11   20 1  
    20   12   21 1  
    21   12   22 1  
# Name:          frag3-224-4/31924
# Creation time: Sat Jun  5 12:52:22 2010


@<TRIPOS>MOLECULE
frag3-224-4/31924
   22    21     1     1     1
SMALL
USER_CHARGES


@<TRIPOS>ATOM
      1 N1          3.1834   -1.0661   -0.1313 N.pl3      1 <1>        0.000
      2 N2          3.0849   -2.2071   -0.7654 N.2        1 <1>        0.000
      3 C1          2.2058   -3.1076   -0.6357 C.2        1 <1>        0.000
      4 C3          1.0552   -3.0441    0.3143 C.2        1 <1>        0.000
      5 N3         -0.0821   -3.5914    0.1435 N.2        1 <1>        0.000
      6 N4         -0.4719   -4.1831   -0.9655 N.pl3      1 <1>        0.000
      7 C4         -0.8358   -3.5754   -2.0959 C.cat      1 <1>        0.000
      8 N5         -1.2845   -4.1857   -3.1160 N.pl3      1 <1>        0.000
      9 N6         -0.6961   -2.2501   -2.1050 N.pl3      1 <1>        0.000
     10 C11         3.5744    0.0709   -0.6983 C.cat      1 <1>        0.000
     11 N7          3.6955    1.1670   -0.0704 N.pl3      1 <1>        0.000
     12 N8          3.8287   -0.0010   -2.0041 N.pl3      1 <1>        0.000
     13 H           2.9451   -1.0484    0.8603 H.spc      1 <1>        0.000
     14 H           2.2946   -3.9945   -1.2631 H.spc      1 <1>        0.000
     15 H           1.2017   -2.4795    1.2351 H.spc      1 <1>        0.000
     16 H          -0.4983   -5.2027   -0.9602 H.spc      1 <1>        0.000
     17 H          -1.5416   -3.6610   -3.9521 H.spc      1 <1>        0.000
     18 H          -0.9503   -1.7162   -2.9361 H.spc      1 <1>        0.000
     19 H          -0.3350   -1.7697   -1.2809 H.spc      1 <1>        0.000
     20 H           3.9911    2.0084   -0.5655 H.spc      1 <1>        0.000
     21 H           4.1251    0.8321   -2.5126 H.spc      1 <1>        0.000
     22 H           3.7270   -0.8891   -2.4954 H.spc      1 <1>        0.000
@<TRIPOS>BOND
     1   10   11 ar 
     2    4    5 2  
     3    7    9 ar 
     4    7    8 ar 
     5   10   12 ar 
     6    5    6 1  
     7    3    4 1  
     8    6    7 ar 
     9    2    3 2  
    10    1    2 1  
    11    1   10 ar 
    12    1   13 1  
    13    3   14 1  
    14    4   15 1  
    15    6   16 1  
    16    8   17 1  
    17    9   18 1  
    18    9   19 1  
    19   11   20 1  
    20   12   21 1  
    21   12   22 1  
# Name:          frag3-224-4/31924
# Creation time: Sat Jun  5 12:52:22 2010


@<TRIPOS>MOLECULE
frag3-224-4/31924
   22    21     1     1     1
SMALL
USER_CHARGES


@<TRIPOS>ATOM
      1 N1         -0.3265   -3.8325   -1.0370 N.pl3      1 <1>        0.000
      2 N2          0.9579   -3.7613   -1.2838 N.2        1 <1>        0.000
      3 C1          1.7822   -2.9041   -0.8473 C.2        1 <1>        0.000
      4 C3          1.4664   -1.8563    0.1727 C.2        1 <1>        0.000
      5 N3          2.3148   -1.0881    0.7337 N.2        1 <1>        0.000
      6 N4          3.5604   -0.9380    0.3374 N.pl3      1 <1>        0.000
      7 C4          3.9504   -0.2351   -0.7277 C.cat      1 <1>        0.000
      8 N5          5.1439   -0.2044   -1.1592 N.pl3      1 <1>        0.000
      9 N6          2.9834    0.4374   -1.3534 N.pl3      1 <1>        0.000
     10 C11        -1.2613   -3.8625   -1.9837 C.cat      1 <1>        0.000
     11 N7         -2.5047   -3.9446   -1.7456 N.pl3      1 <1>        0.000
     12 N8         -0.8095   -3.7841   -3.2357 N.pl3      1 <1>        0.000
     13 H          -0.6276   -3.8669   -0.0631 H.spc      1 <1>        0.000
     14 H           2.7969   -2.9321   -1.2444 H.spc      1 <1>        0.000
     15 H           0.4216   -1.7399    0.4607 H.spc      1 <1>        0.000
     16 H           4.2863   -1.3957    0.8887 H.spc      1 <1>        0.000
     17 H           5.3712    0.3384   -1.9923 H.spc      1 <1>        0.000
     18 H           3.1994    0.9835   -2.1874 H.spc      1 <1>        0.000
     19 H           2.0279    0.4056   -0.9979 H.spc      1 <1>        0.000
     20 H          -3.1723   -3.9512   -2.5168 H.spc      1 <1>        0.000
     21 H          -1.4662   -3.7897   -4.0162 H.spc      1 <1>        0.000
     22 H           0.1928   -3.7185   -3.4130 H.spc      1 <1>        0.000
@<TRIPOS>BOND
     1   10   11 ar 
     2    4    5 2  
     3    7    9 ar 
     4    7    8 ar 
     5   10   12 ar 
     6    5    6 1  
     7    3    4 1  
     8    6    7 ar 
     9    2    3 2  
    10    1    2 1  
    11    1   10 ar 
    12    1   13 1  
    13    3   14 1  
    14    4   15 1  
    15    6   16 1  
    16    8   17 1  
    17    9   18 1  
    18    9   19 1  
    19   11   20 1  
    20   12   21 1  
    21   12   22 1  
# Name:          frag3-224-4/31924
# Creation time: Sat Jun  5 12:52:22 2010


@<TRIPOS>MOLECULE
frag3-224-4/31924
   22    21     1     1     1
SMALL
USER_CHARGES


@<TRIPOS>ATOM
      1 N1          2.7922   -0.0957   -0.9266 N.pl3      1 <1>        0.000
      2 N2          1.8109   -0.4201   -0.1149 N.2        1 <1>        0.000
      3 C1          1.3486   -1.5956    0.0439 C.2        1 <1>        0.000
      4 C3          1.7259   -2.8015   -0.7515 C.2        1 <1>        0.000
      5 N3          0.9106   -3.6970   -1.1176 N.2        1 <1>        0.000
      6 N4         -0.3871   -3.7257   -0.9527 N.pl3      1 <1>        0.000
      7 C4         -1.2422   -4.1081   -1.8988 C.cat      1 <1>        0.000
      8 N5         -2.5030   -4.0695   -1.7680 N.pl3      1 <1>        0.000
      9 N6         -0.6847   -4.5354   -3.0323 N.pl3      1 <1>        0.000
     10 C11         4.0927   -0.2389   -0.6655 C.cat      1 <1>        0.000
     11 N7          5.0158    0.0455   -1.4872 N.pl3      1 <1>        0.000
     12 N8          4.3777   -0.7316    0.5414 N.pl3      1 <1>        0.000
     13 H           2.5382    0.2987   -1.8323 H.spc      1 <1>        0.000
     14 H           0.6095   -1.7344    0.8329 H.spc      1 <1>        0.000
     15 H           2.7719   -2.9179   -1.0352 H.spc      1 <1>        0.000
     16 H          -0.7645   -3.4393   -0.0494 H.spc      1 <1>        0.000
     17 H          -3.1047   -4.3677   -2.5357 H.spc      1 <1>        0.000
     18 H          -1.2739   -4.8367   -3.8085 H.spc      1 <1>        0.000
     19 H           0.3309   -4.5610   -3.1231 H.spc      1 <1>        0.000
     20 H           5.9916   -0.1017   -1.2291 H.spc      1 <1>        0.000
     21 H           5.3488   -0.8842    0.8137 H.spc      1 <1>        0.000
     22 H           3.6245   -0.9556    1.1917 H.spc      1 <1>        0.000
@<TRIPOS>BOND
     1   10   11 ar 
     2    4    5 2  
     3    7    9 ar 
     4    7    8 ar 
     5   10   12 ar 
     6    5    6 1  
     7    3    4 1  
     8    6    7 ar 
     9    2    3 2  
    10    1    2 1  
    11    1   10 ar 
    12    1   13 1  
    13    3   14 1  
    14    4   15 1  
    15    6   16 1  
    16    8   17 1  
    17    9   18 1  
    18    9   19 1  
    19   11   20 1  
    20   12   21 1  
    21   12   22 1  
# Name:          frag3-224-4/31924
# Creation time: Sat Jun  5 12:52:22 2010


@<TRIPOS>MOLECULE
frag3-224-4/31924
   22    21     1     1     1
SMALL
USER_CHARGES


@<TRIPOS>ATOM
      1 N1          2.4550   -1.1086   -0.4943 N.pl3      1 <1>        0.000
      2 N2          3.0022   -2.2301   -0.0895 N.2        1 <1>        0.000
      3 C1          2.4665   -3.2230    0.4824 C.2        1 <1>        0.000
      4 C3          1.0099   -3.3165    0.7574 C.2        1 <1>        0.000
      5 N3          0.1117   -3.0810   -0.1047 N.2        1 <1>        0.000
      6 N4          0.2523   -2.8280   -1.3852 N.pl3      1 <1>        0.000
      7 C4         -0.4905   -3.3934   -2.3375 C.cat      1 <1>        0.000
      8 N5         -0.4407   -3.0727   -3.5594 N.pl3      1 <1>        0.000
      9 N6         -1.3194   -4.3508   -1.9122 N.pl3      1 <1>        0.000
     10 C11         3.1403   -0.0877   -1.0084 C.cat      1 <1>        0.000
     11 N7          2.6089    0.9869   -1.4102 N.pl3      1 <1>        0.000
     12 N8          4.4611   -0.2687   -1.0680 N.pl3      1 <1>        0.000
     13 H           1.4430   -1.0121   -0.4104 H.spc      1 <1>        0.000
     14 H           3.1056   -4.0512    0.7886 H.spc      1 <1>        0.000
     15 H           0.6950   -3.6048    1.7603 H.spc      1 <1>        0.000
     16 H           0.9705   -2.1611   -1.6677 H.spc      1 <1>        0.000
     17 H          -1.0387   -3.5471   -4.2360 H.spc      1 <1>        0.000
     18 H          -1.9237   -4.8344   -2.5766 H.spc      1 <1>        0.000
     19 H          -1.3480   -4.5982   -0.9231 H.spc      1 <1>        0.000
     20 H           3.1917    1.7339   -1.7879 H.spc      1 <1>        0.000
     21 H           5.0603    0.4669   -1.4426 H.spc      1 <1>        0.000
     22 H           4.8715   -1.1426   -0.7390 H.spc      1 <1>        0.000
@<TRIPOS>BOND
     1   10   11 ar 
     2    4    5 2  
     3    7    9 ar 
     4    7    8 ar 
     5   10   12 ar 
     6    5    6 1  
     7    3    4 1  
     8    6    7 ar 
     9    2    3 2  
    10    1    2 1  
    11    1   10 ar 
    12    1   13 1  
    13    3   14 1  
    14    4   15 1  
    15    6   16 1  
    16    8   17 1  
    17    9   18 1  
    18    9   19 1  
    19   11   20 1  
    20   12   21 1  
    21   12   22 1  
# Name:          frag3-224-4/31924
# Creation time: Sat Jun  5 12:52:22 2010


@<TRIPOS>MOLECULE
frag3-224-4/31924
   22    21     1     1     1
SMALL
USER_CHARGES


@<TRIPOS>ATOM
      1 N1         -0.7353   -2.9634   -0.9971 N.pl3      1 <1>        0.000
      2 N2          0.1360   -3.2987   -0.0708 N.2        1 <1>        0.000
      3 C1          1.3977   -3.3424   -0.2311 C.2        1 <1>        0.000
      4 C3          2.1326   -2.7728   -1.3954 C.2        1 <1>        0.000
      5 N3          2.8828   -1.7598   -1.3133 N.2        1 <1>        0.000
      6 N4          3.2090   -1.0461   -0.2662 N.pl3      1 <1>        0.000
      7 C4          3.8730    0.1105   -0.3139 C.cat      1 <1>        0.000
      8 N5          4.1789    0.7964    0.7048 N.pl3      1 <1>        0.000
      9 N6          4.2038    0.5121   -1.5427 N.pl3      1 <1>        0.000
     10 C11        -1.2201   -3.7715   -1.9486 C.cat      1 <1>        0.000
     11 N7         -2.0742   -3.4240   -2.8156 N.pl3      1 <1>        0.000
     12 N8         -0.7267   -5.0139   -1.9399 N.pl3      1 <1>        0.000
     13 H          -1.0723   -2.0007   -0.9902 H.spc      1 <1>        0.000
     14 H           1.9862   -3.8346    0.5432 H.spc      1 <1>        0.000
     15 H           2.0171   -3.2543   -2.3665 H.spc      1 <1>        0.000
     16 H           2.9365   -1.3987    0.6513 H.spc      1 <1>        0.000
     17 H           4.6876    1.6737    0.5950 H.spc      1 <1>        0.000
     18 H           4.7125    1.3864   -1.6738 H.spc      1 <1>        0.000
     19 H           3.9479   -0.0552   -2.3508 H.spc      1 <1>        0.000
     20 H          -2.3919   -4.0942   -3.5158 H.spc      1 <1>        0.000
     21 H          -1.0382   -5.6912   -2.6360 H.spc      1 <1>        0.000
     22 H          -0.0387   -5.2845   -1.2371 H.spc      1 <1>        0.000
@<TRIPOS>BOND
     1   10   11 ar 
     2    4    5 2  
     3    7    9 ar 
     4    7    8 ar 
     5   10   12 ar 
     6    5    6 1  
     7    3    4 1  
     8    6    7 ar 
     9    2    3 2  
    10    1    2 1  
    11    1   10 ar 
    12    1   13 1  
    13    3   14 1  
    14    4   15 1  
    15    6   16 1  
    16    8   17 1  
    17    9   18 1  
    18    9   19 1  
    19   11   20 1  
    20   12   21 1  
    21   12   22 1  
# Name:          frag3-224-4/31924
# Creation time: Sat Jun  5 12:52:22 2010


@<TRIPOS>MOLECULE
frag3-224-4/31924
   22    21     1     1     1
SMALL
USER_CHARGES


@<TRIPOS>ATOM
      1 N1         -0.2842   -4.0789   -0.6888 N.pl3      1 <1>        0.000
      2 N2          1.0176   -4.0182   -0.8806 N.2        1 <1>        0.000
      3 C1          1.6862   -2.9407   -1.0142 C.2        1 <1>        0.000
      4 C3          1.1691   -1.5557   -0.7584 C.2        1 <1>        0.000
      5 N3          1.8126   -0.4753   -0.9543 N.2        1 <1>        0.000
      6 N4          3.0721   -0.3851   -1.3174 N.pl3      1 <1>        0.000
      7 C4          4.1048   -0.2194   -0.4945 C.cat      1 <1>        0.000
      8 N5          5.3063   -0.0784   -0.8825 N.pl3      1 <1>        0.000
      9 N6          3.8043   -0.2204    0.8034 N.pl3      1 <1>        0.000
     10 C11        -1.2158   -4.0260   -1.6413 C.cat      1 <1>        0.000
     11 N7         -2.4660   -4.0527   -1.4154 N.pl3      1 <1>        0.000
     12 N8         -0.7495   -3.9229   -2.8856 N.pl3      1 <1>        0.000
     13 H          -0.6083   -4.1749    0.2736 H.spc      1 <1>        0.000
     14 H           2.7215   -3.0337   -1.3422 H.spc      1 <1>        0.000
     15 H           0.1541   -1.4671   -0.3711 H.spc      1 <1>        0.000
     16 H           3.2757   -0.4474   -2.3149 H.spc      1 <1>        0.000
     17 H           6.0534    0.0357   -0.1975 H.spc      1 <1>        0.000
     18 H           4.5427   -0.1071    1.4979 H.spc      1 <1>        0.000
     19 H           2.8359   -0.3344    1.1026 H.spc      1 <1>        0.000
     20 H          -3.1258   -3.9949   -2.1911 H.spc      1 <1>        0.000
     21 H          -1.3986   -3.8643   -3.6703 H.spc      1 <1>        0.000
     22 H           0.2564   -3.9026   -3.0532 H.spc      1 <1>        0.000
@<TRIPOS>BOND
     1   10   11 ar 
     2    4    5 2  
     3    7    9 ar 
     4    7    8 ar 
     5   10   12 ar 
     6    5    6 1  
     7    3    4 1  
     8    6    7 ar 
     9    2    3 2  
    10    1    2 1  
    11    1   10 ar 
    12    1   13 1  
    13    3   14 1  
    14    4   15 1  
    15    6   16 1  
    16    8   17 1  
    17    9   18 1  
    18    9   19 1  
    19   11   20 1  
    20   12   21 1  
    21   12   22 1  
# Name:          frag3-224-4/31924
# Creation time: Sat Jun  5 12:52:22 2010


@<TRIPOS>MOLECULE
frag3-224-4/31924
   22    21     1     1     1
SMALL
USER_CHARGES


@<TRIPOS>ATOM
      1 N1          3.1059   -0.1485   -0.9320 N.pl3      1 <1>        0.000
      2 N2          1.8378   -0.3004   -0.6258 N.2        1 <1>        0.000
      3 C1          1.0874   -1.2551   -1.0036 C.2        1 <1>        0.000
      4 C3          1.4687   -2.3228   -1.9801 C.2        1 <1>        0.000
      5 N3          0.6675   -3.1559   -2.5101 N.2        1 <1>        0.000
      6 N4         -0.6018   -3.3026   -2.2084 N.pl3      1 <1>        0.000
      7 C4         -1.0854   -4.2039   -1.3561 C.cat      1 <1>        0.000
      8 N5         -2.3233   -4.3644   -1.1232 N.pl3      1 <1>        0.000
      9 N6         -0.1699   -4.9444   -0.7313 N.pl3      1 <1>        0.000
     10 C11         4.1290   -0.5183   -0.1638 C.cat      1 <1>        0.000
     11 N7          5.3472   -0.3425   -0.4756 N.pl3      1 <1>        0.000
     12 N8          3.7945   -1.1150    0.9802 N.pl3      1 <1>        0.000
     13 H           3.3242    0.2867   -1.8283 H.spc      1 <1>        0.000
     14 H           0.0836   -1.2992   -0.5812 H.spc      1 <1>        0.000
     15 H           2.5198   -2.3921   -2.2602 H.spc      1 <1>        0.000
     16 H          -1.2687   -2.6781   -2.6618 H.spc      1 <1>        0.000
     17 H          -2.6287   -5.0675   -0.4503 H.spc      1 <1>        0.000
     18 H          -0.4602   -5.6514   -0.0558 H.spc      1 <1>        0.000
     19 H           0.8209   -4.8041   -0.9287 H.spc      1 <1>        0.000
     20 H           6.0854   -0.6595    0.1529 H.spc      1 <1>        0.000
     21 H           4.5215   -1.4374    1.6188 H.spc      1 <1>        0.000
     22 H           2.8115   -1.2492    1.2170 H.spc      1 <1>        0.000
@<TRIPOS>BOND
     1   10   11 ar 
     2    4    5 2  
     3    7    9 ar 
     4    7    8 ar 
     5   10   12 ar 
     6    5    6 1  
     7    3    4 1  
     8    6    7 ar 
     9    2    3 2  
    10    1    2 1  
    11    1   10 ar 
    12    1   13 1  
    13    3   14 1  
    14    4   15 1  
    15    6   16 1  
    16    8   17 1  
    17    9   18 1  
    18    9   19 1  
    19   11   20 1  
    20   12   21 1  
    21   12   22 1  
# Name:          frag3-224-4/31924
# Creation time: Sat Jun  5 12:52:22 2010


@<TRIPOS>MOLECULE
frag3-224-4/31924
   22    21     1     1     1
SMALL
USER_CHARGES


@<TRIPOS>ATOM
      1 N1          3.5933   -1.7266   -0.8751 N.pl3      1 <1>        0.000
      2 N2          2.8165   -2.4015   -0.0519 N.2        1 <1>        0.000
      3 C1          1.5555   -2.2268    0.0551 C.2        1 <1>        0.000
      4 C3          0.6825   -1.4360   -0.8894 C.2        1 <1>        0.000
      5 N3         -0.4715   -1.7913   -1.3041 N.2        1 <1>        0.000
      6 N4         -1.0228   -2.9676   -1.0839 N.pl3      1 <1>        0.000
      7 C4         -0.8034   -4.0967   -1.7613 C.cat      1 <1>        0.000
      8 N5         -1.3235   -5.2194   -1.4677 N.pl3      1 <1>        0.000
      9 N6          0.0282   -3.9805   -2.7959 N.pl3      1 <1>        0.000
     10 C11         3.9757   -0.4552   -0.7385 C.cat      1 <1>        0.000
     11 N7          4.6853    0.1752   -1.5837 N.pl3      1 <1>        0.000
     12 N8          3.5417    0.1527    0.3666 N.pl3      1 <1>        0.000
     13 H           3.9357   -2.2244   -1.6969 H.spc      1 <1>        0.000
     14 H           1.0634   -2.6926    0.9089 H.spc      1 <1>        0.000
     15 H           1.0699   -0.4820   -1.2471 H.spc      1 <1>        0.000
     16 H          -1.6887   -3.0212   -0.3131 H.spc      1 <1>        0.000
     17 H          -1.1056   -6.0442   -2.0268 H.spc      1 <1>        0.000
     18 H           0.2542   -4.7977   -3.3628 H.spc      1 <1>        0.000
     19 H           0.4388   -3.0743   -3.0209 H.spc      1 <1>        0.000
     20 H           4.9265    1.1525   -1.4192 H.spc      1 <1>        0.000
     21 H           3.7789    1.1298    0.5378 H.spc      1 <1>        0.000
     22 H           2.9726   -0.3596    1.0405 H.spc      1 <1>        0.000
@<TRIPOS>BOND
     1   10   11 ar 
     2    4    5 2  
     3    7    9 ar 
     4    7    8 ar 
     5   10   12 ar 
     6    5    6 1  
     7    3    4 1  
     8    6    7 ar 
     9    2    3 2  
    10    1    2 1  
    11    1   10 ar 
    12    1   13 1  
    13    3   14 1  
    14    4   15 1  
    15    6   16 1  
    16    8   17 1  
    17    9   18 1  
    18    9   19 1  
    19   11   20 1  
    20   12   21 1  
    21   12   22 1  
# Name:          frag3-224-4/31924
# Creation time: Sat Jun  5 12:52:22 2010


@<TRIPOS>MOLECULE
frag3-224-4/31924
   22    21     1     1     1
SMALL
USER_CHARGES


@<TRIPOS>ATOM
      1 N1         -0.4400   -3.9068   -0.9725 N.pl3      1 <1>        0.000
      2 N2          0.6618   -4.4989   -0.5582 N.2        1 <1>        0.000
      3 C1          1.5887   -3.9361    0.1118 C.2        1 <1>        0.000
      4 C3          1.5116   -2.5786    0.7232 C.2        1 <1>        0.000
      5 N3          2.0892   -1.5515    0.2682 N.2        1 <1>        0.000
      6 N4          2.8218   -1.4181   -0.8061 N.pl3      1 <1>        0.000
      7 C4          3.3662   -0.2702   -1.1957 C.cat      1 <1>        0.000
      8 N5          3.9679   -0.1133   -2.3012 N.pl3      1 <1>        0.000
      9 N6          3.2387    0.7377   -0.3335 N.pl3      1 <1>        0.000
     10 C11        -0.5358   -3.0745   -2.0146 C.cat      1 <1>        0.000
     11 N7         -1.6185   -2.5287   -2.3902 N.pl3      1 <1>        0.000
     12 N8          0.6059   -2.8345   -2.6609 N.pl3      1 <1>        0.000
     13 H          -1.2956   -4.1005   -0.4522 H.spc      1 <1>        0.000
     14 H           2.5150   -4.4939    0.2492 H.spc      1 <1>        0.000
     15 H           0.9140   -2.4642    1.6276 H.spc      1 <1>        0.000
     16 H           2.9855   -2.2452   -1.3801 H.spc      1 <1>        0.000
     17 H           4.3635    0.7955   -2.5421 H.spc      1 <1>        0.000
     18 H           3.6281    1.6533   -0.5581 H.spc      1 <1>        0.000
     19 H           2.7517    0.5936    0.5511 H.spc      1 <1>        0.000
     20 H          -1.6208   -1.8998   -3.1933 H.spc      1 <1>        0.000
     21 H           0.6145   -2.2072   -3.4652 H.spc      1 <1>        0.000
     22 H           1.4704   -3.2782   -2.3509 H.spc      1 <1>        0.000
@<TRIPOS>BOND
     1   10   11 ar 
     2    4    5 2  
     3    7    9 ar 
     4    7    8 ar 
     5   10   12 ar 
     6    5    6 1  
     7    3    4 1  
     8    6    7 ar 
     9    2    3 2  
    10    1    2 1  
    11    1   10 ar 
    12    1   13 1  
    13    3   14 1  
    14    4   15 1  
    15    6   16 1  
    16    8   17 1  
    17    9   18 1  
    18    9   19 1  
    19   11   20 1  
    20   12   21 1  
    21   12   22 1  
# Name:          frag3-224-4/31924
# Creation time: Sat Jun  5 12:52:22 2010


@<TRIPOS>MOLECULE
frag3-224-4/31924
   22    21     1     1     1
SMALL
USER_CHARGES


@<TRIPOS>ATOM
      1 N1          2.2995   -0.6141   -0.7359 N.pl3      1 <1>        0.000
      2 N2          1.8589   -0.9731    0.4496 N.2        1 <1>        0.000
      3 C1          1.7048   -2.1619    0.8754 C.2        1 <1>        0.000
      4 C3          1.8486   -3.3897    0.0459 C.2        1 <1>        0.000
      5 N3          1.0026   -3.7431   -0.8237 N.2        1 <1>        0.000
      6 N4         -0.1008   -3.1477   -1.2007 N.pl3      1 <1>        0.000
      7 C4         -0.8866   -3.5837   -2.1862 C.cat      1 <1>        0.000
      8 N5         -1.9168   -2.9730   -2.5946 N.pl3      1 <1>        0.000
      9 N6         -0.5077   -4.7385   -2.7386 N.pl3      1 <1>        0.000
     10 C11         3.5657   -0.2996   -1.0300 C.cat      1 <1>        0.000
     11 N7          3.9438    0.1675   -2.1437 N.pl3      1 <1>        0.000
     12 N8          4.4454   -0.5167   -0.0471 N.pl3      1 <1>        0.000
     13 H           1.6190   -0.5719   -1.4945 H.spc      1 <1>        0.000
     14 H           1.4481   -2.2913    1.9268 H.spc      1 <1>        0.000
     15 H           2.7282   -4.0156    0.1963 H.spc      1 <1>        0.000
     16 H          -0.3767   -2.2971   -0.7100 H.spc      1 <1>        0.000
     17 H          -2.4717   -3.3621   -3.3569 H.spc      1 <1>        0.000
     18 H          -1.0513   -5.1414   -3.5018 H.spc      1 <1>        0.000
     19 H           0.3254   -5.2179   -2.3974 H.spc      1 <1>        0.000
     20 H           4.9288    0.3824   -2.2987 H.spc      1 <1>        0.000
     21 H           5.4329   -0.3055   -0.1906 H.spc      1 <1>        0.000
     22 H           4.1291   -0.8935    0.8464 H.spc      1 <1>        0.000
@<TRIPOS>BOND
     1   10   11 ar 
     2    4    5 2  
     3    7    9 ar 
     4    7    8 ar 
     5   10   12 ar 
     6    5    6 1  
     7    3    4 1  
     8    6    7 ar 
     9    2    3 2  
    10    1    2 1  
    11    1   10 ar 
    12    1   13 1  
    13    3   14 1  
    14    4   15 1  
    15    6   16 1  
    16    8   17 1  
    17    9   18 1  
    18    9   19 1  
    19   11   20 1  
    20   12   21 1  
    21   12   22 1  
# Name:          frag3-224-4/31924
# Creation time: Sat Jun  5 12:52:22 2010


@<TRIPOS>MOLECULE
frag3-224-4/31924
   22    21     1     1     1
SMALL
USER_CHARGES


@<TRIPOS>ATOM
      1 N1         -0.5332   -3.6245   -1.0427 N.pl3      1 <1>        0.000
      2 N2          0.7222   -3.7743   -1.3784 N.2        1 <1>        0.000
      3 C1          1.5978   -2.8827   -1.5446 C.2        1 <1>        0.000
      4 C3          1.3708   -1.4467   -1.2755 C.2        1 <1>        0.000
      5 N3          2.2253   -0.6988   -0.7307 N.2        1 <1>        0.000
      6 N4          3.4485   -0.9743   -0.3610 N.pl3      1 <1>        0.000
      7 C4          4.3811   -0.0525   -0.1174 C.cat      1 <1>        0.000
      8 N5          5.5669   -0.3198    0.2334 N.pl3      1 <1>        0.000
      9 N6          3.9788    1.2085   -0.2887 N.pl3      1 <1>        0.000
     10 C11        -1.5450   -4.2561   -1.6427 C.cat      1 <1>        0.000
     11 N7         -2.7006   -4.3775   -1.1424 N.pl3      1 <1>        0.000
     12 N8         -1.2550   -4.7750   -2.8390 N.pl3      1 <1>        0.000
     13 H          -0.7522   -2.9872   -0.2770 H.spc      1 <1>        0.000
     14 H           2.5791   -3.1881   -1.9077 H.spc      1 <1>        0.000
     15 H           0.4135   -1.0124   -1.5638 H.spc      1 <1>        0.000
     16 H           3.7057   -1.9553   -0.2520 H.spc      1 <1>        0.000
     17 H           6.2347    0.4350    0.3905 H.spc      1 <1>        0.000
     18 H           4.6317    1.9773   -0.1365 H.spc      1 <1>        0.000
     19 H           3.0185    1.4035   -0.5718 H.spc      1 <1>        0.000
     20 H          -3.4277   -4.8777   -1.6537 H.spc      1 <1>        0.000
     21 H          -1.9705   -5.2783   -3.3636 H.spc      1 <1>        0.000
     22 H          -0.3181   -4.6680   -3.2278 H.spc      1 <1>        0.000
@<TRIPOS>BOND
     1   10   11 ar 
     2    4    5 2  
     3    7    9 ar 
     4    7    8 ar 
     5   10   12 ar 
     6    5    6 1  
     7    3    4 1  
     8    6    7 ar 
     9    2    3 2  
    10    1    2 1  
    11    1   10 ar 
    12    1   13 1  
    13    3   14 1  
    14    4   15 1  
    15    6   16 1  
    16    8   17 1  
    17    9   18 1  
    18    9   19 1  
    19   11   20 1  
    20   12   21 1  
    21   12   22 1  
# Name:          frag3-224-4/31924
# Creation time: Sat Jun  5 12:52:22 2010


@<TRIPOS>MOLECULE
frag3-224-4/31924
   22    21     1     1     1
SMALL
USER_CHARGES


@<TRIPOS>ATOM
      1 N1         -0.5069   -3.9086   -0.8424 N.pl3      1 <1>        0.000
      2 N2          0.7859   -4.1168   -0.7761 N.2        1 <1>        0.000
      3 C1          1.6720   -3.2907   -0.4046 C.2        1 <1>        0.000
      4 C3          1.3825   -1.9489    0.1666 C.2        1 <1>        0.000
      5 N3          1.9673   -0.8791   -0.1650 N.2        1 <1>        0.000
      6 N4          2.9291   -0.7217   -1.0357 N.pl3      1 <1>        0.000
      7 C4          4.0581   -0.0542   -0.7900 C.cat      1 <1>        0.000
      8 N5          4.9345    0.2016   -1.6658 N.pl3      1 <1>        0.000
      9 N6          4.2186    0.3360    0.4773 N.pl3      1 <1>        0.000
     10 C11        -1.2153   -3.8691   -1.9765 C.cat      1 <1>        0.000
     11 N7         -2.4573   -3.6304   -2.0281 N.pl3      1 <1>        0.000
     12 N8         -0.5110   -4.0916   -3.0893 N.pl3      1 <1>        0.000
     13 H          -1.0088   -3.7665    0.0341 H.spc      1 <1>        0.000
     14 H           2.7166   -3.5834   -0.5109 H.spc      1 <1>        0.000
     15 H           0.6067   -1.8831    0.9295 H.spc      1 <1>        0.000
     16 H           2.8093   -1.1348   -1.9606 H.spc      1 <1>        0.000
     17 H           5.7788    0.7128   -1.4084 H.spc      1 <1>        0.000
     18 H           5.0572    0.8481    0.7509 H.spc      1 <1>        0.000
     19 H           3.5026    0.1219    1.1714 H.spc      1 <1>        0.000
     20 H          -2.9349   -3.6058   -2.9290 H.spc      1 <1>        0.000
     21 H          -0.9734   -4.0706   -3.9982 H.spc      1 <1>        0.000
     22 H           0.4892   -4.2825   -3.0302 H.spc      1 <1>        0.000
@<TRIPOS>BOND
     1   10   11 ar 
     2    4    5 2  
     3    7    9 ar 
     4    7    8 ar 
     5   10   12 ar 
     6    5    6 1  
     7    3    4 1  
     8    6    7 ar 
     9    2    3 2  
    10    1    2 1  
    11    1   10 ar 
    12    1   13 1  
    13    3   14 1  
    14    4   15 1  
    15    6   16 1  
    16    8   17 1  
    17    9   18 1  
    18    9   19 1  
    19   11   20 1  
    20   12   21 1  
    21   12   22 1  
# Name:          frag3-224-4/31924
# Creation time: Sat Jun  5 12:52:22 2010


@<TRIPOS>MOLECULE
frag3-224-4/31924
   22    21     1     1     1
SMALL
USER_CHARGES


@<TRIPOS>ATOM
      1 N1          2.8663   -1.6507   -0.7327 N.pl3      1 <1>        0.000
      2 N2          2.6437   -1.7855    0.5521 N.2        1 <1>        0.000
      3 C1          2.0754   -2.7369    1.1621 C.2        1 <1>        0.000
      4 C3          1.5482   -3.9628    0.5083 C.2        1 <1>        0.000
      5 N3          0.6268   -3.9759   -0.3596 N.2        1 <1>        0.000
      6 N4         -0.0099   -2.9599   -0.8887 N.pl3      1 <1>        0.000
      7 C4         -0.3031   -2.8721   -2.1884 C.cat      1 <1>        0.000
      8 N5         -0.8489   -1.8644   -2.7237 N.pl3      1 <1>        0.000
      9 N6          0.0250   -3.9436   -2.9175 N.pl3      1 <1>        0.000
     10 C11         2.8805   -0.4730   -1.3616 C.cat      1 <1>        0.000
     11 N7          3.0447   -0.3400   -2.6088 N.pl3      1 <1>        0.000
     12 N8          2.7088    0.5912   -0.5710 N.pl3      1 <1>        0.000
     13 H           3.0382   -2.4924   -1.2826 H.spc      1 <1>        0.000
     14 H           1.9647   -2.6515    2.2431 H.spc      1 <1>        0.000
     15 H           1.9859   -4.9185    0.7965 H.spc      1 <1>        0.000
     16 H          -0.2963   -2.1966   -0.2758 H.spc      1 <1>        0.000
     17 H          -1.0445   -1.8620   -3.7248 H.spc      1 <1>        0.000
     18 H          -0.1643   -3.9560   -3.9197 H.spc      1 <1>        0.000
     19 H           0.4646   -4.7487   -2.4716 H.spc      1 <1>        0.000
     20 H           3.0475    0.5906   -3.0265 H.spc      1 <1>        0.000
     21 H           2.7088    1.5293   -0.9714 H.spc      1 <1>        0.000
     22 H           2.5778    0.4651    0.4327 H.spc      1 <1>        0.000
@<TRIPOS>BOND
     1   10   11 ar 
     2    4    5 2  
     3    7    9 ar 
     4    7    8 ar 
     5   10   12 ar 
     6    5    6 1  
     7    3    4 1  
     8    6    7 ar 
     9    2    3 2  
    10    1    2 1  
    11    1   10 ar 
    12    1   13 1  
    13    3   14 1  
    14    4   15 1  
    15    6   16 1  
    16    8   17 1  
    17    9   18 1  
    18    9   19 1  
    19   11   20 1  
    20   12   21 1  
    21   12   22 1  
# Name:          frag3-224-4/31924
# Creation time: Sat Jun  5 12:52:22 2010


@<TRIPOS>MOLECULE
frag3-224-4/31924
   22    21     1     1     1
SMALL
USER_CHARGES


@<TRIPOS>ATOM
      1 N1          3.4808   -1.1537   -0.0494 N.pl3      1 <1>        0.000
      2 N2          2.4679   -1.3491    0.7614 N.2        1 <1>        0.000
      3 C1          1.6614   -2.3299    0.7269 C.2        1 <1>        0.000
      4 C3          1.8137   -3.5506   -0.1177 C.2        1 <1>        0.000
      5 N3          0.8796   -4.1224   -0.7570 N.2        1 <1>        0.000
      6 N4         -0.3457   -3.6865   -0.9164 N.pl3      1 <1>        0.000
      7 C4         -0.8518   -3.2984   -2.0876 C.cat      1 <1>        0.000
      8 N5         -2.0251   -2.8377   -2.2310 N.pl3      1 <1>        0.000
      9 N6         -0.0275   -3.4091   -3.1304 N.pl3      1 <1>        0.000
     10 C11         3.4573   -0.3461   -1.1113 C.cat      1 <1>        0.000
     11 N7          4.4483   -0.1663   -1.8833 N.pl3      1 <1>        0.000
     12 N8          2.2986    0.2760   -1.3339 N.pl3      1 <1>        0.000
     13 H           4.3476   -1.6546    0.1459 H.spc      1 <1>        0.000
     14 H           0.7826   -2.2751    1.3694 H.spc      1 <1>        0.000
     15 H           2.8099   -3.9867   -0.1912 H.spc      1 <1>        0.000
     16 H          -0.9489   -3.6413   -0.0951 H.spc      1 <1>        0.000
     17 H          -2.3493   -2.5461   -3.1531 H.spc      1 <1>        0.000
     18 H          -0.3378   -3.1215   -4.0585 H.spc      1 <1>        0.000
     19 H           0.9131   -3.7814   -2.9997 H.spc      1 <1>        0.000
     20 H           4.3638    0.4595   -2.6843 H.spc      1 <1>        0.000
     21 H           2.2021    0.9042   -2.1317 H.spc      1 <1>        0.000
     22 H           1.5091    0.1235   -0.7064 H.spc      1 <1>        0.000
@<TRIPOS>BOND
     1   10   11 ar 
     2    4    5 2  
     3    7    9 ar 
     4    7    8 ar 
     5   10   12 ar 
     6    5    6 1  
     7    3    4 1  
     8    6    7 ar 
     9    2    3 2  
    10    1    2 1  
    11    1   10 ar 
    12    1   13 1  
    13    3   14 1  
    14    4   15 1  
    15    6   16 1  
    16    8   17 1  
    17    9   18 1  
    18    9   19 1  
    19   11   20 1  
    20   12   21 1  
    21   12   22 1  
# Name:          frag3-224-4/31924
# Creation time: Sat Jun  5 12:52:22 2010


@<TRIPOS>MOLECULE
frag3-224-4/31924
   22    21     1     1     1
SMALL
USER_CHARGES


@<TRIPOS>ATOM
      1 N1         -0.2408   -3.8681   -0.9212 N.pl3      1 <1>        0.000
      2 N2          0.9524   -4.2930   -0.5606 N.2        1 <1>        0.000
      3 C1          1.8056   -3.6312    0.1177 C.2        1 <1>        0.000
      4 C3          1.5313   -2.3239    0.7954 C.2        1 <1>        0.000
      5 N3          1.6344   -1.1713    0.2655 N.2        1 <1>        0.000
      6 N4          2.1006   -0.9000   -0.9327 N.pl3      1 <1>        0.000
      7 C4          3.3164   -0.4181   -1.1826 C.cat      1 <1>        0.000
      8 N5          3.7850   -0.2352   -2.3482 N.pl3      1 <1>        0.000
      9 N6          4.0508   -0.1487   -0.1019 N.pl3      1 <1>        0.000
     10 C11        -0.5204   -3.2089   -2.0482 C.cat      1 <1>        0.000
     11 N7         -1.6854   -2.8266   -2.3794 N.pl3      1 <1>        0.000
     12 N8          0.5276   -2.9487   -2.8335 N.pl3      1 <1>        0.000
     13 H          -1.0162   -4.0585   -0.2865 H.spc      1 <1>        0.000
     14 H           2.8086   -4.0476    0.2112 H.spc      1 <1>        0.000
     15 H           1.2144   -2.3633    1.8376 H.spc      1 <1>        0.000
     16 H           1.4866   -1.0710   -1.7291 H.spc      1 <1>        0.000
     17 H           4.7332    0.1216   -2.4665 H.spc      1 <1>        0.000
     18 H           5.0004    0.2086   -0.2067 H.spc      1 <1>        0.000
     19 H           3.6627   -0.3000    0.8292 H.spc      1 <1>        0.000
     20 H          -1.8261   -2.3164   -3.2514 H.spc      1 <1>        0.000
     21 H           0.3961   -2.4391   -3.7072 H.spc      1 <1>        0.000
     22 H           1.4597   -3.2595   -2.5597 H.spc      1 <1>        0.000
@<TRIPOS>BOND
     1   10   11 ar 
     2    4    5 2  
     3    7    9 ar 
     4    7    8 ar 
     5   10   12 ar 
     6    5    6 1  
     7    3    4 1  
     8    6    7 ar 
     9    2    3 2  
    10    1    2 1  
    11    1   10 ar 
    12    1   13 1  
    13    3   14 1  
    14    4   15 1  
    15    6   16 1  
    16    8   17 1  
    17    9   18 1  
    18    9   19 1  
    19   11   20 1  
    20   12   21 1  
    21   12   22 1  
# Name:          frag3-224-4/31924
# Creation time: Sat Jun  5 12:52:22 2010


@<TRIPOS>MOLECULE
frag3-224-4/31924
   22    21     1     1     1
SMALL
USER_CHARGES


@<TRIPOS>ATOM
      1 N1          2.5884   -0.1111   -0.6428 N.pl3      1 <1>        0.000
      2 N2          1.7616   -0.6267    0.2458 N.2        1 <1>        0.000
      3 C1          1.4677   -1.8670    0.3339 C.2        1 <1>        0.000
      4 C3          1.8476   -2.9170   -0.6636 C.2        1 <1>        0.000
      5 N3          1.0643   -3.3706   -1.5498 N.2        1 <1>        0.000
      6 N4         -0.1915   -3.0604   -1.7576 N.pl3      1 <1>        0.000
      7 C4         -1.1505   -3.9572   -1.9758 C.cat      1 <1>        0.000
      8 N5         -2.3564   -3.6596   -2.2284 N.pl3      1 <1>        0.000
      9 N6         -0.7594   -5.2306   -1.9001 N.pl3      1 <1>        0.000
     10 C11         3.9101   -0.2981   -0.6910 C.cat      1 <1>        0.000
     11 N7          4.6653    0.1734   -1.5941 N.pl3      1 <1>        0.000
     12 N8          4.4104   -1.0487    0.2939 N.pl3      1 <1>        0.000
     13 H           2.1801    0.4870   -1.3611 H.spc      1 <1>        0.000
     14 H           0.8948   -2.1861    1.2046 H.spc      1 <1>        0.000
     15 H           2.8612   -3.3159   -0.6248 H.spc      1 <1>        0.000
     16 H          -0.4495   -2.0736   -1.7518 H.spc      1 <1>        0.000
     17 H          -3.0436   -4.3985   -2.3772 H.spc      1 <1>        0.000
     18 H          -1.4346   -5.9810   -2.0464 H.spc      1 <1>        0.000
     19 H           0.2148   -5.4536   -1.6960 H.spc      1 <1>        0.000
     20 H           5.6667   -0.0193   -1.5734 H.spc      1 <1>        0.000
     21 H           5.4102   -1.2484    0.3254 H.spc      1 <1>        0.000
     22 H           3.7927   -1.4223    1.0145 H.spc      1 <1>        0.000
@<TRIPOS>BOND
     1   10   11 ar 
     2    4    5 2  
     3    7    9 ar 
     4    7    8 ar 
     5   10   12 ar 
     6    5    6 1  
     7    3    4 1  
     8    6    7 ar 
     9    2    3 2  
    10    1    2 1  
    11    1   10 ar 
    12    1   13 1  
    13    3   14 1  
    14    4   15 1  
    15    6   16 1  
    16    8   17 1  
    17    9   18 1  
    18    9   19 1  
    19   11   20 1  
    20   12   21 1  
    21   12   22 1  
# Name:          frag3-224-4/31924
# Creation time: Sat Jun  5 12:52:22 2010


@<TRIPOS>MOLECULE
frag3-224-4/31924
   22    21     1     1     1
SMALL
USER_CHARGES


@<TRIPOS>ATOM
      1 N1          2.4171   -0.2535   -1.0638 N.pl3      1 <1>        0.000
      2 N2          1.4557   -0.6052   -0.2323 N.2        1 <1>        0.000
      3 C1          1.2183   -1.8095    0.1291 C.2        1 <1>        0.000
      4 C3          1.8362   -3.0694   -0.4468 C.2        1 <1>        0.000
      5 N3          1.2010   -4.1295   -0.7747 N.2        1 <1>        0.000
      6 N4         -0.1111   -4.2025   -0.8744 N.pl3      1 <1>        0.000
      7 C4         -0.8651   -3.6995   -1.8558 C.cat      1 <1>        0.000
      8 N5         -2.1362   -3.6671   -1.8374 N.pl3      1 <1>        0.000
      9 N6         -0.1888   -3.1937   -2.8873 N.pl3      1 <1>        0.000
     10 C11         3.7322   -0.3793   -0.8694 C.cat      1 <1>        0.000
     11 N7          4.6186   -0.0331   -1.7121 N.pl3      1 <1>        0.000
     12 N8          4.0794   -0.9315    0.2952 N.pl3      1 <1>        0.000
     13 H           2.1249    0.1586   -1.9499 H.spc      1 <1>        0.000
     14 H           0.4967   -1.9441    0.9349 H.spc      1 <1>        0.000
     15 H           2.9162   -3.0712   -0.5940 H.spc      1 <1>        0.000
     16 H          -0.6008   -4.6930   -0.1260 H.spc      1 <1>        0.000
     17 H          -2.6471   -3.2515   -2.6163 H.spc      1 <1>        0.000
     18 H          -0.6909   -2.7761   -3.6708 H.spc      1 <1>        0.000
     19 H           0.8307   -3.2243   -2.8930 H.spc      1 <1>        0.000
     20 H           5.6063   -0.1764   -1.5014 H.spc      1 <1>        0.000
     21 H           5.0642   -1.0793    0.5161 H.spc      1 <1>        0.000
     22 H           3.3599   -1.2056    0.9643 H.spc      1 <1>        0.000
@<TRIPOS>BOND
     1   10   11 ar 
     2    4    5 2  
     3    7    9 ar 
     4    7    8 ar 
     5   10   12 ar 
     6    5    6 1  
     7    3    4 1  
     8    6    7 ar 
     9    2    3 2  
    10    1    2 1  
    11    1   10 ar 
    12    1   13 1  
    13    3   14 1  
    14    4   15 1  
    15    6   16 1  
    16    8   17 1  
    17    9   18 1  
    18    9   19 1  
    19   11   20 1  
    20   12   21 1  
    21   12   22 1  
# Name:          frag3-224-4/31924
# Creation time: Sat Jun  5 12:52:22 2010


@<TRIPOS>MOLECULE
frag3-224-4/31924
   22    21     1     1     1
SMALL
USER_CHARGES


@<TRIPOS>ATOM
      1 N1          2.2096   -1.0732   -0.7744 N.pl3      1 <1>        0.000
      2 N2          1.9939   -1.2879    0.5012 N.2        1 <1>        0.000
      3 C1          1.7761   -2.3921    1.0816 C.2        1 <1>        0.000
      4 C3          1.6795   -3.7060    0.3906 C.2        1 <1>        0.000
      5 N3          0.7886   -3.9899   -0.4620 N.2        1 <1>        0.000
      6 N4         -0.1569   -3.2190   -0.9390 N.pl3      1 <1>        0.000
      7 C4         -0.5334   -3.2315   -2.2191 C.cat      1 <1>        0.000
      8 N5         -1.3896   -2.4401   -2.7074 N.pl3      1 <1>        0.000
      9 N6          0.0725   -4.1445   -2.9824 N.pl3      1 <1>        0.000
     10 C11         3.2506   -0.3811   -1.2394 C.cat      1 <1>        0.000
     11 N7          3.3224    0.0808   -2.4141 N.pl3      1 <1>        0.000
     12 N8          4.2441   -0.1892   -0.3653 N.pl3      1 <1>        0.000
     13 H           1.5455   -1.4561   -1.4472 H.spc      1 <1>        0.000
     14 H           1.6505   -2.3789    2.1643 H.spc      1 <1>        0.000
     15 H           2.4195   -4.4688    0.6329 H.spc      1 <1>        0.000
     16 H          -0.6283   -2.5779   -0.3009 H.spc      1 <1>        0.000
     17 H          -1.6267   -2.4932   -3.6980 H.spc      1 <1>        0.000
     18 H          -0.1534   -4.2106   -3.9749 H.spc      1 <1>        0.000
     19 H           0.7612   -4.7757   -2.5729 H.spc      1 <1>        0.000
     20 H           4.1458    0.6075   -2.7055 H.spc      1 <1>        0.000
     21 H           5.0735    0.3356   -0.6430 H.spc      1 <1>        0.000
     22 H           4.1726   -0.5676    0.5792 H.spc      1 <1>        0.000
@<TRIPOS>BOND
     1   10   11 ar 
     2    4    5 2  
     3    7    9 ar 
     4    7    8 ar 
     5   10   12 ar 
     6    5    6 1  
     7    3    4 1  
     8    6    7 ar 
     9    2    3 2  
    10    1    2 1  
    11    1   10 ar 
    12    1   13 1  
    13    3   14 1  
    14    4   15 1  
    15    6   16 1  
    16    8   17 1  
    17    9   18 1  
    18    9   19 1  
    19   11   20 1  
    20   12   21 1  
    21   12   22 1  
# Name:          frag3-224-4/31924
# Creation time: Sat Jun  5 12:52:22 2010


@<TRIPOS>MOLECULE
frag3-224-4/31924
   22    21     1     1     1
SMALL
USER_CHARGES


@<TRIPOS>ATOM
      1 N1          2.9646   -0.8659    0.3332 N.pl3      1 <1>        0.000
      2 N2          1.6846   -0.7732    0.0277 N.2        1 <1>        0.000
      3 C1          1.1088   -1.4349   -0.9028 C.2        1 <1>        0.000
      4 C3          1.6987   -2.6348   -1.6090 C.2        1 <1>        0.000
      5 N3          1.2586   -3.8324   -1.5191 N.2        1 <1>        0.000
      6 N4          0.0826   -4.1608   -1.0201 N.pl3      1 <1>        0.000
      7 C4         -1.1005   -3.9865   -1.6144 C.cat      1 <1>        0.000
      8 N5         -2.2218   -4.2320   -1.0708 N.pl3      1 <1>        0.000
      9 N6         -1.0374   -3.4920   -2.8530 N.pl3      1 <1>        0.000
     10 C11         3.9828   -0.3611   -0.3685 C.cat      1 <1>        0.000
     11 N7          5.2054   -0.4749   -0.0441 N.pl3      1 <1>        0.000
     12 N8          3.6310    0.2746   -1.4889 N.pl3      1 <1>        0.000
     13 H           3.1992   -1.3717    1.1873 H.spc      1 <1>        0.000
     14 H           0.1155   -1.1086   -1.2109 H.spc      1 <1>        0.000
     15 H           2.5677   -2.4658   -2.2450 H.spc      1 <1>        0.000
     16 H           0.0763   -4.5878   -0.0938 H.spc      1 <1>        0.000
     17 H          -3.0864   -4.0515   -1.5810 H.spc      1 <1>        0.000
     18 H          -1.8954   -3.3075   -3.3728 H.spc      1 <1>        0.000
     19 H          -0.1312   -3.2987   -3.2794 H.spc      1 <1>        0.000
     20 H           5.9307   -0.0785   -0.6418 H.spc      1 <1>        0.000
     21 H           4.3474    0.6750   -2.0945 H.spc      1 <1>        0.000
     22 H           2.6458    0.3597   -1.7391 H.spc      1 <1>        0.000
@<TRIPOS>BOND
     1   10   11 ar 
     2    4    5 2  
     3    7    9 ar 
     4    7    8 ar 
     5   10   12 ar 
     6    5    6 1  
     7    3    4 1  
     8    6    7 ar 
     9    2    3 2  
    10    1    2 1  
    11    1   10 ar 
    12    1   13 1  
    13    3   14 1  
    14    4   15 1  
    15    6   16 1  
    16    8   17 1  
    17    9   18 1  
    18    9   19 1  
    19   11   20 1  
    20   12   21 1  
    21   12   22 1  
# Name:          frag3-224-4/31924
# Creation time: Sat Jun  5 12:52:22 2010


@<TRIPOS>MOLECULE
frag3-224-4/31924
   22    21     1     1     1
SMALL
USER_CHARGES


@<TRIPOS>ATOM
      1 N1          2.0743   -1.2467   -0.4073 N.pl3      1 <1>        0.000
      2 N2          2.7703   -2.2014    0.1600 N.2        1 <1>        0.000
      3 C1          2.3676   -3.2525    0.7381 C.2        1 <1>        0.000
      4 C3          0.9412   -3.6667    0.8459 C.2        1 <1>        0.000
      5 N3          0.1785   -3.9516   -0.1336 N.2        1 <1>        0.000
      6 N4          0.4763   -3.8699   -1.4144 N.pl3      1 <1>        0.000
      7 C4          0.1707   -2.8465   -2.2190 C.cat      1 <1>        0.000
      8 N5          0.5217   -2.7676   -3.4362 N.pl3      1 <1>        0.000
      9 N6         -0.5456   -1.8758   -1.6417 N.pl3      1 <1>        0.000
     10 C11         2.5617   -0.3616   -1.2738 C.cat      1 <1>        0.000
     11 N7          1.8644    0.5171   -1.8681 N.pl3      1 <1>        0.000
     12 N8          3.8764   -0.4503   -1.4795 N.pl3      1 <1>        0.000
     13 H           1.0855   -1.1767   -0.1669 H.spc      1 <1>        0.000
     14 H           3.1184   -3.9011    1.1894 H.spc      1 <1>        0.000
     15 H           0.5142   -3.7315    1.8467 H.spc      1 <1>        0.000
     16 H           0.9826   -4.6533   -1.8270 H.spc      1 <1>        0.000
     17 H           0.2576   -1.9537   -3.9914 H.spc      1 <1>        0.000
     18 H          -0.8191   -1.0543   -2.1809 H.spc      1 <1>        0.000
     19 H          -0.8184   -1.9570   -0.6622 H.spc      1 <1>        0.000
     20 H           2.3086    1.1692   -2.5145 H.spc      1 <1>        0.000
     21 H           4.3366    0.1939   -2.1226 H.spc      1 <1>        0.000
     22 H           4.4217   -1.1624   -0.9937 H.spc      1 <1>        0.000
@<TRIPOS>BOND
     1   10   11 ar 
     2    4    5 2  
     3    7    9 ar 
     4    7    8 ar 
     5   10   12 ar 
     6    5    6 1  
     7    3    4 1  
     8    6    7 ar 
     9    2    3 2  
    10    1    2 1  
    11    1   10 ar 
    12    1   13 1  
    13    3   14 1  
    14    4   15 1  
    15    6   16 1  
    16    8   17 1  
    17    9   18 1  
    18    9   19 1  
    19   11   20 1  
    20   12   21 1  
    21   12   22 1  
# Name:          frag3-224-4/31924
# Creation time: Sat Jun  5 12:52:22 2010


@<TRIPOS>MOLECULE
frag3-224-4/31924
   22    21     1     1     1
SMALL
USER_CHARGES


@<TRIPOS>ATOM
      1 N1          2.6123   -1.1353   -1.2211 N.pl3      1 <1>        0.000
      2 N2          2.8229   -2.3772   -0.8549 N.2        1 <1>        0.000
      3 C1          2.1387   -3.0645   -0.0346 C.2        1 <1>        0.000
      4 C3          0.8303   -2.6493    0.5671 C.2        1 <1>        0.000
      5 N3         -0.3136   -3.1021    0.2235 N.2        1 <1>        0.000
      6 N4         -0.5304   -3.9048   -0.8004 N.pl3      1 <1>        0.000
      7 C4         -0.5118   -3.5717   -2.0945 C.cat      1 <1>        0.000
      8 N5         -0.6772   -4.3974   -3.0459 N.pl3      1 <1>        0.000
      9 N6         -0.2966   -2.2785   -2.3425 N.pl3      1 <1>        0.000
     10 C11         3.4353   -0.1231   -0.9577 C.cat      1 <1>        0.000
     11 N7          3.2332    1.0740   -1.3263 N.pl3      1 <1>        0.000
     12 N8          4.5143   -0.4439   -0.2424 N.pl3      1 <1>        0.000
     13 H           1.7600   -0.9316   -1.7431 H.spc      1 <1>        0.000
     14 H           2.5361   -4.0370    0.2559 H.spc      1 <1>        0.000
     15 H           0.8570   -1.9022    1.3603 H.spc      1 <1>        0.000
     16 H          -0.7331   -4.8803   -0.5820 H.spc      1 <1>        0.000
     17 H          -0.6462   -4.0742   -4.0128 H.spc      1 <1>        0.000
     18 H          -0.2633   -1.9424   -3.3050 H.spc      1 <1>        0.000
     19 H          -0.1654   -1.6259   -1.5696 H.spc      1 <1>        0.000
     20 H           3.8999    1.8042   -1.0759 H.spc      1 <1>        0.000
     21 H           5.1887    0.2769    0.0145 H.spc      1 <1>        0.000
     22 H           4.6651   -1.4101    0.0477 H.spc      1 <1>        0.000
@<TRIPOS>BOND
     1   10   11 ar 
     2    4    5 2  
     3    7    9 ar 
     4    7    8 ar 
     5   10   12 ar 
     6    5    6 1  
     7    3    4 1  
     8    6    7 ar 
     9    2    3 2  
    10    1    2 1  
    11    1   10 ar 
    12    1   13 1  
    13    3   14 1  
    14    4   15 1  
    15    6   16 1  
    16    8   17 1  
    17    9   18 1  
    18    9   19 1  
    19   11   20 1  
    20   12   21 1  
    21   12   22 1  
# Name:          frag3-224-4/31924
# Creation time: Sat Jun  5 12:52:22 2010


@<TRIPOS>MOLECULE
frag3-224-4/31924
   22    21     1     1     1
SMALL
USER_CHARGES


@<TRIPOS>ATOM
      1 N1          2.6490   -1.6860   -1.3435 N.pl3      1 <1>        0.000
      2 N2          3.0619   -2.6617   -0.5592 N.2        1 <1>        0.000
      3 C1          2.4454   -3.1084    0.4644 C.2        1 <1>        0.000
      4 C3          1.0298   -2.7890    0.8412 C.2        1 <1>        0.000
      5 N3          0.0051   -3.1380    0.1699 N.2        1 <1>        0.000
      6 N4         -0.0042   -3.7610   -0.9892 N.pl3      1 <1>        0.000
      7 C4         -0.2395   -3.1878   -2.1708 C.cat      1 <1>        0.000
      8 N5         -0.2159   -3.8040   -3.2808 N.pl3      1 <1>        0.000
      9 N6         -0.4871   -1.8786   -2.1252 N.pl3      1 <1>        0.000
     10 C11         2.9005   -0.3903   -1.1539 C.cat      1 <1>        0.000
     11 N7          2.5000    0.5380   -1.9225 N.pl3      1 <1>        0.000
     12 N8          3.6124   -0.1069   -0.0600 N.pl3      1 <1>        0.000
     13 H           2.0934   -1.9423   -2.1596 H.spc      1 <1>        0.000
     14 H           2.9957   -3.7809    1.1224 H.spc      1 <1>        0.000
     15 H           0.8658   -2.2174    1.7547 H.spc      1 <1>        0.000
     16 H           0.1837   -4.7635   -0.9839 H.spc      1 <1>        0.000
     17 H          -0.3874   -3.2972   -4.1492 H.spc      1 <1>        0.000
     18 H          -0.6600   -1.3619   -2.9875 H.spc      1 <1>        0.000
     19 H          -0.5037   -1.3936   -1.2280 H.spc      1 <1>        0.000
     20 H           2.7215    1.5100   -1.7067 H.spc      1 <1>        0.000
     21 H           3.8389    0.8620    0.1643 H.spc      1 <1>        0.000
     22 H           3.9296   -0.8594    0.5512 H.spc      1 <1>        0.000
@<TRIPOS>BOND
     1   10   11 ar 
     2    4    5 2  
     3    7    9 ar 
     4    7    8 ar 
     5   10   12 ar 
     6    5    6 1  
     7    3    4 1  
     8    6    7 ar 
     9    2    3 2  
    10    1    2 1  
    11    1   10 ar 
    12    1   13 1  
    13    3   14 1  
    14    4   15 1  
    15    6   16 1  
    16    8   17 1  
    17    9   18 1  
    18    9   19 1  
    19   11   20 1  
    20   12   21 1  
    21   12   22 1  
# Name:          frag3-224-4/31924
# Creation time: Sat Jun  5 12:52:22 2010


@<TRIPOS>MOLECULE
frag3-224-4/31924
   22    21     1     1     1
SMALL
USER_CHARGES


@<TRIPOS>ATOM
      1 N1         -0.3053   -2.6205   -1.3957 N.pl3      1 <1>        0.000
      2 N2         -0.0926   -2.6813   -0.1008 N.2        1 <1>        0.000
      3 C1          1.0060   -3.0349    0.4613 C.2        1 <1>        0.000
      4 C3          2.2969   -3.2084   -0.2504 C.2        1 <1>        0.000
      5 N3          2.9101   -2.2569   -0.8475 N.2        1 <1>        0.000
      6 N4          2.5971   -0.9898   -0.8752 N.pl3      1 <1>        0.000
      7 C4          3.4943   -0.0064   -0.7423 C.cat      1 <1>        0.000
      8 N5          3.2060    1.2200   -0.7589 N.pl3      1 <1>        0.000
      9 N6          4.7519   -0.4199   -0.5710 N.pl3      1 <1>        0.000
     10 C11        -0.7357   -3.6361   -2.1551 C.cat      1 <1>        0.000
     11 N7         -0.9507   -3.5539   -3.3948 N.pl3      1 <1>        0.000
     12 N8         -0.9206   -4.7856   -1.4992 N.pl3      1 <1>        0.000
     13 H          -0.1287   -1.7293   -1.8594 H.spc      1 <1>        0.000
     14 H           0.9897   -3.2205    1.5353 H.spc      1 <1>        0.000
     15 H           2.7474   -4.2008   -0.2653 H.spc      1 <1>        0.000
     16 H           1.6176   -0.7364   -1.0049 H.spc      1 <1>        0.000
     17 H           3.9401    1.9181   -0.6401 H.spc      1 <1>        0.000
     18 H           5.5010    0.2618   -0.4504 H.spc      1 <1>        0.000
     19 H           4.9638   -1.4176   -0.5607 H.spc      1 <1>        0.000
     20 H          -1.2708   -4.3725   -3.9123 H.spc      1 <1>        0.000
     21 H          -1.2403   -5.6137   -2.0016 H.spc      1 <1>        0.000
     22 H          -0.7420   -4.8349   -0.4962 H.spc      1 <1>        0.000
@<TRIPOS>BOND
     1   10   11 ar 
     2    4    5 2  
     3    7    9 ar 
     4    7    8 ar 
     5   10   12 ar 
     6    5    6 1  
     7    3    4 1  
     8    6    7 ar 
     9    2    3 2  
    10    1    2 1  
    11    1   10 ar 
    12    1   13 1  
    13    3   14 1  
    14    4   15 1  
    15    6   16 1  
    16    8   17 1  
    17    9   18 1  
    18    9   19 1  
    19   11   20 1  
    20   12   21 1  
    21   12   22 1  
# Name:          frag3-224-4/31924
# Creation time: Sat Jun  5 12:52:22 2010


@<TRIPOS>MOLECULE
frag3-224-4/31924
   22    21     1     1     1
SMALL
USER_CHARGES


@<TRIPOS>ATOM
      1 N1          2.1867   -0.4373   -0.2405 N.pl3      1 <1>        0.000
      2 N2          1.9442   -1.2092    0.8033 N.2        1 <1>        0.000
      3 C1          2.0735   -2.4841    0.8074 C.2        1 <1>        0.000
      4 C3          2.2105   -3.3409   -0.4162 C.2        1 <1>        0.000
      5 N3          1.2692   -3.5337   -1.2447 N.2        1 <1>        0.000
      6 N4          0.0494   -3.0506   -1.2551 N.pl3      1 <1>        0.000
      7 C4         -0.9224   -3.4443   -2.0824 C.cat      1 <1>        0.000
      8 N5         -2.0876   -2.9527   -2.1023 N.pl3      1 <1>        0.000
      9 N6         -0.5723   -4.4273   -2.9164 N.pl3      1 <1>        0.000
     10 C11         3.3375   -0.3897   -0.9282 C.cat      1 <1>        0.000
     11 N7          4.3392   -1.0892   -0.5620 N.pl3      1 <1>        0.000
     12 N8          3.4296    0.3854   -1.9927 N.pl3      1 <1>        0.000
     13 H           1.4332    0.1762   -0.5508 H.spc      1 <1>        0.000
     14 H           2.0848   -2.9850    1.7754 H.spc      1 <1>        0.000
     15 H           3.1697   -3.8235   -0.6035 H.spc      1 <1>        0.000
     16 H          -0.1736   -2.3190   -0.5803 H.spc      1 <1>        0.000
     17 H          -2.7792   -3.3065   -2.7633 H.spc      1 <1>        0.000
     18 H          -1.2497   -4.7946   -3.5847 H.spc      1 <1>        0.000
     19 H           0.3724   -4.8106   -2.8849 H.spc      1 <1>        0.000
     20 H           5.2101   -1.0492   -1.0915 H.spc      1 <1>        0.000
     21 H           4.3011    0.4244   -2.5213 H.spc      1 <1>        0.000
     22 H           2.6293    0.9453   -2.2867 H.spc      1 <1>        0.000
@<TRIPOS>BOND
     1   10   11 ar 
     2    4    5 2  
     3    7    9 ar 
     4    7    8 ar 
     5   10   12 ar 
     6    5    6 1  
     7    3    4 1  
     8    6    7 ar 
     9    2    3 2  
    10    1    2 1  
    11    1   10 ar 
    12    1   13 1  
    13    3   14 1  
    14    4   15 1  
    15    6   16 1  
    16    8   17 1  
    17    9   18 1  
    18    9   19 1  
    19   11   20 1  
    20   12   21 1  
    21   12   22 1  
# Name:          frag3-224-4/31924
# Creation time: Sat Jun  5 12:52:22 2010


@<TRIPOS>MOLECULE
frag3-224-4/31924
   22    21     1     1     1
SMALL
USER_CHARGES


@<TRIPOS>ATOM
      1 N1          2.4618   -1.0742   -0.3777 N.pl3      1 <1>        0.000
      2 N2          2.5536   -2.3207    0.0283 N.2        1 <1>        0.000
      3 C1          1.6581   -3.0765    0.5182 C.2        1 <1>        0.000
      4 C3          0.2266   -2.6540    0.7130 C.2        1 <1>        0.000
      5 N3         -0.5369   -2.1766   -0.2026 N.2        1 <1>        0.000
      6 N4         -0.2967   -2.2975   -1.4986 N.pl3      1 <1>        0.000
      7 C4         -0.0173   -3.4516   -2.1251 C.cat      1 <1>        0.000
      8 N5         -0.1986   -4.5667   -1.5323 N.pl3      1 <1>        0.000
      9 N6          0.4794   -3.4277   -3.3475 N.pl3      1 <1>        0.000
     10 C11         3.3347   -0.4580   -1.1776 C.cat      1 <1>        0.000
     11 N7          3.2137    0.7349   -1.5854 N.pl3      1 <1>        0.000
     12 N8          4.3791   -1.2050   -1.5424 N.pl3      1 <1>        0.000
     13 H           1.6587   -0.5341   -0.0556 H.spc      1 <1>        0.000
     14 H           1.9418   -4.0866    0.8138 H.spc      1 <1>        0.000
     15 H          -0.1961   -2.7620    1.7119 H.spc      1 <1>        0.000
     16 H          -0.3261   -1.4493   -2.0644 H.spc      1 <1>        0.000
     17 H           0.0403   -5.4394   -2.0032 H.spc      1 <1>        0.000
     18 H           0.7182   -4.3006   -3.8181 H.spc      1 <1>        0.000
     19 H           0.6245   -2.5364   -3.8217 H.spc      1 <1>        0.000
     20 H           3.9201    1.1374   -2.2014 H.spc      1 <1>        0.000
     21 H           5.0937   -0.8166   -2.1579 H.spc      1 <1>        0.000
     22 H           4.4625   -2.1642   -1.2056 H.spc      1 <1>        0.000
@<TRIPOS>BOND
     1   10   11 ar 
     2    4    5 2  
     3    7    9 ar 
     4    7    8 ar 
     5   10   12 ar 
     6    5    6 1  
     7    3    4 1  
     8    6    7 ar 
     9    2    3 2  
    10    1    2 1  
    11    1   10 ar 
    12    1   13 1  
    13    3   14 1  
    14    4   15 1  
    15    6   16 1  
    16    8   17 1  
    17    9   18 1  
    18    9   19 1  
    19   11   20 1  
    20   12   21 1  
    21   12   22 1  
# Name:          frag3-224-4/31924
# Creation time: Sat Jun  5 12:52:22 2010


@<TRIPOS>MOLECULE
frag3-224-4/31924
   22    21     1     1     1
SMALL
USER_CHARGES


@<TRIPOS>ATOM
      1 N1          2.1787   -0.3370   -0.7661 N.pl3      1 <1>        0.000
      2 N2          1.5808   -0.7418    0.3405 N.2        1 <1>        0.000
      3 C1          1.5220   -1.9606    0.7284 C.2        1 <1>        0.000
      4 C3          1.9294   -3.1757   -0.0604 C.2        1 <1>        0.000
      5 N3          1.1253   -3.9322   -0.6912 N.2        1 <1>        0.000
      6 N4         -0.1595   -3.7334   -0.8821 N.pl3      1 <1>        0.000
      7 C4         -0.7274   -3.5223   -2.0697 C.cat      1 <1>        0.000
      8 N5         -1.9460   -3.2034   -2.2310 N.pl3      1 <1>        0.000
      9 N6          0.0849   -3.6543   -3.1188 N.pl3      1 <1>        0.000
     10 C11         3.4691   -0.4932   -1.0749 C.cat      1 <1>        0.000
     11 N7          3.9890   -0.1562   -2.1832 N.pl3      1 <1>        0.000
     12 N8          4.2113   -1.0635   -0.1213 N.pl3      1 <1>        0.000
     13 H           1.5970    0.1426   -1.4531 H.spc      1 <1>        0.000
     14 H           1.1374   -2.1361    1.7331 H.spc      1 <1>        0.000
     15 H           2.9899   -3.4252   -0.0934 H.spc      1 <1>        0.000
     16 H          -0.7663   -3.7412   -0.0623 H.spc      1 <1>        0.000
     17 H          -2.3119   -3.0456   -3.1699 H.spc      1 <1>        0.000
     18 H          -0.2709   -3.4988   -4.0620 H.spc      1 <1>        0.000
     19 H           1.0620   -3.9108   -2.9781 H.spc      1 <1>        0.000
     20 H           4.9815   -0.3202   -2.3518 H.spc      1 <1>        0.000
     21 H           5.2047   -1.2316   -0.2804 H.spc      1 <1>        0.000
     22 H           3.7845   -1.3307    0.7657 H.spc      1 <1>        0.000
@<TRIPOS>BOND
     1   10   11 ar 
     2    4    5 2  
     3    7    9 ar 
     4    7    8 ar 
     5   10   12 ar 
     6    5    6 1  
     7    3    4 1  
     8    6    7 ar 
     9    2    3 2  
    10    1    2 1  
    11    1   10 ar 
    12    1   13 1  
    13    3   14 1  
    14    4   15 1  
    15    6   16 1  
    16    8   17 1  
    17    9   18 1  
    18    9   19 1  
    19   11   20 1  
    20   12   21 1  
    21   12   22 1  
# Name:          frag3-224-4/31924
# Creation time: Sat Jun  5 12:52:22 2010


@<TRIPOS>MOLECULE
frag3-224-4/31924
   22    21     1     1     1
SMALL
USER_CHARGES


@<TRIPOS>ATOM
      1 N1          3.3430   -1.2342   -0.3040 N.pl3      1 <1>        0.000
      2 N2          2.8014   -1.4431    0.8812 N.2        1 <1>        0.000
      3 C1          2.0762   -2.4468    1.1900 C.2        1 <1>        0.000
      4 C3          1.8782   -3.6742    0.3632 C.2        1 <1>        0.000
      5 N3          0.9550   -3.8414   -0.4885 N.2        1 <1>        0.000
      6 N4          0.0336   -2.9964   -0.8835 N.pl3      1 <1>        0.000
      7 C4         -0.3312   -2.8216   -2.1544 C.cat      1 <1>        0.000
      8 N5         -1.2058   -1.9816   -2.5337 N.pl3      1 <1>        0.000
      9 N6          0.3044   -3.5932   -3.0355 N.pl3      1 <1>        0.000
     10 C11         2.7129   -0.7932   -1.3984 C.cat      1 <1>        0.000
     11 N7          3.2745   -0.6078   -2.5232 N.pl3      1 <1>        0.000
     12 N8          1.4153   -0.5401   -1.2428 N.pl3      1 <1>        0.000
     13 H           4.3403   -1.4281   -0.3944 H.spc      1 <1>        0.000
     14 H           1.5532   -2.4041    2.1454 H.spc      1 <1>        0.000
     15 H           2.5847   -4.4923    0.5035 H.spc      1 <1>        0.000
     16 H          -0.4351   -2.4357   -0.1719 H.spc      1 <1>        0.000
     17 H          -1.4299   -1.8909   -3.5246 H.spc      1 <1>        0.000
     18 H           0.0912   -3.5141   -4.0298 H.spc      1 <1>        0.000
     19 H           1.0041   -4.2629   -2.7156 H.spc      1 <1>        0.000
     20 H           2.7306   -0.2629   -3.3141 H.spc      1 <1>        0.000
     21 H           0.8651   -0.1950   -2.0293 H.spc      1 <1>        0.000
     22 H           0.9712   -0.6913   -0.3371 H.spc      1 <1>        0.000
@<TRIPOS>BOND
     1   10   11 ar 
     2    4    5 2  
     3    7    9 ar 
     4    7    8 ar 
     5   10   12 ar 
     6    5    6 1  
     7    3    4 1  
     8    6    7 ar 
     9    2    3 2  
    10    1    2 1  
    11    1   10 ar 
    12    1   13 1  
    13    3   14 1  
    14    4   15 1  
    15    6   16 1  
    16    8   17 1  
    17    9   18 1  
    18    9   19 1  
    19   11   20 1  
    20   12   21 1  
    21   12   22 1  
# Name:          frag3-224-4/31924
# Creation time: Sat Jun  5 12:52:22 2010


@<TRIPOS>MOLECULE
frag3-224-4/31924
   22    21     1     1     1
SMALL
USER_CHARGES


@<TRIPOS>ATOM
      1 N1          3.0210   -0.5186   -0.3909 N.pl3      1 <1>        0.000
      2 N2          3.0718   -1.8236   -0.3212 N.2        1 <1>        0.000
      3 C1          2.1341   -2.6572   -0.1926 C.2        1 <1>        0.000
      4 C3          0.7132   -2.2777   -0.0810 C.2        1 <1>        0.000
      5 N3         -0.2196   -2.8640   -0.6936 N.2        1 <1>        0.000
      6 N4         -0.1701   -3.9037   -1.4859 N.pl3      1 <1>        0.000
      7 C4         -1.1955   -4.3541   -2.2072 C.cat      1 <1>        0.000
      8 N5         -1.1645   -5.4200   -2.8985 N.pl3      1 <1>        0.000
      9 N6         -2.2904   -3.5986   -2.1518 N.pl3      1 <1>        0.000
     10 C11         4.0852    0.2670   -0.5433 C.cat      1 <1>        0.000
     11 N7          4.1159    1.2727   -1.3191 N.pl3      1 <1>        0.000
     12 N8          5.1565   -0.0959    0.1554 N.pl3      1 <1>        0.000
     13 H           2.1058   -0.0733   -0.3241 H.spc      1 <1>        0.000
     14 H           2.3878   -3.7168   -0.1623 H.spc      1 <1>        0.000
     15 H           0.4547   -1.4417    0.5689 H.spc      1 <1>        0.000
     16 H           0.7156   -4.4046   -1.5563 H.spc      1 <1>        0.000
     17 H          -1.9886   -5.7109   -3.4244 H.spc      1 <1>        0.000
     18 H          -3.1252   -3.8717   -2.6703 H.spc      1 <1>        0.000
     19 H          -2.2944   -2.7467   -1.5909 H.spc      1 <1>        0.000
     20 H           4.9730    1.8175   -1.4142 H.spc      1 <1>        0.000
     21 H           6.0229    0.4362    0.0738 H.spc      1 <1>        0.000
     22 H           5.1120   -0.9064    0.7730 H.spc      1 <1>        0.000
@<TRIPOS>BOND
     1   10   11 ar 
     2    4    5 2  
     3    7    9 ar 
     4    7    8 ar 
     5   10   12 ar 
     6    5    6 1  
     7    3    4 1  
     8    6    7 ar 
     9    2    3 2  
    10    1    2 1  
    11    1   10 ar 
    12    1   13 1  
    13    3   14 1  
    14    4   15 1  
    15    6   16 1  
    16    8   17 1  
    17    9   18 1  
    18    9   19 1  
    19   11   20 1  
    20   12   21 1  
    21   12   22 1  
# Name:          frag3-224-4/31924
# Creation time: Sat Jun  5 12:52:22 2010


@<TRIPOS>MOLECULE
frag3-224-4/31924
   22    21     1     1     1
SMALL
USER_CHARGES


@<TRIPOS>ATOM
      1 N1         -0.3388   -3.4102   -1.2345 N.pl3      1 <1>        0.000
      2 N2          0.7682   -2.9154   -1.7226 N.2        1 <1>        0.000
      3 C1          1.5109   -2.0096   -1.2462 C.2        1 <1>        0.000
      4 C3          1.2995   -1.3329    0.0782 C.2        1 <1>        0.000
      5 N3          1.9540   -0.3341    0.5420 N.2        1 <1>        0.000
      6 N4          3.0233    0.1692   -0.0505 N.pl3      1 <1>        0.000
      7 C4          4.0285   -0.5341   -0.5798 C.cat      1 <1>        0.000
      8 N5          4.5815   -0.2649   -1.6922 N.pl3      1 <1>        0.000
      9 N6          4.3659   -1.6279    0.1004 N.pl3      1 <1>        0.000
     10 C11        -1.1056   -4.2825   -1.8743 C.cat      1 <1>        0.000
     11 N7         -2.3461   -4.4248   -1.6496 N.pl3      1 <1>        0.000
     12 N8         -0.4837   -5.0063   -2.8005 N.pl3      1 <1>        0.000
     13 H          -0.6304   -3.1070   -0.3053 H.spc      1 <1>        0.000
     14 H           2.3688   -1.6963   -1.8411 H.spc      1 <1>        0.000
     15 H           0.5069   -1.7333    0.7102 H.spc      1 <1>        0.000
     16 H           3.0866    1.1856   -0.1088 H.spc      1 <1>        0.000
     17 H           5.2921   -0.8898   -2.0729 H.spc      1 <1>        0.000
     18 H           5.0751   -2.2604   -0.2702 H.spc      1 <1>        0.000
     19 H           3.9151   -1.8333    0.9920 H.spc      1 <1>        0.000
     20 H          -2.8865   -5.1049   -2.1842 H.spc      1 <1>        0.000
     21 H          -1.0049   -5.6922   -3.3467 H.spc      1 <1>        0.000
     22 H           0.5145   -4.8756   -2.9647 H.spc      1 <1>        0.000
@<TRIPOS>BOND
     1   10   11 ar 
     2    4    5 2  
     3    7    9 ar 
     4    7    8 ar 
     5   10   12 ar 
     6    5    6 1  
     7    3    4 1  
     8    6    7 ar 
     9    2    3 2  
    10    1    2 1  
    11    1   10 ar 
    12    1   13 1  
    13    3   14 1  
    14    4   15 1  
    15    6   16 1  
    16    8   17 1  
    17    9   18 1  
    18    9   19 1  
    19   11   20 1  
    20   12   21 1  
    21   12   22 1  
# Name:          frag3-224-4/31924
# Creation time: Sat Jun  5 12:52:22 2010


@<TRIPOS>MOLECULE
frag3-224-4/31924
   22    21     1     1     1
SMALL
USER_CHARGES


@<TRIPOS>ATOM
      1 N1          2.6999   -0.7729   -0.5760 N.pl3      1 <1>        0.000
      2 N2          2.4653   -1.9053    0.0422 N.2        1 <1>        0.000
      3 C1          1.3613   -2.4442    0.3538 C.2        1 <1>        0.000
      4 C3          0.0320   -1.8554    0.0046 C.2        1 <1>        0.000
      5 N3         -0.5244   -1.9458   -1.1413 N.2        1 <1>        0.000
      6 N4         -0.1976   -2.8178   -2.0729 N.pl3      1 <1>        0.000
      7 C4         -0.4392   -4.1332   -2.0027 C.cat      1 <1>        0.000
      8 N5         -0.9192   -4.6460   -0.9387 N.pl3      1 <1>        0.000
      9 N6         -0.1890   -4.8959   -3.0500 N.pl3      1 <1>        0.000
     10 C11         3.9150   -0.2946   -0.8559 C.cat      1 <1>        0.000
     11 N7          4.1305    0.7297   -1.5666 N.pl3      1 <1>        0.000
     12 N8          4.9229   -0.9922   -0.3263 N.pl3      1 <1>        0.000
     13 H           1.8951   -0.2164   -0.8643 H.spc      1 <1>        0.000
     14 H           1.3819   -3.3847    0.9043 H.spc      1 <1>        0.000
     15 H          -0.5003   -1.3100    0.7839 H.spc      1 <1>        0.000
     16 H           0.2728   -2.4663   -2.9069 H.spc      1 <1>        0.000
     17 H          -1.1103   -5.6470   -0.8963 H.spc      1 <1>        0.000
     18 H          -0.3796   -5.8971   -3.0090 H.spc      1 <1>        0.000
     19 H           0.1950   -4.4843   -3.9006 H.spc      1 <1>        0.000
     20 H           5.0873    1.0355   -1.7436 H.spc      1 <1>        0.000
     21 H           5.8866   -0.7019   -0.4921 H.spc      1 <1>        0.000
     22 H           4.7291   -1.8154    0.2440 H.spc      1 <1>        0.000
@<TRIPOS>BOND
     1   10   11 ar 
     2    4    5 2  
     3    7    9 ar 
     4    7    8 ar 
     5   10   12 ar 
     6    5    6 1  
     7    3    4 1  
     8    6    7 ar 
     9    2    3 2  
    10    1    2 1  
    11    1   10 ar 
    12    1   13 1  
    13    3   14 1  
    14    4   15 1  
    15    6   16 1  
    16    8   17 1  
    17    9   18 1  
    18    9   19 1  
    19   11   20 1  
    20   12   21 1  
    21   12   22 1  
# Name:          frag3-224-4/31924
# Creation time: Sat Jun  5 12:52:22 2010


@<TRIPOS>MOLECULE
frag3-224-4/31924
   22    21     1     1     1
SMALL
USER_CHARGES


@<TRIPOS>ATOM
      1 N1         -0.2513   -3.3071   -1.2471 N.pl3      1 <1>        0.000
      2 N2          1.0361   -3.5000   -1.3958 N.2        1 <1>        0.000
      3 C1          2.0034   -3.0803   -0.6946 C.2        1 <1>        0.000
      4 C3          1.8363   -2.2350    0.5271 C.2        1 <1>        0.000
      5 N3          1.9553   -0.9648    0.5633 N.2        1 <1>        0.000
      6 N4          2.4794   -0.2312   -0.3946 N.pl3      1 <1>        0.000
      7 C4          3.7762   -0.2070   -0.7236 C.cat      1 <1>        0.000
      8 N5          4.6376   -0.7951    0.0072 N.pl3      1 <1>        0.000
      9 N6          4.1545    0.4019   -1.8312 N.pl3      1 <1>        0.000
     10 C11        -1.1954   -3.8290   -2.0331 C.cat      1 <1>        0.000
     11 N7         -2.4379   -3.6547   -1.8640 N.pl3      1 <1>        0.000
     12 N8         -0.7368   -4.5712   -3.0433 N.pl3      1 <1>        0.000
     13 H          -0.5542   -2.7147   -0.4740 H.spc      1 <1>        0.000
     14 H           3.0146   -3.3505   -0.9988 H.spc      1 <1>        0.000
     15 H           1.5938   -2.7435    1.4602 H.spc      1 <1>        0.000
     16 H           1.8478    0.3659   -0.9284 H.spc      1 <1>        0.000
     17 H           5.6210   -0.7957   -0.2636 H.spc      1 <1>        0.000
     18 H           5.1377    0.4019   -2.1029 H.spc      1 <1>        0.000
     19 H           3.4638    0.8726   -2.4158 H.spc      1 <1>        0.000
     20 H          -3.1050   -4.0844   -2.5048 H.spc      1 <1>        0.000
     21 H          -1.3906   -5.0079   -3.6931 H.spc      1 <1>        0.000
     22 H           0.2674   -4.7017   -3.1654 H.spc      1 <1>        0.000
@<TRIPOS>BOND
     1   10   11 ar 
     2    4    5 2  
     3    7    9 ar 
     4    7    8 ar 
     5   10   12 ar 
     6    5    6 1  
     7    3    4 1  
     8    6    7 ar 
     9    2    3 2  
    10    1    2 1  
    11    1   10 ar 
    12    1   13 1  
    13    3   14 1  
    14    4   15 1  
    15    6   16 1  
    16    8   17 1  
    17    9   18 1  
    18    9   19 1  
    19   11   20 1  
    20   12   21 1  
    21   12   22 1  
# Name:          frag3-224-4/31924
# Creation time: Sat Jun  5 12:52:22 2010


@<TRIPOS>MOLECULE
frag3-224-4/31924
   22    21     1     1     1
SMALL
USER_CHARGES


@<TRIPOS>ATOM
      1 N1         -0.1601   -3.7769   -1.3997 N.pl3      1 <1>        0.000
      2 N2          0.5036   -2.7557   -1.8750 N.2        1 <1>        0.000
      3 C1          1.3528   -2.0162   -1.3009 C.2        1 <1>        0.000
      4 C3          1.7989   -2.1815    0.1153 C.2        1 <1>        0.000
      5 N3          2.4090   -1.3031    0.8065 N.2        1 <1>        0.000
      6 N4          2.9378   -0.2056    0.3189 N.pl3      1 <1>        0.000
      7 C4          4.0184   -0.1514   -0.4691 C.cat      1 <1>        0.000
      8 N5          4.5937   -1.2199   -0.8543 N.pl3      1 <1>        0.000
      9 N6          4.4804    1.0235   -0.8487 N.pl3      1 <1>        0.000
     10 C11        -1.2245   -4.3263   -1.9835 C.cat      1 <1>        0.000
     11 N7         -1.8509   -5.3231   -1.5195 N.pl3      1 <1>        0.000
     12 N8         -1.6017   -3.7375   -3.1197 N.pl3      1 <1>        0.000
     13 H           0.1595   -4.1817   -0.5197 H.spc      1 <1>        0.000
     14 H           1.7897   -1.2018   -1.8788 H.spc      1 <1>        0.000
     15 H           1.5839   -3.1349    0.5979 H.spc      1 <1>        0.000
     16 H           2.4889    0.6780    0.5600 H.spc      1 <1>        0.000
     17 H           5.4142   -1.1682   -1.4581 H.spc      1 <1>        0.000
     18 H           5.3007    1.0781   -1.4525 H.spc      1 <1>        0.000
     19 H           4.0176    1.8779   -0.5386 H.spc      1 <1>        0.000
     20 H          -2.6619   -5.6920   -2.0160 H.spc      1 <1>        0.000
     21 H          -2.4098   -4.0897   -3.6328 H.spc      1 <1>        0.000
     22 H          -1.0819   -2.9351   -3.4753 H.spc      1 <1>        0.000
@<TRIPOS>BOND
     1   10   11 ar 
     2    4    5 2  
     3    7    9 ar 
     4    7    8 ar 
     5   10   12 ar 
     6    5    6 1  
     7    3    4 1  
     8    6    7 ar 
     9    2    3 2  
    10    1    2 1  
    11    1   10 ar 
    12    1   13 1  
    13    3   14 1  
    14    4   15 1  
    15    6   16 1  
    16    8   17 1  
    17    9   18 1  
    18    9   19 1  
    19   11   20 1  
    20   12   21 1  
    21   12   22 1  
# Name:          frag3-224-4/31924
# Creation time: Sat Jun  5 12:52:22 2010


@<TRIPOS>MOLECULE
frag3-224-4/31924
   22    21     1     1     1
SMALL
USER_CHARGES


@<TRIPOS>ATOM
      1 N1          0.0790   -3.2571   -0.9404 N.pl3      1 <1>        0.000
      2 N2          1.2325   -3.8796   -0.8429 N.2        1 <1>        0.000
      3 C1          2.2094   -3.6381   -0.0676 C.2        1 <1>        0.000
      4 C3          2.1931   -2.5747    0.9884 C.2        1 <1>        0.000
      5 N3          1.9511   -1.3343    0.7891 N.2        1 <1>        0.000
      6 N4          1.9300   -0.7373   -0.3870 N.pl3      1 <1>        0.000
      7 C4          2.9987   -0.5300   -1.1666 C.cat      1 <1>        0.000
      8 N5          4.1376   -1.0019   -0.8399 N.pl3      1 <1>        0.000
      9 N6          2.8706    0.1877   -2.2673 N.pl3      1 <1>        0.000
     10 C11        -0.6051   -3.0947   -2.0766 C.cat      1 <1>        0.000
     11 N7         -1.6854   -2.4412   -2.1718 N.pl3      1 <1>        0.000
     12 N8         -0.0541   -3.6724   -3.1470 N.pl3      1 <1>        0.000
     13 H          -0.3231   -2.8699   -0.0867 H.spc      1 <1>        0.000
     14 H           3.1120   -4.2393   -0.1767 H.spc      1 <1>        0.000
     15 H           2.4052   -2.8840    2.0119 H.spc      1 <1>        0.000
     16 H           1.0278   -0.4073   -0.7298 H.spc      1 <1>        0.000
     17 H           4.9511   -0.8250   -1.4293 H.spc      1 <1>        0.000
     18 H           3.6832    0.3654   -2.8577 H.spc      1 <1>        0.000
     19 H           1.9591    0.5645   -2.5273 H.spc      1 <1>        0.000
     20 H          -2.1482   -2.3499   -3.0762 H.spc      1 <1>        0.000
     21 H          -0.5039   -3.5908   -4.0588 H.spc      1 <1>        0.000
     22 H           0.8166   -4.1953   -3.0528 H.spc      1 <1>        0.000
@<TRIPOS>BOND
     1   10   11 ar 
     2    4    5 2  
     3    7    9 ar 
     4    7    8 ar 
     5   10   12 ar 
     6    5    6 1  
     7    3    4 1  
     8    6    7 ar 
     9    2    3 2  
    10    1    2 1  
    11    1   10 ar 
    12    1   13 1  
    13    3   14 1  
    14    4   15 1  
    15    6   16 1  
    16    8   17 1  
    17    9   18 1  
    18    9   19 1  
    19   11   20 1  
    20   12   21 1  
    21   12   22 1  
# Name:          frag3-224-4/31924
# Creation time: Sat Jun  5 12:52:22 2010


@<TRIPOS>MOLECULE
frag3-224-4/31924
   22    21     1     1     1
SMALL
USER_CHARGES


@<TRIPOS>ATOM
      1 N1          2.6247   -0.3018    0.1120 N.pl3      1 <1>        0.000
      2 N2          1.8556   -0.1133   -0.9387 N.2        1 <1>        0.000
      3 C1          1.6172   -1.0088   -1.8175 C.2        1 <1>        0.000
      4 C3          1.8716   -2.4740   -1.6454 C.2        1 <1>        0.000
      5 N3          0.9588   -3.3503   -1.6244 N.2        1 <1>        0.000
      6 N4         -0.3302   -3.2143   -1.8017 N.pl3      1 <1>        0.000
      7 C4         -1.2266   -4.1822   -1.6062 C.cat      1 <1>        0.000
      8 N5         -2.4591   -4.0716   -1.8717 N.pl3      1 <1>        0.000
      9 N6         -0.7308   -5.3125   -1.0981 N.pl3      1 <1>        0.000
     10 C11         3.9395   -0.5466    0.0602 C.cat      1 <1>        0.000
     11 N7          4.6003   -0.3084   -1.0015 N.pl3      1 <1>        0.000
     12 N8          4.5365   -1.0899    1.1034 N.pl3      1 <1>        0.000
     13 H           2.1874   -0.2582    1.0325 H.spc      1 <1>        0.000
     14 H           1.1954   -0.6805   -2.7674 H.spc      1 <1>        0.000
     15 H           2.9037   -2.8055   -1.5315 H.spc      1 <1>        0.000
     16 H          -0.6734   -2.3049   -2.1109 H.spc      1 <1>        0.000
     17 H          -3.0904   -4.8536   -1.6977 H.spc      1 <1>        0.000
     18 H          -1.3479   -6.1044   -0.9179 H.spc      1 <1>        0.000
     19 H           0.2652   -5.3843   -0.8900 H.spc      1 <1>        0.000
     20 H           5.5932   -0.5377   -1.0465 H.spc      1 <1>        0.000
     21 H           5.5293   -1.3199    1.0603 H.spc      1 <1>        0.000
     22 H           4.0054   -1.2800    1.9532 H.spc      1 <1>        0.000
@<TRIPOS>BOND
     1   10   11 ar 
     2    4    5 2  
     3    7    9 ar 
     4    7    8 ar 
     5   10   12 ar 
     6    5    6 1  
     7    3    4 1  
     8    6    7 ar 
     9    2    3 2  
    10    1    2 1  
    11    1   10 ar 
    12    1   13 1  
    13    3   14 1  
    14    4   15 1  
    15    6   16 1  
    16    8   17 1  
    17    9   18 1  
    18    9   19 1  
    19   11   20 1  
    20   12   21 1  
    21   12   22 1  
# Name:          frag3-224-4/31924
# Creation time: Sat Jun  5 12:52:22 2010


@<TRIPOS>MOLECULE
frag3-224-4/31924
   22    21     1     1     1
SMALL
USER_CHARGES


@<TRIPOS>ATOM
      1 N1         -0.4706   -4.0939   -0.6969 N.pl3      1 <1>        0.000
      2 N2          0.8404   -4.2047   -0.7366 N.2        1 <1>        0.000
      3 C1          1.6341   -3.2404   -1.0181 C.2        1 <1>        0.000
      4 C3          1.2558   -1.7996   -1.0559 C.2        1 <1>        0.000
      5 N3          2.0062   -0.8661   -0.6333 N.2        1 <1>        0.000
      6 N4          3.2207   -0.9347   -0.1582 N.pl3      1 <1>        0.000
      7 C4          4.1632   -0.0097   -0.3750 C.cat      1 <1>        0.000
      8 N5          5.0193    0.3407    0.4795 N.pl3      1 <1>        0.000
      9 N6          4.1155    0.5521   -1.5864 N.pl3      1 <1>        0.000
     10 C11        -1.2966   -3.9429   -1.7468 C.cat      1 <1>        0.000
     11 N7         -2.4624   -3.4693   -1.6814 N.pl3      1 <1>        0.000
     12 N8         -0.7682   -4.3050   -2.9206 N.pl3      1 <1>        0.000
     13 H          -0.9046   -4.1259    0.2256 H.spc      1 <1>        0.000
     14 H           2.6690   -3.4935   -1.2485 H.spc      1 <1>        0.000
     15 H           0.2829   -1.5325   -1.4684 H.spc      1 <1>        0.000
     16 H           3.4661   -1.7431    0.4133 H.spc      1 <1>        0.000
     17 H           5.6970    1.0688    0.2536 H.spc      1 <1>        0.000
     18 H           4.7823    1.2824   -1.8365 H.spc      1 <1>        0.000
     19 H           3.4123    0.2507   -2.2610 H.spc      1 <1>        0.000
     20 H          -3.0160   -3.3579   -2.5308 H.spc      1 <1>        0.000
     21 H          -1.3102   -4.1993   -3.7782 H.spc      1 <1>        0.000
     22 H           0.1768   -4.6869   -2.9584 H.spc      1 <1>        0.000
@<TRIPOS>BOND
     1   10   11 ar 
     2    4    5 2  
     3    7    9 ar 
     4    7    8 ar 
     5   10   12 ar 
     6    5    6 1  
     7    3    4 1  
     8    6    7 ar 
     9    2    3 2  
    10    1    2 1  
    11    1   10 ar 
    12    1   13 1  
    13    3   14 1  
    14    4   15 1  
    15    6   16 1  
    16    8   17 1  
    17    9   18 1  
    18    9   19 1  
    19   11   20 1  
    20   12   21 1  
    21   12   22 1  
# Name:          frag3-224-4/31924
# Creation time: Sat Jun  5 12:52:22 2010


@<TRIPOS>MOLECULE
frag3-224-4/31924
   22    21     1     1     1
SMALL
USER_CHARGES


@<TRIPOS>ATOM
      1 N1         -0.3505   -3.6174   -1.0262 N.pl3      1 <1>        0.000
      2 N2          0.9504   -3.5266   -1.1381 N.2        1 <1>        0.000
      3 C1          1.6627   -2.4796   -1.0572 C.2        1 <1>        0.000
      4 C3          1.1584   -1.1214   -0.6524 C.2        1 <1>        0.000
      5 N3          1.7600   -0.3185    0.1419 N.2        1 <1>        0.000
      6 N4          3.0280   -0.4342    0.4767 N.pl3      1 <1>        0.000
      7 C4          4.0384   -0.4620   -0.4008 C.cat      1 <1>        0.000
      8 N5          3.8253   -0.2247   -1.6346 N.pl3      1 <1>        0.000
      9 N6          5.2459   -0.7871    0.0097 N.pl3      1 <1>        0.000
     10 C11        -1.1434   -4.1562   -1.9548 C.cat      1 <1>        0.000
     11 N7         -2.4003   -4.2537   -1.8424 N.pl3      1 <1>        0.000
     12 N8         -0.5175   -4.5922   -3.0514 N.pl3      1 <1>        0.000
     13 H          -0.7848   -3.2543   -0.1777 H.spc      1 <1>        0.000
     14 H           2.7214   -2.5714   -1.2997 H.spc      1 <1>        0.000
     15 H           0.2052   -0.7954   -1.0686 H.spc      1 <1>        0.000
     16 H           3.2550   -0.5074    1.4684 H.spc      1 <1>        0.000
     17 H           4.5911   -0.2866   -2.3055 H.spc      1 <1>        0.000
     18 H           6.0127   -0.8494   -0.6600 H.spc      1 <1>        0.000
     19 H           5.4149   -0.9767    0.9976 H.spc      1 <1>        0.000
     20 H          -2.9489   -4.6696   -2.5951 H.spc      1 <1>        0.000
     21 H          -1.0531   -5.0103   -3.8121 H.spc      1 <1>        0.000
     22 H           0.4960   -4.5070   -3.1280 H.spc      1 <1>        0.000
@<TRIPOS>BOND
     1   10   11 ar 
     2    4    5 2  
     3    7    9 ar 
     4    7    8 ar 
     5   10   12 ar 
     6    5    6 1  
     7    3    4 1  
     8    6    7 ar 
     9    2    3 2  
    10    1    2 1  
    11    1   10 ar 
    12    1   13 1  
    13    3   14 1  
    14    4   15 1  
    15    6   16 1  
    16    8   17 1  
    17    9   18 1  
    18    9   19 1  
    19   11   20 1  
    20   12   21 1  
    21   12   22 1  
# Name:          frag3-224-4/31924
# Creation time: Sat Jun  5 12:52:22 2010


@<TRIPOS>MOLECULE
frag3-224-4/31924
   22    21     1     1     1
SMALL
USER_CHARGES


@<TRIPOS>ATOM
      1 N1          3.3608   -0.7477    0.5443 N.pl3      1 <1>        0.000
      2 N2          2.0522   -0.6721    0.6187 N.2        1 <1>        0.000
      3 C1          1.2509   -1.3947   -0.0566 C.2        1 <1>        0.000
      4 C3          1.6272   -2.6420   -0.7860 C.2        1 <1>        0.000
      5 N3          0.8165   -3.3806   -1.4120 N.2        1 <1>        0.000
      6 N4         -0.4622   -3.2128   -1.6195 N.pl3      1 <1>        0.000
      7 C4         -1.2668   -4.1295   -2.1547 C.cat      1 <1>        0.000
      8 N5         -2.5077   -3.9632   -2.3365 N.pl3      1 <1>        0.000
      9 N6         -0.6628   -5.2709   -2.4894 N.pl3      1 <1>        0.000
     10 C11         4.0976   -0.3172   -0.4876 C.cat      1 <1>        0.000
     11 N7          3.5434    0.2146   -1.5027 N.pl3      1 <1>        0.000
     12 N8          5.4083   -0.4577   -0.4477 N.pl3      1 <1>        0.000
     13 H           3.8540   -1.1664    1.3329 H.spc      1 <1>        0.000
     14 H           0.2090   -1.0783   -0.1063 H.spc      1 <1>        0.000
     15 H           2.6768   -2.9361   -0.7775 H.spc      1 <1>        0.000
     16 H          -0.8729   -2.3179   -1.3533 H.spc      1 <1>        0.000
     17 H          -3.0677   -4.7105   -2.7467 H.spc      1 <1>        0.000
     18 H          -1.2028   -6.0320   -2.9011 H.spc      1 <1>        0.000
     19 H           0.3390   -5.3825   -2.3336 H.spc      1 <1>        0.000
     20 H           4.1132    0.5327   -2.2866 H.spc      1 <1>        0.000
     21 H           5.9793   -0.1401   -1.2309 H.spc      1 <1>        0.000
     22 H           5.8510   -0.8840    0.3664 H.spc      1 <1>        0.000
@<TRIPOS>BOND
     1   10   11 ar 
     2    4    5 2  
     3    7    9 ar 
     4    7    8 ar 
     5   10   12 ar 
     6    5    6 1  
     7    3    4 1  
     8    6    7 ar 
     9    2    3 2  
    10    1    2 1  
    11    1   10 ar 
    12    1   13 1  
    13    3   14 1  
    14    4   15 1  
    15    6   16 1  
    16    8   17 1  
    17    9   18 1  
    18    9   19 1  
    19   11   20 1  
    20   12   21 1  
    21   12   22 1  
# Name:          frag3-224-4/31924
# Creation time: Sat Jun  5 12:52:22 2010


@<TRIPOS>MOLECULE
frag3-224-4/31924
   22    21     1     1     1
SMALL
USER_CHARGES


@<TRIPOS>ATOM
      1 N1          1.7741   -0.5399   -0.5435 N.pl3      1 <1>        0.000
      2 N2          1.2778   -1.1794    0.5161 N.2        1 <1>        0.000
      3 C1          1.4846   -2.4312    0.7541 C.2        1 <1>        0.000
      4 C3          2.1177   -3.4462   -0.2006 C.2        1 <1>        0.000
      5 N3          1.8721   -3.5568   -1.4562 N.2        1 <1>        0.000
      6 N4          0.8881   -2.9280   -2.0900 N.pl3      1 <1>        0.000
      7 C4         -0.4194   -3.1730   -1.9902 C.cat      1 <1>        0.000
      8 N5         -1.3386   -2.4739   -2.5279 N.pl3      1 <1>        0.000
      9 N6         -0.7258   -4.2442   -1.2565 N.pl3      1 <1>        0.000
     10 C11         3.0251   -0.6195   -1.0166 C.cat      1 <1>        0.000
     11 N7          3.3462   -0.6544   -2.2490 N.pl3      1 <1>        0.000
     12 N8          3.9556   -0.7272   -0.0693 N.pl3      1 <1>        0.000
     13 H           1.1341    0.0745   -1.0468 H.spc      1 <1>        0.000
     14 H           1.1779   -2.8022    1.7321 H.spc      1 <1>        0.000
     15 H           2.8440   -4.1390    0.2244 H.spc      1 <1>        0.000
     16 H           1.1624   -2.1758   -2.7219 H.spc      1 <1>        0.000
     17 H          -2.3170   -2.7318   -2.3989 H.spc      1 <1>        0.000
     18 H          -1.7018   -4.5086   -1.1228 H.spc      1 <1>        0.000
     19 H           0.0160   -4.7989   -0.8292 H.spc      1 <1>        0.000
     20 H           4.3237   -0.7657   -2.5184 H.spc      1 <1>        0.000
     21 H           4.9360   -0.8388   -0.3278 H.spc      1 <1>        0.000
     22 H           3.6877   -0.6980    0.9144 H.spc      1 <1>        0.000
@<TRIPOS>BOND
     1   10   11 ar 
     2    4    5 2  
     3    7    9 ar 
     4    7    8 ar 
     5   10   12 ar 
     6    5    6 1  
     7    3    4 1  
     8    6    7 ar 
     9    2    3 2  
    10    1    2 1  
    11    1   10 ar 
    12    1   13 1  
    13    3   14 1  
    14    4   15 1  
    15    6   16 1  
    16    8   17 1  
    17    9   18 1  
    18    9   19 1  
    19   11   20 1  
    20   12   21 1  
    21   12   22 1  
# Name:          frag3-224-4/31924
# Creation time: Sat Jun  5 12:52:22 2010


@<TRIPOS>MOLECULE
frag3-224-4/31924
   22    21     1     1     1
SMALL
USER_CHARGES


@<TRIPOS>ATOM
      1 N1          3.0118   -1.1784   -0.1149 N.pl3      1 <1>        0.000
      2 N2          3.2253   -2.4802   -0.0628 N.2        1 <1>        0.000
      3 C1          2.3763   -3.3774    0.2560 C.2        1 <1>        0.000
      4 C3          0.9940   -3.1405    0.7961 C.2        1 <1>        0.000
      5 N3         -0.1077   -3.3872    0.1973 N.2        1 <1>        0.000
      6 N4         -0.2119   -3.7167   -1.0796 N.pl3      1 <1>        0.000
      7 C4         -0.0600   -2.9403   -2.1541 C.cat      1 <1>        0.000
      8 N5         -0.1738   -3.3231   -3.3636 N.pl3      1 <1>        0.000
      9 N6          0.2268   -1.6757   -1.8801 N.pl3      1 <1>        0.000
     10 C11         2.7525   -0.4426   -1.1961 C.cat      1 <1>        0.000
     11 N7          2.4800    0.8000   -1.1783 N.pl3      1 <1>        0.000
     12 N8          2.7440   -1.1116   -2.3496 N.pl3      1 <1>        0.000
     13 H           3.0495   -0.6785    0.7734 H.spc      1 <1>        0.000
     14 H           2.6828   -4.4151    0.1240 H.spc      1 <1>        0.000
     15 H           0.9242   -2.7163    1.7977 H.spc      1 <1>        0.000
     16 H          -0.4383   -4.6933   -1.2676 H.spc      1 <1>        0.000
     17 H          -0.0441   -2.6558   -4.1241 H.spc      1 <1>        0.000
     18 H           0.3570   -1.0064   -2.6387 H.spc      1 <1>        0.000
     19 H           0.3174   -1.3718   -0.9106 H.spc      1 <1>        0.000
     20 H           2.2548    1.2852   -2.0468 H.spc      1 <1>        0.000
     21 H           2.5189   -0.6271   -3.2185 H.spc      1 <1>        0.000
     22 H           2.9626   -2.1078   -2.3630 H.spc      1 <1>        0.000
@<TRIPOS>BOND
     1   10   11 ar 
     2    4    5 2  
     3    7    9 ar 
     4    7    8 ar 
     5   10   12 ar 
     6    5    6 1  
     7    3    4 1  
     8    6    7 ar 
     9    2    3 2  
    10    1    2 1  
    11    1   10 ar 
    12    1   13 1  
    13    3   14 1  
    14    4   15 1  
    15    6   16 1  
    16    8   17 1  
    17    9   18 1  
    18    9   19 1  
    19   11   20 1  
    20   12   21 1  
    21   12   22 1  
# Name:          frag3-224-4/31924
# Creation time: Sat Jun  5 12:52:23 2010


@<TRIPOS>MOLECULE
frag3-224-4/31924
   22    21     1     1     1
SMALL
USER_CHARGES


@<TRIPOS>ATOM
      1 N1         -0.4828   -3.7534   -0.9113 N.pl3      1 <1>        0.000
      2 N2         -0.2174   -3.1350    0.2216 N.2        1 <1>        0.000
      3 C1          0.9493   -2.8256    0.6333 C.2        1 <1>        0.000
      4 C3          2.2449   -3.2642    0.0114 C.2        1 <1>        0.000
      5 N3          3.2431   -2.5129   -0.2376 N.2        1 <1>        0.000
      6 N4          3.2964   -1.2076   -0.0866 N.pl3      1 <1>        0.000
      7 C4          3.1768   -0.2990   -1.0529 C.cat      1 <1>        0.000
      8 N5          3.2904    0.9536   -0.8771 N.pl3      1 <1>        0.000
      9 N6          2.8985   -0.7950   -2.2589 N.pl3      1 <1>        0.000
     10 C11        -0.4298   -3.2442   -2.1426 C.cat      1 <1>        0.000
     11 N7         -1.1362   -3.6508   -3.1176 N.pl3      1 <1>        0.000
     12 N8          0.4241   -2.2397   -2.3115 N.pl3      1 <1>        0.000
     13 H          -0.7601   -4.7322   -0.8382 H.spc      1 <1>        0.000
     14 H           1.0122   -2.1866    1.5141 H.spc      1 <1>        0.000
     15 H           2.3390   -4.3183   -0.2497 H.spc      1 <1>        0.000
     16 H           3.4433   -0.8580    0.8603 H.spc      1 <1>        0.000
     17 H           3.1685    1.5921   -1.6632 H.spc      1 <1>        0.000
     18 H           2.7744   -0.1665   -3.0526 H.spc      1 <1>        0.000
     19 H           2.8097   -1.8029   -2.3877 H.spc      1 <1>        0.000
     20 H          -1.0484   -3.2062   -4.0314 H.spc      1 <1>        0.000
     21 H           0.5131   -1.7941   -3.2247 H.spc      1 <1>        0.000
     22 H           0.9904   -1.9145   -1.5279 H.spc      1 <1>        0.000
@<TRIPOS>BOND
     1   10   11 ar 
     2    4    5 2  
     3    7    9 ar 
     4    7    8 ar 
     5   10   12 ar 
     6    5    6 1  
     7    3    4 1  
     8    6    7 ar 
     9    2    3 2  
    10    1    2 1  
    11    1   10 ar 
    12    1   13 1  
    13    3   14 1  
    14    4   15 1  
    15    6   16 1  
    16    8   17 1  
    17    9   18 1  
    18    9   19 1  
    19   11   20 1  
    20   12   21 1  
    21   12   22 1  
# Name:          frag3-224-4/31924
# Creation time: Sat Jun  5 12:52:23 2010


@<TRIPOS>MOLECULE
frag3-224-4/31924
   22    21     1     1     1
SMALL
USER_CHARGES


@<TRIPOS>ATOM
      1 N1         -0.3028   -3.1802   -1.2305 N.pl3      1 <1>        0.000
      2 N2          0.7019   -3.8965   -0.7932 N.2        1 <1>        0.000
      3 C1          1.5810   -3.5653    0.0499 C.2        1 <1>        0.000
      4 C3          1.6304   -2.2438    0.7359 C.2        1 <1>        0.000
      5 N3          2.3495   -1.2757    0.3660 N.2        1 <1>        0.000
      6 N4          3.1507   -1.2182   -0.6670 N.pl3      1 <1>        0.000
      7 C4          3.8419   -0.1184   -0.9581 C.cat      1 <1>        0.000
      8 N5          4.5708   -0.0169   -1.9843 N.pl3      1 <1>        0.000
      9 N6          3.7198    0.8916   -0.0924 N.pl3      1 <1>        0.000
     10 C11        -1.1072   -3.6196   -2.1950 C.cat      1 <1>        0.000
     11 N7         -2.3558   -3.7398   -2.0286 N.pl3      1 <1>        0.000
     12 N8         -0.5227   -3.9908   -3.3325 N.pl3      1 <1>        0.000
     13 H          -0.4734   -2.2616   -0.8213 H.spc      1 <1>        0.000
     14 H           2.3547   -4.2940    0.2919 H.spc      1 <1>        0.000
     15 H           1.0032   -2.1041    1.6164 H.spc      1 <1>        0.000
     16 H           3.2483   -2.0384   -1.2654 H.spc      1 <1>        0.000
     17 H           5.0800    0.8483   -2.1646 H.spc      1 <1>        0.000
     18 H           4.2205    1.7654   -0.2542 H.spc      1 <1>        0.000
     19 H           3.1258    0.7890    0.7304 H.spc      1 <1>        0.000
     20 H          -2.9347   -4.1272   -2.7737 H.spc      1 <1>        0.000
     21 H          -1.0832   -4.3806   -4.0903 H.spc      1 <1>        0.000
     22 H           0.4855   -3.8853   -3.4459 H.spc      1 <1>        0.000
@<TRIPOS>BOND
     1   10   11 ar 
     2    4    5 2  
     3    7    9 ar 
     4    7    8 ar 
     5   10   12 ar 
     6    5    6 1  
     7    3    4 1  
     8    6    7 ar 
     9    2    3 2  
    10    1    2 1  
    11    1   10 ar 
    12    1   13 1  
    13    3   14 1  
    14    4   15 1  
    15    6   16 1  
    16    8   17 1  
    17    9   18 1  
    18    9   19 1  
    19   11   20 1  
    20   12   21 1  
    21   12   22 1  
# Name:          frag3-224-4/31924
# Creation time: Sat Jun  5 12:52:23 2010


@<TRIPOS>MOLECULE
frag3-224-4/31924
   22    21     1     1     1
SMALL
USER_CHARGES


@<TRIPOS>ATOM
      1 N1          0.0785   -4.4898   -1.1326 N.pl3      1 <1>        0.000
      2 N2          1.3886   -4.3452   -1.1253 N.2        1 <1>        0.000
      3 C1          1.9840   -3.2785   -0.7359 C.2        1 <1>        0.000
      4 C3          1.3450   -2.1599    0.0633 C.2        1 <1>        0.000
      5 N3          1.4653   -0.9054   -0.1418 N.2        1 <1>        0.000
      6 N4          2.2788   -0.3612   -1.0188 N.pl3      1 <1>        0.000
      7 C4          3.5743   -0.0999   -0.8286 C.cat      1 <1>        0.000
      8 N5          4.3295    0.4439   -1.6883 N.pl3      1 <1>        0.000
      9 N6          4.0493   -0.4683    0.3652 N.pl3      1 <1>        0.000
     10 C11        -0.7868   -3.6880   -1.7680 C.cat      1 <1>        0.000
     11 N7         -0.3702   -2.7023   -2.4562 N.pl3      1 <1>        0.000
     12 N8         -2.0787   -3.9191   -1.6626 N.pl3      1 <1>        0.000
     13 H          -0.3084   -5.2768   -0.6117 H.spc      1 <1>        0.000
     14 H           3.0353   -3.1668   -1.0011 H.spc      1 <1>        0.000
     15 H           0.7161   -2.4583    0.9021 H.spc      1 <1>        0.000
     16 H           1.8848   -0.1162   -1.9272 H.spc      1 <1>        0.000
     17 H           5.3134    0.6056   -1.4733 H.spc      1 <1>        0.000
     18 H           5.0311   -0.3126    0.5936 H.spc      1 <1>        0.000
     19 H           3.4299   -0.9051    1.0478 H.spc      1 <1>        0.000
     20 H          -1.0372   -2.0906   -2.9267 H.spc      1 <1>        0.000
     21 H          -2.7462   -3.3077   -2.1328 H.spc      1 <1>        0.000
     22 H          -2.4121   -4.7095   -1.1107 H.spc      1 <1>        0.000
@<TRIPOS>BOND
     1   10   11 ar 
     2    4    5 2  
     3    7    9 ar 
     4    7    8 ar 
     5   10   12 ar 
     6    5    6 1  
     7    3    4 1  
     8    6    7 ar 
     9    2    3 2  
    10    1    2 1  
    11    1   10 ar 
    12    1   13 1  
    13    3   14 1  
    14    4   15 1  
    15    6   16 1  
    16    8   17 1  
    17    9   18 1  
    18    9   19 1  
    19   11   20 1  
    20   12   21 1  
    21   12   22 1  
# Name:          frag3-224-4/31924
# Creation time: Sat Jun  5 12:52:23 2010


@<TRIPOS>MOLECULE
frag3-224-4/31924
   22    21     1     1     1
SMALL
USER_CHARGES


@<TRIPOS>ATOM
      1 N1         -0.5807   -4.0668   -0.8031 N.pl3      1 <1>        0.000
      2 N2         -0.2360   -3.3750    0.2622 N.2        1 <1>        0.000
      3 C1          0.9024   -2.8168    0.4212 C.2        1 <1>        0.000
      4 C3          2.1274   -3.0642   -0.4115 C.2        1 <1>        0.000
      5 N3          3.0864   -2.2508   -0.5770 N.2        1 <1>        0.000
      6 N4          3.1865   -1.0268   -0.1244 N.pl3      1 <1>        0.000
      7 C4          3.4321    0.0535   -0.8702 C.cat      1 <1>        0.000
      8 N5          3.6431    1.2095   -0.3972 N.pl3      1 <1>        0.000
      9 N6          3.4428   -0.1608   -2.1879 N.pl3      1 <1>        0.000
     10 C11        -0.5650   -3.6250   -2.0693 C.cat      1 <1>        0.000
     11 N7          0.0397   -2.5498   -2.3810 N.pl3      1 <1>        0.000
     12 N8         -1.2213   -4.3007   -2.9914 N.pl3      1 <1>        0.000
     13 H          -0.8881   -5.0275   -0.6517 H.spc      1 <1>        0.000
     14 H           0.9924   -2.0964    1.2342 H.spc      1 <1>        0.000
     15 H           2.1986   -4.0268   -0.9179 H.spc      1 <1>        0.000
     16 H           3.0673   -0.8867    0.8789 H.spc      1 <1>        0.000
     17 H           3.8244    1.9923   -1.0255 H.spc      1 <1>        0.000
     18 H           3.6226    0.6120   -2.8288 H.spc      1 <1>        0.000
     19 H           3.2711   -1.0974   -2.5537 H.spc      1 <1>        0.000
     20 H           0.0161   -2.2120   -3.3431 H.spc      1 <1>        0.000
     21 H          -1.2438   -3.9614   -3.9531 H.spc      1 <1>        0.000
     22 H          -1.7066   -5.1628   -2.7433 H.spc      1 <1>        0.000
@<TRIPOS>BOND
     1   10   11 ar 
     2    4    5 2  
     3    7    9 ar 
     4    7    8 ar 
     5   10   12 ar 
     6    5    6 1  
     7    3    4 1  
     8    6    7 ar 
     9    2    3 2  
    10    1    2 1  
    11    1   10 ar 
    12    1   13 1  
    13    3   14 1  
    14    4   15 1  
    15    6   16 1  
    16    8   17 1  
    17    9   18 1  
    18    9   19 1  
    19   11   20 1  
    20   12   21 1  
    21   12   22 1  
# Name:          frag3-224-4/31924
# Creation time: Sat Jun  5 12:52:23 2010


@<TRIPOS>MOLECULE
frag3-224-4/31924
   22    21     1     1     1
SMALL
USER_CHARGES


@<TRIPOS>ATOM
      1 N1          2.8924    0.0223   -1.1229 N.pl3      1 <1>        0.000
      2 N2          1.6479   -0.2162   -0.7624 N.2        1 <1>        0.000
      3 C1          1.1010   -1.3729   -0.7625 C.2        1 <1>        0.000
      4 C3          1.7016   -2.6483   -1.3136 C.2        1 <1>        0.000
      5 N3          1.2056   -3.8233   -1.2119 N.2        1 <1>        0.000
      6 N4         -0.0079   -4.0974   -0.7861 N.pl3      1 <1>        0.000
      7 C4         -1.1008   -4.1170   -1.5496 C.cat      1 <1>        0.000
      8 N5         -2.1106   -3.3710   -1.3557 N.pl3      1 <1>        0.000
      9 N6         -1.0410   -4.9205   -2.6037 N.pl3      1 <1>        0.000
     10 C11         3.9987   -0.3364   -0.4666 C.cat      1 <1>        0.000
     11 N7          5.1787   -0.1331   -0.8895 N.pl3      1 <1>        0.000
     12 N8          3.7918   -0.9598    0.6949 N.pl3      1 <1>        0.000
     13 H           3.0248    0.5347   -1.9948 H.spc      1 <1>        0.000
     14 H           0.1062   -1.4470   -0.3232 H.spc      1 <1>        0.000
     15 H           2.6471   -2.5570   -1.8482 H.spc      1 <1>        0.000
     16 H          -0.1219   -4.3115    0.2046 H.spc      1 <1>        0.000
     17 H          -2.8890   -3.3848   -2.0148 H.spc      1 <1>        0.000
     18 H          -1.8121   -4.9446   -3.2710 H.spc      1 <1>        0.000
     19 H          -0.2239   -5.5141   -2.7468 H.spc      1 <1>        0.000
     20 H           5.9786   -0.4472   -0.3400 H.spc      1 <1>        0.000
     21 H           4.5852   -1.2777    1.2515 H.spc      1 <1>        0.000
     22 H           2.8402   -1.1185    1.0261 H.spc      1 <1>        0.000
@<TRIPOS>BOND
     1   10   11 ar 
     2    4    5 2  
     3    7    9 ar 
     4    7    8 ar 
     5   10   12 ar 
     6    5    6 1  
     7    3    4 1  
     8    6    7 ar 
     9    2    3 2  
    10    1    2 1  
    11    1   10 ar 
    12    1   13 1  
    13    3   14 1  
    14    4   15 1  
    15    6   16 1  
    16    8   17 1  
    17    9   18 1  
    18    9   19 1  
    19   11   20 1  
    20   12   21 1  
    21   12   22 1  
# Name:          frag3-224-4/31924
# Creation time: Sat Jun  5 12:52:23 2010


@<TRIPOS>MOLECULE
frag3-224-4/31924
   22    21     1     1     1
SMALL
USER_CHARGES


@<TRIPOS>ATOM
      1 N1          1.7260   -0.6180   -0.3931 N.pl3      1 <1>        0.000
      2 N2          1.7191   -1.0438    0.8741 N.2        1 <1>        0.000
      3 C1          1.9927   -2.2494    1.2374 C.2        1 <1>        0.000
      4 C3          2.1222   -3.4549    0.3444 C.2        1 <1>        0.000
      5 N3          1.2712   -3.7931   -0.5422 N.2        1 <1>        0.000
      6 N4          0.1984   -3.1313   -0.9510 N.pl3      1 <1>        0.000
      7 C4         -0.1674   -2.9344   -2.2217 C.cat      1 <1>        0.000
      8 N5         -1.1348   -2.1894   -2.5921 N.pl3      1 <1>        0.000
      9 N6          0.5687   -3.5897   -3.1193 N.pl3      1 <1>        0.000
     10 C11         2.6472   -0.8899   -1.3314 C.cat      1 <1>        0.000
     11 N7          2.4186   -1.1271   -2.5618 N.pl3      1 <1>        0.000
     12 N8          3.8957   -0.9528   -0.8730 N.pl3      1 <1>        0.000
     13 H           0.9481   -0.0228   -0.6777 H.spc      1 <1>        0.000
     14 H           2.1467   -2.4140    2.3038 H.spc      1 <1>        0.000
     15 H           3.0055   -4.0822    0.4646 H.spc      1 <1>        0.000
     16 H          -0.4040   -2.7355   -0.2293 H.spc      1 <1>        0.000
     17 H          -1.3516   -2.0906   -3.5839 H.spc      1 <1>        0.000
     18 H           0.3610   -3.4983   -4.1137 H.spc      1 <1>        0.000
     19 H           1.3397   -4.1825   -2.8117 H.spc      1 <1>        0.000
     20 H           3.1889   -1.3630   -3.1874 H.spc      1 <1>        0.000
     21 H           4.6600   -1.1894   -1.5057 H.spc      1 <1>        0.000
     22 H           4.0879   -0.7643    0.1108 H.spc      1 <1>        0.000
@<TRIPOS>BOND
     1   10   11 ar 
     2    4    5 2  
     3    7    9 ar 
     4    7    8 ar 
     5   10   12 ar 
     6    5    6 1  
     7    3    4 1  
     8    6    7 ar 
     9    2    3 2  
    10    1    2 1  
    11    1   10 ar 
    12    1   13 1  
    13    3   14 1  
    14    4   15 1  
    15    6   16 1  
    16    8   17 1  
    17    9   18 1  
    18    9   19 1  
    19   11   20 1  
    20   12   21 1  
    21   12   22 1  
# Name:          frag3-224-4/31924
# Creation time: Sat Jun  5 12:52:23 2010


@<TRIPOS>MOLECULE
frag3-224-4/31924
   22    21     1     1     1
SMALL
USER_CHARGES


@<TRIPOS>ATOM
      1 N1          0.4352   -2.8084   -1.3276 N.pl3      1 <1>        0.000
      2 N2          1.2546   -3.6388   -0.7127 N.2        1 <1>        0.000
      3 C1          1.8861   -3.4466    0.3822 C.2        1 <1>        0.000
      4 C3          1.8177   -2.2556    1.2727 C.2        1 <1>        0.000
      5 N3          2.5660   -1.2215    1.1691 N.2        1 <1>        0.000
      6 N4          3.2333   -0.8687    0.0672 N.pl3      1 <1>        0.000
      7 C4          2.7639   -0.7572   -1.2046 C.cat      1 <1>        0.000
      8 N5          1.5138   -0.6482   -1.4527 N.pl3      1 <1>        0.000
      9 N6          3.6116   -0.8387   -2.2236 N.pl3      1 <1>        0.000
     10 C11        -0.3787   -3.0224   -2.3767 C.cat      1 <1>        0.000
     11 N7         -1.1159   -2.1707   -2.9344 N.pl3      1 <1>        0.000
     12 N8         -0.3302   -4.2970   -2.7887 N.pl3      1 <1>        0.000
     13 H           0.4158   -1.8608   -0.9507 H.spc      1 <1>        0.000
     14 H           2.5523   -4.2483    0.7008 H.spc      1 <1>        0.000
     15 H           1.0762   -2.2644    2.0716 H.spc      1 <1>        0.000
     16 H           4.2224   -0.6554    0.1960 H.spc      1 <1>        0.000
     17 H           1.1856   -0.6253   -2.4182 H.spc      1 <1>        0.000
     18 H           3.2616   -0.8139   -3.1814 H.spc      1 <1>        0.000
     19 H           4.6126   -0.9261   -2.0485 H.spc      1 <1>        0.000
     20 H          -1.7005   -2.4418   -3.7251 H.spc      1 <1>        0.000
     21 H          -0.9024   -4.6004   -3.5767 H.spc      1 <1>        0.000
     22 H           0.2789   -4.9635   -2.3142 H.spc      1 <1>        0.000
@<TRIPOS>BOND
     1   10   11 ar 
     2    4    5 2  
     3    7    9 ar 
     4    7    8 ar 
     5   10   12 ar 
     6    5    6 1  
     7    3    4 1  
     8    6    7 ar 
     9    2    3 2  
    10    1    2 1  
    11    1   10 ar 
    12    1   13 1  
    13    3   14 1  
    14    4   15 1  
    15    6   16 1  
    16    8   17 1  
    17    9   18 1  
    18    9   19 1  
    19   11   20 1  
    20   12   21 1  
    21   12   22 1  
# Name:          frag3-224-4/31924
# Creation time: Sat Jun  5 12:52:23 2010


@<TRIPOS>MOLECULE
frag3-224-4/31924
   22    21     1     1     1
SMALL
USER_CHARGES


@<TRIPOS>ATOM
      1 N1          0.0576   -2.1726   -1.6348 N.pl3      1 <1>        0.000
      2 N2         -0.2248   -1.8457   -0.3891 N.2        1 <1>        0.000
      3 C1          0.3953   -2.2883    0.6412 C.2        1 <1>        0.000
      4 C3          1.7446   -2.9657    0.6357 C.2        1 <1>        0.000
      5 N3          2.8549   -2.3796    0.4003 N.2        1 <1>        0.000
      6 N4          3.0161   -1.1249    0.0392 N.pl3      1 <1>        0.000
      7 C4          3.1613   -0.6849   -1.2151 C.cat      1 <1>        0.000
      8 N5          3.3645    0.5259   -1.5281 N.pl3      1 <1>        0.000
      9 N6          3.0716   -1.6256   -2.1606 N.pl3      1 <1>        0.000
     10 C11        -0.0369   -3.4097   -2.1326 C.cat      1 <1>        0.000
     11 N7         -0.3827   -4.3794   -1.3814 N.pl3      1 <1>        0.000
     12 N8          0.2359   -3.6232   -3.4043 N.pl3      1 <1>        0.000
     13 H           0.3695   -1.4308   -2.2616 H.spc      1 <1>        0.000
     14 H          -0.0947   -2.1648    1.6070 H.spc      1 <1>        0.000
     15 H           1.7734   -4.0344    0.8484 H.spc      1 <1>        0.000
     16 H           3.0317   -0.4258    0.7818 H.spc      1 <1>        0.000
     17 H           3.4611    0.7899   -2.5086 H.spc      1 <1>        0.000
     18 H           3.1669   -1.3712   -3.1438 H.spc      1 <1>        0.000
     19 H           2.9079   -2.5978   -1.8989 H.spc      1 <1>        0.000
     20 H          -0.4487   -5.3226   -1.7641 H.spc      1 <1>        0.000
     21 H           0.1704   -4.5657   -3.7887 H.spc      1 <1>        0.000
     22 H           0.5125   -2.8459   -4.0040 H.spc      1 <1>        0.000
@<TRIPOS>BOND
     1   10   11 ar 
     2    4    5 2  
     3    7    9 ar 
     4    7    8 ar 
     5   10   12 ar 
     6    5    6 1  
     7    3    4 1  
     8    6    7 ar 
     9    2    3 2  
    10    1    2 1  
    11    1   10 ar 
    12    1   13 1  
    13    3   14 1  
    14    4   15 1  
    15    6   16 1  
    16    8   17 1  
    17    9   18 1  
    18    9   19 1  
    19   11   20 1  
    20   12   21 1  
    21   12   22 1  
# Name:          frag3-224-4/31924
# Creation time: Sat Jun  5 12:52:23 2010


@<TRIPOS>MOLECULE
frag3-224-4/31924
   22    21     1     1     1
SMALL
USER_CHARGES


@<TRIPOS>ATOM
      1 N1         -0.1202   -3.1507   -1.1647 N.pl3      1 <1>        0.000
      2 N2          0.9372   -3.8868   -0.8897 N.2        1 <1>        0.000
      3 C1          1.8484   -3.6351   -0.0482 C.2        1 <1>        0.000
      4 C3          1.8695   -2.4306    0.8337 C.2        1 <1>        0.000
      5 N3          2.1530   -1.2608    0.4412 N.2        1 <1>        0.000
      6 N4          2.4722   -0.8876   -0.7856 N.pl3      1 <1>        0.000
      7 C4          3.5633   -0.1574   -0.9873 C.cat      1 <1>        0.000
      8 N5          4.2416    0.2478    0.0134 N.pl3      1 <1>        0.000
      9 N6          3.9290    0.1240   -2.2207 N.pl3      1 <1>        0.000
     10 C11        -0.9660   -3.4999   -2.1261 C.cat      1 <1>        0.000
     11 N7         -2.0013   -2.8268   -2.3920 N.pl3      1 <1>        0.000
     12 N8         -0.6692   -4.6098   -2.8037 N.pl3      1 <1>        0.000
     13 H          -0.2916   -2.2990   -0.6303 H.spc      1 <1>        0.000
     14 H           2.6717   -4.3442    0.0384 H.spc      1 <1>        0.000
     15 H           1.6242   -2.5676    1.8869 H.spc      1 <1>        0.000
     16 H           1.8839   -1.1588   -1.5735 H.spc      1 <1>        0.000
     17 H           5.0857    0.8014   -0.1331 H.spc      1 <1>        0.000
     18 H           4.7697    0.6763   -2.3900 H.spc      1 <1>        0.000
     19 H           3.3716   -0.2103   -3.0068 H.spc      1 <1>        0.000
     20 H          -2.6288   -3.1292   -3.1371 H.spc      1 <1>        0.000
     21 H          -1.2833   -4.9297   -3.5527 H.spc      1 <1>        0.000
     22 H           0.1719   -5.1387   -2.5729 H.spc      1 <1>        0.000
@<TRIPOS>BOND
     1   10   11 ar 
     2    4    5 2  
     3    7    9 ar 
     4    7    8 ar 
     5   10   12 ar 
     6    5    6 1  
     7    3    4 1  
     8    6    7 ar 
     9    2    3 2  
    10    1    2 1  
    11    1   10 ar 
    12    1   13 1  
    13    3   14 1  
    14    4   15 1  
    15    6   16 1  
    16    8   17 1  
    17    9   18 1  
    18    9   19 1  
    19   11   20 1  
    20   12   21 1  
    21   12   22 1  
# Name:          frag3-224-4/31924 -- energy: -1.317338
# Creation time: Sat Jun  5 12:52:23 2010


@<TRIPOS>MOLECULE
frag3-224-4/31924 -- energy: -1.317338
   22    21     1     1     1
SMALL
USER_CHARGES


@<TRIPOS>ATOM
      1 N1          2.8575   -0.9339   -0.8153 N.pl3      1 <1>        0.000
      2 N2          2.1909   -1.2154    0.2748 N.2        1 <1>        0.000
      3 C1          1.6787   -2.3194    0.6131 C.2        1 <1>        0.000
      4 C3          1.7456   -3.5566   -0.2103 C.2        1 <1>        0.000
      5 N3          0.9215   -3.8411   -1.1230 N.2        1 <1>        0.000
      6 N4         -0.1077   -3.1450   -1.5302 N.pl3      1 <1>        0.000
      7 C4         -1.1603   -3.7071   -2.1235 C.cat      1 <1>        0.000
      8 N5         -2.1383   -3.0466   -2.5735 N.pl3      1 <1>        0.000
      9 N6         -1.1245   -5.0399   -2.2167 N.pl3      1 <1>        0.000
     10 C11         3.8280   -0.0209   -0.8473 C.cat      1 <1>        0.000
     11 N7          4.5069    0.2351   -1.8817 N.pl3      1 <1>        0.000
     12 N8          4.0592    0.6172    0.3040 N.pl3      1 <1>        0.000
     13 H           2.6254   -1.4327   -1.6742 H.spc      1 <1>        0.000
     14 H           1.1551   -2.3686    1.5678 H.spc      1 <1>        0.000
     15 H           2.5550   -4.2597   -0.0136 H.spc      1 <1>        0.000
     16 H          -0.1048   -2.1349   -1.3886 H.spc      1 <1>        0.000
     17 H          -2.9191   -3.5300   -3.0175 H.spc      1 <1>        0.000
     18 H          -1.8958   -5.5412   -2.6573 H.spc      1 <1>        0.000
     19 H          -0.3258   -5.5557   -1.8472 H.spc      1 <1>        0.000
     20 H           5.2449    0.9383   -1.8463 H.spc      1 <1>        0.000
     21 H           4.7933    1.3234    0.3572 H.spc      1 <1>        0.000
     22 H           3.5015    0.3981    1.1295 H.spc      1 <1>        0.000
@<TRIPOS>BOND
     1   10   11 ar 
     2    4    5 2  
     3    7    9 ar 
     4    7    8 ar 
     5   10   12 ar 
     6    5    6 1  
     7    3    4 1  
     8    6    7 ar 
     9    2    3 2  
    10    1    2 1  
    11    1   10 ar 
    12    1   13 1  
    13    3   14 1  
    14    4   15 1  
    15    6   16 1  
    16    8   17 1  
    17    9   18 1  
    18    9   19 1  
    19   11   20 1  
    20   12   21 1  
    21   12   22 1  
# Name:          frag3-224-4/31924 -- energy: -1.579369
# Creation time: Sat Jun  5 12:52:23 2010


@<TRIPOS>MOLECULE
frag3-224-4/31924 -- energy: -1.579369
   22    21     1     1     1
SMALL
USER_CHARGES


@<TRIPOS>ATOM
      1 N1          3.3168   -0.9339   -0.9276 N.pl3      1 <1>        0.000
      2 N2          2.0477   -0.9407   -0.6130 N.2        1 <1>        0.000
      3 C1          1.2452   -1.9154   -0.5754 C.2        1 <1>        0.000
      4 C3          1.6230   -3.3300   -0.8616 C.2        1 <1>        0.000
      5 N3          0.8316   -4.3269   -0.8348 N.2        1 <1>        0.000
      6 N4         -0.4782   -4.2343   -0.7535 N.pl3      1 <1>        0.000
      7 C4         -1.2922   -3.8925   -1.7539 C.cat      1 <1>        0.000
      8 N5         -2.5456   -3.7353   -1.6261 N.pl3      1 <1>        0.000
      9 N6         -0.6990   -3.6967   -2.9321 N.pl3      1 <1>        0.000
     10 C11         4.1677    0.0168   -0.5586 C.cat      1 <1>        0.000
     11 N7          5.4039    0.0040   -0.8432 N.pl3      1 <1>        0.000
     12 N8          3.6366    1.0113    0.1501 N.pl3      1 <1>        0.000
     13 H           3.6750   -1.7054   -1.4905 H.spc      1 <1>        0.000
     14 H           0.2067   -1.7091   -0.3164 H.spc      1 <1>        0.000
     15 H           2.6647   -3.5267   -1.1151 H.spc      1 <1>        0.000
     16 H          -0.9068   -4.4408    0.1487 H.spc      1 <1>        0.000
     17 H          -3.1092   -3.4566   -2.4293 H.spc      1 <1>        0.000
     18 H          -1.2529   -3.4178   -3.7419 H.spc      1 <1>        0.000
     19 H           0.3087   -3.8258   -3.0235 H.spc      1 <1>        0.000
     20 H           6.0076    0.7634   -0.5282 H.spc      1 <1>        0.000
     21 H           4.2258    1.7787    0.4731 H.spc      1 <1>        0.000
     22 H           2.6406    1.0056    0.3699 H.spc      1 <1>        0.000
@<TRIPOS>BOND
     1   10   11 ar 
     2    4    5 2  
     3    7    9 ar 
     4    7    8 ar 
     5   10   12 ar 
     6    5    6 1  
     7    3    4 1  
     8    6    7 ar 
     9    2    3 2  
    10    1    2 1  
    11    1   10 ar 
    12    1   13 1  
    13    3   14 1  
    14    4   15 1  
    15    6   16 1  
    16    8   17 1  
    17    9   18 1  
    18    9   19 1  
    19   11   20 1  
    20   12   21 1  
    21   12   22 1  
# Name:          frag3-224-4/31924 -- energy: -1.184592
# Creation time: Sat Jun  5 12:52:23 2010


@<TRIPOS>MOLECULE
frag3-224-4/31924 -- energy: -1.184592
   22    21     1     1     1
SMALL
USER_CHARGES


@<TRIPOS>ATOM
      1 N1          3.0532   -0.4520   -0.0629 N.pl3      1 <1>        0.000
      2 N2          2.9228   -1.7290    0.1762 N.2        1 <1>        0.000
      3 C1          1.8795   -2.4330    0.1011 C.2        1 <1>        0.000
      4 C3          0.5473   -1.9189   -0.2954 C.2        1 <1>        0.000
      5 N3         -0.3416   -2.6106   -0.8586 N.2        1 <1>        0.000
      6 N4         -0.3081   -3.8737   -1.1820 N.pl3      1 <1>        0.000
      7 C4         -1.0509   -4.4050   -2.1518 C.cat      1 <1>        0.000
      8 N5         -1.0944   -5.6435   -2.4032 N.pl3      1 <1>        0.000
      9 N6         -1.7667   -3.5307   -2.8626 N.pl3      1 <1>        0.000
     10 C11         4.1143    0.0846   -0.6663 C.cat      1 <1>        0.000
     11 N7          4.2262    1.3177   -0.9245 N.pl3      1 <1>        0.000
     12 N8          5.0759   -0.7794   -0.9998 N.pl3      1 <1>        0.000
     13 H           2.3000    0.1710    0.2287 H.spc      1 <1>        0.000
     14 H           1.9631   -3.4922    0.3445 H.spc      1 <1>        0.000
     15 H           0.3220   -0.8732   -0.0857 H.spc      1 <1>        0.000
     16 H           0.3207   -4.4878   -0.6644 H.spc      1 <1>        0.000
     17 H          -1.6837   -5.9898   -3.1603 H.spc      1 <1>        0.000
     18 H          -2.3619   -3.8580   -3.6236 H.spc      1 <1>        0.000
     19 H          -1.7185   -2.5354   -2.6448 H.spc      1 <1>        0.000
     20 H           5.0613    1.6665   -1.3949 H.spc      1 <1>        0.000
     21 H           5.9180   -0.4485   -1.4708 H.spc      1 <1>        0.000
     22 H           4.9685   -1.7704   -0.7836 H.spc      1 <1>        0.000
@<TRIPOS>BOND
     1   10   11 ar 
     2    4    5 2  
     3    7    9 ar 
     4    7    8 ar 
     5   10   12 ar 
     6    5    6 1  
     7    3    4 1  
     8    6    7 ar 
     9    2    3 2  
    10    1    2 1  
    11    1   10 ar 
    12    1   13 1  
    13    3   14 1  
    14    4   15 1  
    15    6   16 1  
    16    8   17 1  
    17    9   18 1  
    18    9   19 1  
    19   11   20 1  
    20   12   21 1  
    21   12   22 1  
# Name:          frag3-224-4/31924 -- energy: -1.682364
# Creation time: Sat Jun  5 12:52:23 2010


@<TRIPOS>MOLECULE
frag3-224-4/31924 -- energy: -1.682364
   22    21     1     1     1
SMALL
USER_CHARGES


@<TRIPOS>ATOM
      1 N1         -0.5137   -4.0744   -0.8890 N.pl3      1 <1>        0.000
      2 N2          0.7314   -4.4439   -0.6842 N.2        1 <1>        0.000
      3 C1          1.6490   -3.7015   -0.2113 C.2        1 <1>        0.000
      4 C3          1.4435   -2.3499    0.3773 C.2        1 <1>        0.000
      5 N3          2.1374   -1.3345    0.0966 N.2        1 <1>        0.000
      6 N4          3.1176   -1.2157   -0.7579 N.pl3      1 <1>        0.000
      7 C4          3.7748   -0.0797   -0.9688 C.cat      1 <1>        0.000
      8 N5          4.7340    0.0355   -1.7904 N.pl3      1 <1>        0.000
      9 N6          3.3602    0.9612   -0.2472 N.pl3      1 <1>        0.000
     10 C11        -0.9628   -3.4563   -1.9844 C.cat      1 <1>        0.000
     11 N7         -2.1761   -3.1299   -2.1640 N.pl3      1 <1>        0.000
     12 N8         -0.0379   -3.1846   -2.9063 N.pl3      1 <1>        0.000
     13 H          -1.1904   -4.2758   -0.1528 H.spc      1 <1>        0.000
     14 H           2.6686   -4.0860   -0.2392 H.spc      1 <1>        0.000
     15 H           0.6375   -2.2291    1.1011 H.spc      1 <1>        0.000
     16 H           3.3939   -2.0392   -1.2925 H.spc      1 <1>        0.000
     17 H           5.2007    0.9350   -1.9067 H.spc      1 <1>        0.000
     18 H           3.8159    1.8678   -0.3513 H.spc      1 <1>        0.000
     19 H           2.5872    0.8513    0.4092 H.spc      1 <1>        0.000
     20 H          -2.4545   -2.6535   -3.0219 H.spc      1 <1>        0.000
     21 H          -0.3020   -2.7087   -3.7689 H.spc      1 <1>        0.000
     22 H           0.9335   -3.4527   -2.7486 H.spc      1 <1>        0.000
@<TRIPOS>BOND
     1   10   11 ar 
     2    4    5 2  
     3    7    9 ar 
     4    7    8 ar 
     5   10   12 ar 
     6    5    6 1  
     7    3    4 1  
     8    6    7 ar 
     9    2    3 2  
    10    1    2 1  
    11    1   10 ar 
    12    1   13 1  
    13    3   14 1  
    14    4   15 1  
    15    6   16 1  
    16    8   17 1  
    17    9   18 1  
    18    9   19 1  
    19   11   20 1  
    20   12   21 1  
    21   12   22 1  
# Name:          frag3-224-4/31924 -- energy: -1.413345
# Creation time: Sat Jun  5 12:52:23 2010


@<TRIPOS>MOLECULE
frag3-224-4/31924 -- energy: -1.413345
   22    21     1     1     1
SMALL
USER_CHARGES


@<TRIPOS>ATOM
      1 N1         -0.5381   -3.4383   -1.2694 N.pl3      1 <1>        0.000
      2 N2          0.6727   -3.2609   -1.7258 N.2        1 <1>        0.000
      3 C1          1.4949   -2.3376   -1.4777 C.2        1 <1>        0.000
      4 C3          1.2278   -1.2183   -0.5363 C.2        1 <1>        0.000
      5 N3          1.9701   -0.2029   -0.3776 N.2        1 <1>        0.000
      6 N4          3.1488   -0.0247   -0.9210 N.pl3      1 <1>        0.000
      7 C4          4.3256   -0.3082   -0.3518 C.cat      1 <1>        0.000
      8 N5          5.4480   -0.0671   -0.8842 N.pl3      1 <1>        0.000
      9 N6          4.2442   -0.8871    0.8489 N.pl3      1 <1>        0.000
     10 C11        -1.3575   -4.4146   -1.6564 C.cat      1 <1>        0.000
     11 N7         -2.5378   -4.5598   -1.2238 N.pl3      1 <1>        0.000
     12 N8         -0.8414   -5.2542   -2.5545 N.pl3      1 <1>        0.000
     13 H          -0.8805   -2.7828   -0.5669 H.spc      1 <1>        0.000
     14 H           2.4598   -2.3615   -1.9841 H.spc      1 <1>        0.000
     15 H           0.3210   -1.2753    0.0658 H.spc      1 <1>        0.000
     16 H           3.1711    0.3654   -1.8632 H.spc      1 <1>        0.000
     17 H           6.3082   -0.3155   -0.3955 H.spc      1 <1>        0.000
     18 H           5.0947   -1.1419    1.3510 H.spc      1 <1>        0.000
     19 H           3.3315   -1.0745    1.2639 H.spc      1 <1>        0.000
     20 H          -3.1138   -5.3306   -1.5622 H.spc      1 <1>        0.000
     21 H          -1.4003   -6.0317   -2.9060 H.spc      1 <1>        0.000
     22 H           0.1123   -5.1190   -2.8900 H.spc      1 <1>        0.000
@<TRIPOS>BOND
     1   10   11 ar 
     2    4    5 2  
     3    7    9 ar 
     4    7    8 ar 
     5   10   12 ar 
     6    5    6 1  
     7    3    4 1  
     8    6    7 ar 
     9    2    3 2  
    10    1    2 1  
    11    1   10 ar 
    12    1   13 1  
    13    3   14 1  
    14    4   15 1  
    15    6   16 1  
    16    8   17 1  
    17    9   18 1  
    18    9   19 1  
    19   11   20 1  
    20   12   21 1  
    21   12   22 1  
# Name:          frag3-224-4/31924 -- energy: -1.346551
# Creation time: Sat Jun  5 12:52:23 2010


@<TRIPOS>MOLECULE
frag3-224-4/31924 -- energy: -1.346551
   22    21     1     1     1
SMALL
USER_CHARGES


@<TRIPOS>ATOM
      1 N1         -0.5620   -3.3310   -1.5401 N.pl3      1 <1>        0.000
      2 N2          0.7213   -3.5824   -1.4835 N.2        1 <1>        0.000
      3 C1          1.6357   -2.9453   -0.8927 C.2        1 <1>        0.000
      4 C3          1.3978   -1.7083   -0.1126 C.2        1 <1>        0.000
      5 N3          2.0924   -0.6573   -0.2151 N.2        1 <1>        0.000
      6 N4          3.1594   -0.4696   -0.9512 N.pl3      1 <1>        0.000
      7 C4          4.3322   -0.0280   -0.4876 C.cat      1 <1>        0.000
      8 N5          5.3622    0.1400   -1.2031 N.pl3      1 <1>        0.000
      9 N6          4.3552    0.2218    0.8240 N.pl3      1 <1>        0.000
     10 C11        -1.4908   -4.2192   -1.8996 C.cat      1 <1>        0.000
     11 N7         -2.7345   -4.0496   -1.7367 N.pl3      1 <1>        0.000
     12 N8         -1.0114   -5.3447   -2.4315 N.pl3      1 <1>        0.000
     13 H          -0.8735   -2.3918   -1.2924 H.spc      1 <1>        0.000
     14 H           2.6552   -3.3250   -0.9596 H.spc      1 <1>        0.000
     15 H           0.5696   -1.7044    0.5960 H.spc      1 <1>        0.000
     16 H           3.0902   -0.6749   -1.9479 H.spc      1 <1>        0.000
     17 H           6.2289    0.4714   -0.7795 H.spc      1 <1>        0.000
     18 H           5.2129    0.5539    1.2650 H.spc      1 <1>        0.000
     19 H           3.5150    0.0805    1.3849 H.spc      1 <1>        0.000
     20 H          -3.3895   -4.7807   -2.0139 H.spc      1 <1>        0.000
     21 H          -1.6505   -6.0874   -2.7150 H.spc      1 <1>        0.000
     22 H          -0.0058   -5.4626   -2.5547 H.spc      1 <1>        0.000
@<TRIPOS>BOND
     1   10   11 ar 
     2    4    5 2  
     3    7    9 ar 
     4    7    8 ar 
     5   10   12 ar 
     6    5    6 1  
     7    3    4 1  
     8    6    7 ar 
     9    2    3 2  
    10    1    2 1  
    11    1   10 ar 
    12    1   13 1  
    13    3   14 1  
    14    4   15 1  
    15    6   16 1  
    16    8   17 1  
    17    9   18 1  
    18    9   19 1  
    19   11   20 1  
    20   12   21 1  
    21   12   22 1  
# Name:          frag3-224-4/31924 -- energy: -1.769844
# Creation time: Sat Jun  5 12:52:23 2010


@<TRIPOS>MOLECULE
frag3-224-4/31924 -- energy: -1.769844
   22    21     1     1     1
SMALL
USER_CHARGES


@<TRIPOS>ATOM
      1 N1         -0.4559   -4.3081   -0.8409 N.pl3      1 <1>        0.000
      2 N2         -0.0087   -3.6171    0.1904 N.2        1 <1>        0.000
      3 C1          1.0509   -2.9048    0.1755 C.2        1 <1>        0.000
      4 C3          2.0429   -2.8444   -0.9441 C.2        1 <1>        0.000
      5 N3          2.6666   -1.8034   -1.3044 N.2        1 <1>        0.000
      6 N4          2.6560   -0.6167   -0.7512 N.pl3      1 <1>        0.000
      7 C4          3.7477    0.1203   -0.5689 C.cat      1 <1>        0.000
      8 N5          3.7449    1.2654   -0.0227 N.pl3      1 <1>        0.000
      9 N6          4.8830   -0.4361   -0.9908 N.pl3      1 <1>        0.000
     10 C11        -0.8948   -3.8149   -2.0019 C.cat      1 <1>        0.000
     11 N7         -1.2511   -4.5296   -2.9898 N.pl3      1 <1>        0.000
     12 N8         -0.9241   -2.4843   -2.0808 N.pl3      1 <1>        0.000
     13 H          -0.4676   -5.3232   -0.7412 H.spc      1 <1>        0.000
     14 H           1.2500   -2.2885    1.0522 H.spc      1 <1>        0.000
     15 H           2.2432   -3.7662   -1.4902 H.spc      1 <1>        0.000
     16 H           1.7610   -0.2366   -0.4431 H.spc      1 <1>        0.000
     17 H           4.6203    1.7745    0.0991 H.spc      1 <1>        0.000
     18 H           5.7671    0.0596   -0.8766 H.spc      1 <1>        0.000
     19 H           4.8677   -1.3576   -1.4279 H.spc      1 <1>        0.000
     20 H          -1.5633   -4.0863   -3.8537 H.spc      1 <1>        0.000
     21 H          -1.2347   -2.0311   -2.9402 H.spc      1 <1>        0.000
     22 H          -0.6359   -1.9196   -1.2818 H.spc      1 <1>        0.000
@<TRIPOS>BOND
     1   10   11 ar 
     2    4    5 2  
     3    7    9 ar 
     4    7    8 ar 
     5   10   12 ar 
     6    5    6 1  
     7    3    4 1  
     8    6    7 ar 
     9    2    3 2  
    10    1    2 1  
    11    1   10 ar 
    12    1   13 1  
    13    3   14 1  
    14    4   15 1  
    15    6   16 1  
    16    8   17 1  
    17    9   18 1  
    18    9   19 1  
    19   11   20 1  
    20   12   21 1  
    21   12   22 1  
# Name:          frag3-224-4/31924 -- energy: -1.437128
# Creation time: Sat Jun  5 12:52:23 2010


@<TRIPOS>MOLECULE
frag3-224-4/31924 -- energy: -1.437128
   22    21     1     1     1
SMALL
USER_CHARGES


@<TRIPOS>ATOM
      1 N1         -0.1918   -3.2120   -1.0703 N.pl3      1 <1>        0.000
      2 N2          0.7841   -4.0054   -0.7090 N.2        1 <1>        0.000
      3 C1          1.7180   -3.7894    0.1131 C.2        1 <1>        0.000
      4 C3          1.8721   -2.5366    0.8911 C.2        1 <1>        0.000
      5 N3          2.4794   -1.5124    0.4750 N.2        1 <1>        0.000
      6 N4          3.0626   -1.3142   -0.6779 N.pl3      1 <1>        0.000
      7 C4          3.4934   -0.1198   -1.0845 C.cat      1 <1>        0.000
      8 N5          3.9952    0.0965   -2.2250 N.pl3      1 <1>        0.000
      9 N6          3.3582    0.8674   -0.1945 N.pl3      1 <1>        0.000
     10 C11        -0.9000   -3.3811   -2.1879 C.cat      1 <1>        0.000
     11 N7         -1.5695   -2.4617   -2.7420 N.pl3      1 <1>        0.000
     12 N8         -0.8441   -4.6051   -2.7178 N.pl3      1 <1>        0.000
     13 H          -0.4229   -2.4234   -0.4660 H.spc      1 <1>        0.000
     14 H           2.4591   -4.5751    0.2604 H.spc      1 <1>        0.000
     15 H           1.4319   -2.4982    1.8875 H.spc      1 <1>        0.000
     16 H           3.1947   -2.1135   -1.2976 H.spc      1 <1>        0.000
     17 H           4.3036    1.0356   -2.4767 H.spc      1 <1>        0.000
     18 H           3.6617    1.8121   -0.4307 H.spc      1 <1>        0.000
     19 H           2.9515    0.6764    0.7212 H.spc      1 <1>        0.000
     20 H          -2.0768   -2.6504   -3.6065 H.spc      1 <1>        0.000
     21 H          -1.3457   -4.8101   -3.5819 H.spc      1 <1>        0.000
     22 H          -0.2997   -5.3353   -2.2586 H.spc      1 <1>        0.000
@<TRIPOS>BOND
     1   10   11 ar 
     2    4    5 2  
     3    7    9 ar 
     4    7    8 ar 
     5   10   12 ar 
     6    5    6 1  
     7    3    4 1  
     8    6    7 ar 
     9    2    3 2  
    10    1    2 1  
    11    1   10 ar 
    12    1   13 1  
    13    3   14 1  
    14    4   15 1  
    15    6   16 1  
    16    8   17 1  
    17    9   18 1  
    18    9   19 1  
    19   11   20 1  
    20   12   21 1  
    21   12   22 1  
# Name:          frag3-224-4/31924 -- energy: -1.715047
# Creation time: Sat Jun  5 12:52:23 2010


@<TRIPOS>MOLECULE
frag3-224-4/31924 -- energy: -1.715047
   22    21     1     1     1
SMALL
USER_CHARGES


@<TRIPOS>ATOM
      1 N1          2.4045   -0.9948   -0.1605 N.pl3      1 <1>        0.000
      2 N2          3.0270   -2.0712    0.2507 N.2        1 <1>        0.000
      3 C1          2.5339   -3.1399    0.7129 C.2        1 <1>        0.000
      4 C3          1.0768   -3.4083    0.8306 C.2        1 <1>        0.000
      5 N3          0.2959   -3.5433   -0.1533 N.2        1 <1>        0.000
      6 N4          0.5810   -3.5393   -1.4303 N.pl3      1 <1>        0.000
      7 C4         -0.3072   -3.2308   -2.3758 C.cat      1 <1>        0.000
      8 N5         -0.0594   -3.2826   -3.6144 N.pl3      1 <1>        0.000
      9 N6         -1.5115   -2.8638   -1.9268 N.pl3      1 <1>        0.000
     10 C11         2.8787   -0.1914   -1.1144 C.cat      1 <1>        0.000
     11 N7          2.2663    0.8296   -1.5400 N.pl3      1 <1>        0.000
     12 N8          4.0713   -0.5379   -1.6084 N.pl3      1 <1>        0.000
     13 H           1.5109   -0.7584    0.2708 H.spc      1 <1>        0.000
     14 H           3.2230   -3.9155    1.0471 H.spc      1 <1>        0.000
     15 H           0.6541   -3.4943    1.8316 H.spc      1 <1>        0.000
     16 H           1.5289   -3.7841   -1.7165 H.spc      1 <1>        0.000
     17 H          -0.7846   -3.0420   -4.2901 H.spc      1 <1>        0.000
     18 H          -2.2494   -2.6196   -2.5873 H.spc      1 <1>        0.000
     19 H          -1.6926   -2.8280   -0.9236 H.spc      1 <1>        0.000
     20 H           2.6817    1.4048   -2.2728 H.spc      1 <1>        0.000
     21 H           4.5027    0.0249   -2.3416 H.spc      1 <1>        0.000
     22 H           4.5500   -1.3652   -1.2522 H.spc      1 <1>        0.000
@<TRIPOS>BOND
     1   10   11 ar 
     2    4    5 2  
     3    7    9 ar 
     4    7    8 ar 
     5   10   12 ar 
     6    5    6 1  
     7    3    4 1  
     8    6    7 ar 
     9    2    3 2  
    10    1    2 1  
    11    1   10 ar 
    12    1   13 1  
    13    3   14 1  
    14    4   15 1  
    15    6   16 1  
    16    8   17 1  
    17    9   18 1  
    18    9   19 1  
    19   11   20 1  
    20   12   21 1  
    21   12   22 1  
# Name:          frag3-224-4/31924 -- energy: -1.305536
# Creation time: Sat Jun  5 12:52:23 2010


@<TRIPOS>MOLECULE
frag3-224-4/31924 -- energy: -1.305536
   22    21     1     1     1
SMALL
USER_CHARGES


@<TRIPOS>ATOM
      1 N1          0.0736   -3.9524   -1.3541 N.pl3      1 <1>        0.000
      2 N2          0.0340   -3.3866   -0.1766 N.2        1 <1>        0.000
      3 C1          0.9993   -2.9913    0.5347 C.2        1 <1>        0.000
      4 C3          2.4264   -3.0750    0.1374 C.2        1 <1>        0.000
      5 N3          3.1488   -2.0799   -0.1415 N.2        1 <1>        0.000
      6 N4          2.8407   -0.8119   -0.1061 N.pl3      1 <1>        0.000
      7 C4          3.4714    0.1149   -0.8273 C.cat      1 <1>        0.000
      8 N5          3.2466    1.3552   -0.7245 N.pl3      1 <1>        0.000
      9 N6          4.3823   -0.3510   -1.6860 N.pl3      1 <1>        0.000
     10 C11        -0.8149   -3.7090   -2.3192 C.cat      1 <1>        0.000
     11 N7         -0.7613   -4.2322   -3.4697 N.pl3      1 <1>        0.000
     12 N8         -1.7895   -2.8544   -1.9969 N.pl3      1 <1>        0.000
     13 H           0.8243   -4.6159   -1.5456 H.spc      1 <1>        0.000
     14 H           0.7683   -2.5586    1.5081 H.spc      1 <1>        0.000
     15 H           2.8813   -4.0640    0.0829 H.spc      1 <1>        0.000
     16 H           2.0790   -0.5154    0.5041 H.spc      1 <1>        0.000
     17 H           3.7645    2.0170   -1.3026 H.spc      1 <1>        0.000
     18 H           4.9093    0.2968   -2.2717 H.spc      1 <1>        0.000
     19 H           4.5509   -1.3545   -1.7560 H.spc      1 <1>        0.000
     20 H          -1.4691   -4.0033   -4.1675 H.spc      1 <1>        0.000
     21 H          -2.5052   -2.6147   -2.6830 H.spc      1 <1>        0.000
     22 H          -1.8181   -2.4414   -1.0647 H.spc      1 <1>        0.000
@<TRIPOS>BOND
     1   10   11 ar 
     2    4    5 2  
     3    7    9 ar 
     4    7    8 ar 
     5   10   12 ar 
     6    5    6 1  
     7    3    4 1  
     8    6    7 ar 
     9    2    3 2  
    10    1    2 1  
    11    1   10 ar 
    12    1   13 1  
    13    3   14 1  
    14    4   15 1  
    15    6   16 1  
    16    8   17 1  
    17    9   18 1  
    18    9   19 1  
    19   11   20 1  
    20   12   21 1  
    21   12   22 1  
# Name:          frag3-224-4/31924 -- energy: -1.118397
# Creation time: Sat Jun  5 12:52:23 2010


@<TRIPOS>MOLECULE
frag3-224-4/31924 -- energy: -1.118397
   22    21     1     1     1
SMALL
USER_CHARGES


@<TRIPOS>ATOM
      1 N1          3.5073   -1.0646   -0.4997 N.pl3      1 <1>        0.000
      2 N2          2.3761   -1.1307    0.1473 N.2        1 <1>        0.000
      3 C1          1.5125   -2.0466    0.1330 C.2        1 <1>        0.000
      4 C3          1.6533   -3.3154   -0.6183 C.2        1 <1>        0.000
      5 N3          0.6869   -4.0036   -1.0454 N.2        1 <1>        0.000
      6 N4         -0.5868   -3.7203   -0.9922 N.pl3      1 <1>        0.000
      7 C4         -1.4289   -3.9328   -2.0051 C.cat      1 <1>        0.000
      8 N5         -2.6475   -3.5952   -1.9887 N.pl3      1 <1>        0.000
      9 N6         -0.8908   -4.5278   -3.0727 N.pl3      1 <1>        0.000
     10 C11         4.1808    0.0686   -0.6942 C.cat      1 <1>        0.000
     11 N7          5.2917    0.1298   -1.2954 N.pl3      1 <1>        0.000
     12 N8          3.6028    1.1647   -0.1980 N.pl3      1 <1>        0.000
     13 H           3.8975   -1.9280   -0.8774 H.spc      1 <1>        0.000
     14 H           0.6011   -1.8960    0.7116 H.spc      1 <1>        0.000
     15 H           2.6617   -3.6792   -0.8155 H.spc      1 <1>        0.000
     16 H          -0.9569   -3.3158   -0.1321 H.spc      1 <1>        0.000
     17 H          -3.2379   -3.7764   -2.8005 H.spc      1 <1>        0.000
     18 H          -1.4648   -4.7175   -3.8942 H.spc      1 <1>        0.000
     19 H           0.0942   -4.7926   -3.0666 H.spc      1 <1>        0.000
     20 H           5.7619    1.0280   -1.4080 H.spc      1 <1>        0.000
     21 H           4.0575    2.0720   -0.3006 H.spc      1 <1>        0.000
     22 H           2.7065    1.0950    0.2838 H.spc      1 <1>        0.000
@<TRIPOS>BOND
     1   10   11 ar 
     2    4    5 2  
     3    7    9 ar 
     4    7    8 ar 
     5   10   12 ar 
     6    5    6 1  
     7    3    4 1  
     8    6    7 ar 
     9    2    3 2  
    10    1    2 1  
    11    1   10 ar 
    12    1   13 1  
    13    3   14 1  
    14    4   15 1  
    15    6   16 1  
    16    8   17 1  
    17    9   18 1  
    18    9   19 1  
    19   11   20 1  
    20   12   21 1  
    21   12   22 1  
# Name:          frag3-224-4/31924 -- energy: -1.815896
# Creation time: Sat Jun  5 12:52:23 2010


@<TRIPOS>MOLECULE
frag3-224-4/31924 -- energy: -1.815896
   22    21     1     1     1
SMALL
USER_CHARGES


@<TRIPOS>ATOM
      1 N1          3.1834   -1.0661   -0.1313 N.pl3      1 <1>        0.000
      2 N2          3.0849   -2.2071   -0.7654 N.2        1 <1>        0.000
      3 C1          2.2058   -3.1076   -0.6357 C.2        1 <1>        0.000
      4 C3          1.0552   -3.0441    0.3143 C.2        1 <1>        0.000
      5 N3         -0.0821   -3.5914    0.1435 N.2        1 <1>        0.000
      6 N4         -0.4719   -4.1831   -0.9655 N.pl3      1 <1>        0.000
      7 C4         -0.8358   -3.5754   -2.0959 C.cat      1 <1>        0.000
      8 N5         -1.2845   -4.1857   -3.1160 N.pl3      1 <1>        0.000
      9 N6         -0.6961   -2.2501   -2.1050 N.pl3      1 <1>        0.000
     10 C11         3.5744    0.0709   -0.6983 C.cat      1 <1>        0.000
     11 N7          3.6955    1.1670   -0.0704 N.pl3      1 <1>        0.000
     12 N8          3.8287   -0.0010   -2.0041 N.pl3      1 <1>        0.000
     13 H           2.9451   -1.0484    0.8603 H.spc      1 <1>        0.000
     14 H           2.2946   -3.9945   -1.2631 H.spc      1 <1>        0.000
     15 H           1.2017   -2.4795    1.2351 H.spc      1 <1>        0.000
     16 H          -0.4983   -5.2027   -0.9602 H.spc      1 <1>        0.000
     17 H          -1.5416   -3.6610   -3.9521 H.spc      1 <1>        0.000
     18 H          -0.9503   -1.7162   -2.9361 H.spc      1 <1>        0.000
     19 H          -0.3350   -1.7697   -1.2809 H.spc      1 <1>        0.000
     20 H           3.9911    2.0084   -0.5655 H.spc      1 <1>        0.000
     21 H           4.1251    0.8321   -2.5126 H.spc      1 <1>        0.000
     22 H           3.7270   -0.8891   -2.4954 H.spc      1 <1>        0.000
@<TRIPOS>BOND
     1   10   11 ar 
     2    4    5 2  
     3    7    9 ar 
     4    7    8 ar 
     5   10   12 ar 
     6    5    6 1  
     7    3    4 1  
     8    6    7 ar 
     9    2    3 2  
    10    1    2 1  
    11    1   10 ar 
    12    1   13 1  
    13    3   14 1  
    14    4   15 1  
    15    6   16 1  
    16    8   17 1  
    17    9   18 1  
    18    9   19 1  
    19   11   20 1  
    20   12   21 1  
    21   12   22 1  
# Name:          frag3-224-4/31924 -- energy: -1.797762
# Creation time: Sat Jun  5 12:52:23 2010


@<TRIPOS>MOLECULE
frag3-224-4/31924 -- energy: -1.797762
   22    21     1     1     1
SMALL
USER_CHARGES


@<TRIPOS>ATOM
      1 N1         -0.3265   -3.8325   -1.0370 N.pl3      1 <1>        0.000
      2 N2          0.9579   -3.7613   -1.2838 N.2        1 <1>        0.000
      3 C1          1.7822   -2.9041   -0.8473 C.2        1 <1>        0.000
      4 C3          1.4664   -1.8563    0.1727 C.2        1 <1>        0.000
      5 N3          2.3148   -1.0881    0.7337 N.2        1 <1>        0.000
      6 N4          3.5604   -0.9380    0.3374 N.pl3      1 <1>        0.000
      7 C4          3.9504   -0.2351   -0.7277 C.cat      1 <1>        0.000
      8 N5          5.1439   -0.2044   -1.1592 N.pl3      1 <1>        0.000
      9 N6          2.9834    0.4374   -1.3534 N.pl3      1 <1>        0.000
     10 C11        -1.2613   -3.8625   -1.9837 C.cat      1 <1>        0.000
     11 N7         -2.5047   -3.9446   -1.7456 N.pl3      1 <1>        0.000
     12 N8         -0.8095   -3.7841   -3.2357 N.pl3      1 <1>        0.000
     13 H          -0.6276   -3.8669   -0.0631 H.spc      1 <1>        0.000
     14 H           2.7969   -2.9321   -1.2444 H.spc      1 <1>        0.000
     15 H           0.4216   -1.7399    0.4607 H.spc      1 <1>        0.000
     16 H           4.2863   -1.3957    0.8887 H.spc      1 <1>        0.000
     17 H           5.3712    0.3384   -1.9923 H.spc      1 <1>        0.000
     18 H           3.1994    0.9835   -2.1874 H.spc      1 <1>        0.000
     19 H           2.0279    0.4056   -0.9979 H.spc      1 <1>        0.000
     20 H          -3.1723   -3.9512   -2.5168 H.spc      1 <1>        0.000
     21 H          -1.4662   -3.7897   -4.0162 H.spc      1 <1>        0.000
     22 H           0.1928   -3.7185   -3.4130 H.spc      1 <1>        0.000
@<TRIPOS>BOND
     1   10   11 ar 
     2    4    5 2  
     3    7    9 ar 
     4    7    8 ar 
     5   10   12 ar 
     6    5    6 1  
     7    3    4 1  
     8    6    7 ar 
     9    2    3 2  
    10    1    2 1  
    11    1   10 ar 
    12    1   13 1  
    13    3   14 1  
    14    4   15 1  
    15    6   16 1  
    16    8   17 1  
    17    9   18 1  
    18    9   19 1  
    19   11   20 1  
    20   12   21 1  
    21   12   22 1  
# Name:          frag3-224-4/31924 -- energy: -1.721469
# Creation time: Sat Jun  5 12:52:23 2010


@<TRIPOS>MOLECULE
frag3-224-4/31924 -- energy: -1.721469
   22    21     1     1     1
SMALL
USER_CHARGES


@<TRIPOS>ATOM
      1 N1          2.7922   -0.0957   -0.9266 N.pl3      1 <1>        0.000
      2 N2          1.8109   -0.4201   -0.1149 N.2        1 <1>        0.000
      3 C1          1.3486   -1.5956    0.0439 C.2        1 <1>        0.000
      4 C3          1.7259   -2.8015   -0.7515 C.2        1 <1>        0.000
      5 N3          0.9106   -3.6970   -1.1176 N.2        1 <1>        0.000
      6 N4         -0.3871   -3.7257   -0.9527 N.pl3      1 <1>        0.000
      7 C4         -1.2422   -4.1081   -1.8988 C.cat      1 <1>        0.000
      8 N5         -2.5030   -4.0695   -1.7680 N.pl3      1 <1>        0.000
      9 N6         -0.6847   -4.5354   -3.0323 N.pl3      1 <1>        0.000
     10 C11         4.0927   -0.2389   -0.6655 C.cat      1 <1>        0.000
     11 N7          5.0158    0.0455   -1.4872 N.pl3      1 <1>        0.000
     12 N8          4.3777   -0.7316    0.5414 N.pl3      1 <1>        0.000
     13 H           2.5382    0.2987   -1.8323 H.spc      1 <1>        0.000
     14 H           0.6095   -1.7344    0.8329 H.spc      1 <1>        0.000
     15 H           2.7719   -2.9179   -1.0352 H.spc      1 <1>        0.000
     16 H          -0.7645   -3.4393   -0.0494 H.spc      1 <1>        0.000
     17 H          -3.1047   -4.3677   -2.5357 H.spc      1 <1>        0.000
     18 H          -1.2739   -4.8367   -3.8085 H.spc      1 <1>        0.000
     19 H           0.3309   -4.5610   -3.1231 H.spc      1 <1>        0.000
     20 H           5.9916   -0.1017   -1.2291 H.spc      1 <1>        0.000
     21 H           5.3488   -0.8842    0.8137 H.spc      1 <1>        0.000
     22 H           3.6245   -0.9556    1.1917 H.spc      1 <1>        0.000
@<TRIPOS>BOND
     1   10   11 ar 
     2    4    5 2  
     3    7    9 ar 
     4    7    8 ar 
     5   10   12 ar 
     6    5    6 1  
     7    3    4 1  
     8    6    7 ar 
     9    2    3 2  
    10    1    2 1  
    11    1   10 ar 
    12    1   13 1  
    13    3   14 1  
    14    4   15 1  
    15    6   16 1  
    16    8   17 1  
    17    9   18 1  
    18    9   19 1  
    19   11   20 1  
    20   12   21 1  
    21   12   22 1  
# Name:          frag3-224-4/31924 -- energy: 0.123079
# Creation time: Sat Jun  5 12:52:23 2010


@<TRIPOS>MOLECULE
frag3-224-4/31924 -- energy: 0.123079
   22    21     1     1     1
SMALL
USER_CHARGES


@<TRIPOS>ATOM
      1 N1          2.4550   -1.1086   -0.4943 N.pl3      1 <1>        0.000
      2 N2          3.0022   -2.2301   -0.0895 N.2        1 <1>        0.000
      3 C1          2.4665   -3.2230    0.4824 C.2        1 <1>        0.000
      4 C3          1.0099   -3.3165    0.7574 C.2        1 <1>        0.000
      5 N3          0.1117   -3.0810   -0.1047 N.2        1 <1>        0.000
      6 N4          0.2523   -2.8280   -1.3852 N.pl3      1 <1>        0.000
      7 C4         -0.4905   -3.3934   -2.3375 C.cat      1 <1>        0.000
      8 N5         -0.4407   -3.0727   -3.5594 N.pl3      1 <1>        0.000
      9 N6         -1.3194   -4.3508   -1.9122 N.pl3      1 <1>        0.000
     10 C11         3.1403   -0.0877   -1.0084 C.cat      1 <1>        0.000
     11 N7          2.6089    0.9869   -1.4102 N.pl3      1 <1>        0.000
     12 N8          4.4611   -0.2687   -1.0680 N.pl3      1 <1>        0.000
     13 H           1.4430   -1.0121   -0.4104 H.spc      1 <1>        0.000
     14 H           3.1056   -4.0512    0.7886 H.spc      1 <1>        0.000
     15 H           0.6950   -3.6048    1.7603 H.spc      1 <1>        0.000
     16 H           0.9705   -2.1611   -1.6677 H.spc      1 <1>        0.000
     17 H          -1.0387   -3.5471   -4.2360 H.spc      1 <1>        0.000
     18 H          -1.9237   -4.8344   -2.5766 H.spc      1 <1>        0.000
     19 H          -1.3480   -4.5982   -0.9231 H.spc      1 <1>        0.000
     20 H           3.1917    1.7339   -1.7879 H.spc      1 <1>        0.000
     21 H           5.0603    0.4669   -1.4426 H.spc      1 <1>        0.000
     22 H           4.8715   -1.1426   -0.7390 H.spc      1 <1>        0.000
@<TRIPOS>BOND
     1   10   11 ar 
     2    4    5 2  
     3    7    9 ar 
     4    7    8 ar 
     5   10   12 ar 
     6    5    6 1  
     7    3    4 1  
     8    6    7 ar 
     9    2    3 2  
    10    1    2 1  
    11    1   10 ar 
    12    1   13 1  
    13    3   14 1  
    14    4   15 1  
    15    6   16 1  
    16    8   17 1  
    17    9   18 1  
    18    9   19 1  
    19   11   20 1  
    20   12   21 1  
    21   12   22 1  
# Name:          frag3-224-4/31924 -- energy: -1.624508
# Creation time: Sat Jun  5 12:52:23 2010


@<TRIPOS>MOLECULE
frag3-224-4/31924 -- energy: -1.624508
   22    21     1     1     1
SMALL
USER_CHARGES


@<TRIPOS>ATOM
      1 N1         -0.7353   -2.9634   -0.9971 N.pl3      1 <1>        0.000
      2 N2          0.1360   -3.2987   -0.0708 N.2        1 <1>        0.000
      3 C1          1.3977   -3.3424   -0.2311 C.2        1 <1>        0.000
      4 C3          2.1326   -2.7728   -1.3954 C.2        1 <1>        0.000
      5 N3          2.8828   -1.7598   -1.3133 N.2        1 <1>        0.000
      6 N4          3.2090   -1.0461   -0.2662 N.pl3      1 <1>        0.000
      7 C4          3.8730    0.1105   -0.3139 C.cat      1 <1>        0.000
      8 N5          4.1789    0.7964    0.7048 N.pl3      1 <1>        0.000
      9 N6          4.2038    0.5121   -1.5427 N.pl3      1 <1>        0.000
     10 C11        -1.2201   -3.7715   -1.9486 C.cat      1 <1>        0.000
     11 N7         -2.0742   -3.4240   -2.8156 N.pl3      1 <1>        0.000
     12 N8         -0.7267   -5.0139   -1.9399 N.pl3      1 <1>        0.000
     13 H          -1.0723   -2.0007   -0.9902 H.spc      1 <1>        0.000
     14 H           1.9862   -3.8346    0.5432 H.spc      1 <1>        0.000
     15 H           2.0171   -3.2543   -2.3665 H.spc      1 <1>        0.000
     16 H           2.9365   -1.3987    0.6513 H.spc      1 <1>        0.000
     17 H           4.6876    1.6737    0.5950 H.spc      1 <1>        0.000
     18 H           4.7125    1.3864   -1.6738 H.spc      1 <1>        0.000
     19 H           3.9479   -0.0552   -2.3508 H.spc      1 <1>        0.000
     20 H          -2.3919   -4.0942   -3.5158 H.spc      1 <1>        0.000
     21 H          -1.0382   -5.6912   -2.6360 H.spc      1 <1>        0.000
     22 H          -0.0387   -5.2845   -1.2371 H.spc      1 <1>        0.000
@<TRIPOS>BOND
     1   10   11 ar 
     2    4    5 2  
     3    7    9 ar 
     4    7    8 ar 
     5   10   12 ar 
     6    5    6 1  
     7    3    4 1  
     8    6    7 ar 
     9    2    3 2  
    10    1    2 1  
    11    1   10 ar 
    12    1   13 1  
    13    3   14 1  
    14    4   15 1  
    15    6   16 1  
    16    8   17 1  
    17    9   18 1  
    18    9   19 1  
    19   11   20 1  
    20   12   21 1  
    21   12   22 1  
# Name:          frag3-224-4/31924 -- energy: -2.037844
# Creation time: Sat Jun  5 12:52:23 2010


@<TRIPOS>MOLECULE
frag3-224-4/31924 -- energy: -2.037844
   22    21     1     1     1
SMALL
USER_CHARGES


@<TRIPOS>ATOM
      1 N1         -0.2842   -4.0789   -0.6888 N.pl3      1 <1>        0.000
      2 N2          1.0176   -4.0182   -0.8806 N.2        1 <1>        0.000
      3 C1          1.6862   -2.9407   -1.0142 C.2        1 <1>        0.000
      4 C3          1.1691   -1.5557   -0.7584 C.2        1 <1>        0.000
      5 N3          1.8126   -0.4753   -0.9543 N.2        1 <1>        0.000
      6 N4          3.0721   -0.3851   -1.3174 N.pl3      1 <1>        0.000
      7 C4          4.1048   -0.2194   -0.4945 C.cat      1 <1>        0.000
      8 N5          5.3063   -0.0784   -0.8825 N.pl3      1 <1>        0.000
      9 N6          3.8043   -0.2204    0.8034 N.pl3      1 <1>        0.000
     10 C11        -1.2158   -4.0260   -1.6413 C.cat      1 <1>        0.000
     11 N7         -2.4660   -4.0527   -1.4154 N.pl3      1 <1>        0.000
     12 N8         -0.7495   -3.9229   -2.8856 N.pl3      1 <1>        0.000
     13 H          -0.6083   -4.1749    0.2736 H.spc      1 <1>        0.000
     14 H           2.7215   -3.0337   -1.3422 H.spc      1 <1>        0.000
     15 H           0.1541   -1.4671   -0.3711 H.spc      1 <1>        0.000
     16 H           3.2757   -0.4474   -2.3149 H.spc      1 <1>        0.000
     17 H           6.0534    0.0357   -0.1975 H.spc      1 <1>        0.000
     18 H           4.5427   -0.1071    1.4979 H.spc      1 <1>        0.000
     19 H           2.8359   -0.3344    1.1026 H.spc      1 <1>        0.000
     20 H          -3.1258   -3.9949   -2.1911 H.spc      1 <1>        0.000
     21 H          -1.3986   -3.8643   -3.6703 H.spc      1 <1>        0.000
     22 H           0.2564   -3.9026   -3.0532 H.spc      1 <1>        0.000
@<TRIPOS>BOND
     1   10   11 ar 
     2    4    5 2  
     3    7    9 ar 
     4    7    8 ar 
     5   10   12 ar 
     6    5    6 1  
     7    3    4 1  
     8    6    7 ar 
     9    2    3 2  
    10    1    2 1  
    11    1   10 ar 
    12    1   13 1  
    13    3   14 1  
    14    4   15 1  
    15    6   16 1  
    16    8   17 1  
    17    9   18 1  
    18    9   19 1  
    19   11   20 1  
    20   12   21 1  
    21   12   22 1  
# Name:          frag3-224-4/31924 -- energy: -1.937036
# Creation time: Sat Jun  5 12:52:23 2010


@<TRIPOS>MOLECULE
frag3-224-4/31924 -- energy: -1.937036
   22    21     1     1     1
SMALL
USER_CHARGES


@<TRIPOS>ATOM
      1 N1          3.1059   -0.1485   -0.9320 N.pl3      1 <1>        0.000
      2 N2          1.8378   -0.3004   -0.6258 N.2        1 <1>        0.000
      3 C1          1.0874   -1.2551   -1.0036 C.2        1 <1>        0.000
      4 C3          1.4687   -2.3228   -1.9801 C.2        1 <1>        0.000
      5 N3          0.6675   -3.1559   -2.5101 N.2        1 <1>        0.000
      6 N4         -0.6018   -3.3026   -2.2084 N.pl3      1 <1>        0.000
      7 C4         -1.0854   -4.2039   -1.3561 C.cat      1 <1>        0.000
      8 N5         -2.3233   -4.3644   -1.1232 N.pl3      1 <1>        0.000
      9 N6         -0.1699   -4.9444   -0.7313 N.pl3      1 <1>        0.000
     10 C11         4.1290   -0.5183   -0.1638 C.cat      1 <1>        0.000
     11 N7          5.3472   -0.3425   -0.4756 N.pl3      1 <1>        0.000
     12 N8          3.7945   -1.1150    0.9802 N.pl3      1 <1>        0.000
     13 H           3.3242    0.2867   -1.8283 H.spc      1 <1>        0.000
     14 H           0.0836   -1.2992   -0.5812 H.spc      1 <1>        0.000
     15 H           2.5198   -2.3921   -2.2602 H.spc      1 <1>        0.000
     16 H          -1.2687   -2.6781   -2.6618 H.spc      1 <1>        0.000
     17 H          -2.6287   -5.0675   -0.4503 H.spc      1 <1>        0.000
     18 H          -0.4602   -5.6514   -0.0558 H.spc      1 <1>        0.000
     19 H           0.8209   -4.8041   -0.9287 H.spc      1 <1>        0.000
     20 H           6.0854   -0.6595    0.1529 H.spc      1 <1>        0.000
     21 H           4.5215   -1.4374    1.6188 H.spc      1 <1>        0.000
     22 H           2.8115   -1.2492    1.2170 H.spc      1 <1>        0.000
@<TRIPOS>BOND
     1   10   11 ar 
     2    4    5 2  
     3    7    9 ar 
     4    7    8 ar 
     5   10   12 ar 
     6    5    6 1  
     7    3    4 1  
     8    6    7 ar 
     9    2    3 2  
    10    1    2 1  
    11    1   10 ar 
    12    1   13 1  
    13    3   14 1  
    14    4   15 1  
    15    6   16 1  
    16    8   17 1  
    17    9   18 1  
    18    9   19 1  
    19   11   20 1  
    20   12   21 1  
    21   12   22 1  
# Name:          frag3-224-4/31924 -- energy: -2.258226
# Creation time: Sat Jun  5 12:52:23 2010


@<TRIPOS>MOLECULE
frag3-224-4/31924 -- energy: -2.258226
   22    21     1     1     1
SMALL
USER_CHARGES


@<TRIPOS>ATOM
      1 N1          3.5933   -1.7266   -0.8751 N.pl3      1 <1>        0.000
      2 N2          2.8165   -2.4015   -0.0519 N.2        1 <1>        0.000
      3 C1          1.5555   -2.2268    0.0551 C.2        1 <1>        0.000
      4 C3          0.6825   -1.4360   -0.8894 C.2        1 <1>        0.000
      5 N3         -0.4715   -1.7913   -1.3041 N.2        1 <1>        0.000
      6 N4         -1.0228   -2.9676   -1.0839 N.pl3      1 <1>        0.000
      7 C4         -0.8034   -4.0967   -1.7613 C.cat      1 <1>        0.000
      8 N5         -1.3235   -5.2194   -1.4677 N.pl3      1 <1>        0.000
      9 N6          0.0282   -3.9805   -2.7959 N.pl3      1 <1>        0.000
     10 C11         3.9757   -0.4552   -0.7385 C.cat      1 <1>        0.000
     11 N7          4.6853    0.1752   -1.5837 N.pl3      1 <1>        0.000
     12 N8          3.5417    0.1527    0.3666 N.pl3      1 <1>        0.000
     13 H           3.9357   -2.2244   -1.6969 H.spc      1 <1>        0.000
     14 H           1.0634   -2.6926    0.9089 H.spc      1 <1>        0.000
     15 H           1.0699   -0.4820   -1.2471 H.spc      1 <1>        0.000
     16 H          -1.6887   -3.0212   -0.3131 H.spc      1 <1>        0.000
     17 H          -1.1056   -6.0442   -2.0268 H.spc      1 <1>        0.000
     18 H           0.2542   -4.7977   -3.3628 H.spc      1 <1>        0.000
     19 H           0.4388   -3.0743   -3.0209 H.spc      1 <1>        0.000
     20 H           4.9265    1.1525   -1.4192 H.spc      1 <1>        0.000
     21 H           3.7789    1.1298    0.5378 H.spc      1 <1>        0.000
     22 H           2.9726   -0.3596    1.0405 H.spc      1 <1>        0.000
@<TRIPOS>BOND
     1   10   11 ar 
     2    4    5 2  
     3    7    9 ar 
     4    7    8 ar 
     5   10   12 ar 
     6    5    6 1  
     7    3    4 1  
     8    6    7 ar 
     9    2    3 2  
    10    1    2 1  
    11    1   10 ar 
    12    1   13 1  
    13    3   14 1  
    14    4   15 1  
    15    6   16 1  
    16    8   17 1  
    17    9   18 1  
    18    9   19 1  
    19   11   20 1  
    20   12   21 1  
    21   12   22 1  
# Name:          frag3-224-4/31924 -- energy: -2.215843
# Creation time: Sat Jun  5 12:52:23 2010


@<TRIPOS>MOLECULE
frag3-224-4/31924 -- energy: -2.215843
   22    21     1     1     1
SMALL
USER_CHARGES


@<TRIPOS>ATOM
      1 N1         -0.4400   -3.9068   -0.9725 N.pl3      1 <1>        0.000
      2 N2          0.6618   -4.4989   -0.5582 N.2        1 <1>        0.000
      3 C1          1.5887   -3.9361    0.1118 C.2        1 <1>        0.000
      4 C3          1.5116   -2.5786    0.7232 C.2        1 <1>        0.000
      5 N3          2.0892   -1.5515    0.2682 N.2        1 <1>        0.000
      6 N4          2.8218   -1.4181   -0.8061 N.pl3      1 <1>        0.000
      7 C4          3.3662   -0.2702   -1.1957 C.cat      1 <1>        0.000
      8 N5          3.9679   -0.1133   -2.3012 N.pl3      1 <1>        0.000
      9 N6          3.2387    0.7377   -0.3335 N.pl3      1 <1>        0.000
     10 C11        -0.5358   -3.0745   -2.0146 C.cat      1 <1>        0.000
     11 N7         -1.6185   -2.5287   -2.3902 N.pl3      1 <1>        0.000
     12 N8          0.6059   -2.8345   -2.6609 N.pl3      1 <1>        0.000
     13 H          -1.2956   -4.1005   -0.4522 H.spc      1 <1>        0.000
     14 H           2.5150   -4.4939    0.2492 H.spc      1 <1>        0.000
     15 H           0.9140   -2.4642    1.6276 H.spc      1 <1>        0.000
     16 H           2.9855   -2.2452   -1.3801 H.spc      1 <1>        0.000
     17 H           4.3635    0.7955   -2.5421 H.spc      1 <1>        0.000
     18 H           3.6281    1.6533   -0.5581 H.spc      1 <1>        0.000
     19 H           2.7517    0.5936    0.5511 H.spc      1 <1>        0.000
     20 H          -1.6208   -1.8998   -3.1933 H.spc      1 <1>        0.000
     21 H           0.6145   -2.2072   -3.4652 H.spc      1 <1>        0.000
     22 H           1.4704   -3.2782   -2.3509 H.spc      1 <1>        0.000
@<TRIPOS>BOND
     1   10   11 ar 
     2    4    5 2  
     3    7    9 ar 
     4    7    8 ar 
     5   10   12 ar 
     6    5    6 1  
     7    3    4 1  
     8    6    7 ar 
     9    2    3 2  
    10    1    2 1  
    11    1   10 ar 
    12    1   13 1  
    13    3   14 1  
    14    4   15 1  
    15    6   16 1  
    16    8   17 1  
    17    9   18 1  
    18    9   19 1  
    19   11   20 1  
    20   12   21 1  
    21   12   22 1  
# Name:          frag3-224-4/31924 -- energy: -1.868971
# Creation time: Sat Jun  5 12:52:23 2010


@<TRIPOS>MOLECULE
frag3-224-4/31924 -- energy: -1.868971
   22    21     1     1     1
SMALL
USER_CHARGES


@<TRIPOS>ATOM
      1 N1          2.2995   -0.6141   -0.7359 N.pl3      1 <1>        0.000
      2 N2          1.8589   -0.9731    0.4496 N.2        1 <1>        0.000
      3 C1          1.7048   -2.1619    0.8754 C.2        1 <1>        0.000
      4 C3          1.8486   -3.3897    0.0459 C.2        1 <1>        0.000
      5 N3          1.0026   -3.7431   -0.8237 N.2        1 <1>        0.000
      6 N4         -0.1008   -3.1477   -1.2007 N.pl3      1 <1>        0.000
      7 C4         -0.8866   -3.5837   -2.1862 C.cat      1 <1>        0.000
      8 N5         -1.9168   -2.9730   -2.5946 N.pl3      1 <1>        0.000
      9 N6         -0.5077   -4.7385   -2.7386 N.pl3      1 <1>        0.000
     10 C11         3.5657   -0.2996   -1.0300 C.cat      1 <1>        0.000
     11 N7          3.9438    0.1675   -2.1437 N.pl3      1 <1>        0.000
     12 N8          4.4454   -0.5167   -0.0471 N.pl3      1 <1>        0.000
     13 H           1.6190   -0.5719   -1.4945 H.spc      1 <1>        0.000
     14 H           1.4481   -2.2913    1.9268 H.spc      1 <1>        0.000
     15 H           2.7282   -4.0156    0.1963 H.spc      1 <1>        0.000
     16 H          -0.3767   -2.2971   -0.7100 H.spc      1 <1>        0.000
     17 H          -2.4717   -3.3621   -3.3569 H.spc      1 <1>        0.000
     18 H          -1.0513   -5.1414   -3.5018 H.spc      1 <1>        0.000
     19 H           0.3254   -5.2179   -2.3974 H.spc      1 <1>        0.000
     20 H           4.9288    0.3824   -2.2987 H.spc      1 <1>        0.000
     21 H           5.4329   -0.3055   -0.1906 H.spc      1 <1>        0.000
     22 H           4.1291   -0.8935    0.8464 H.spc      1 <1>        0.000
@<TRIPOS>BOND
     1   10   11 ar 
     2    4    5 2  
     3    7    9 ar 
     4    7    8 ar 
     5   10   12 ar 
     6    5    6 1  
     7    3    4 1  
     8    6    7 ar 
     9    2    3 2  
    10    1    2 1  
    11    1   10 ar 
    12    1   13 1  
    13    3   14 1  
    14    4   15 1  
    15    6   16 1  
    16    8   17 1  
    17    9   18 1  
    18    9   19 1  
    19   11   20 1  
    20   12   21 1  
    21   12   22 1  
# Name:          frag3-224-4/31924 -- energy: -1.340272
# Creation time: Sat Jun  5 12:52:23 2010


@<TRIPOS>MOLECULE
frag3-224-4/31924 -- energy: -1.340272
   22    21     1     1     1
SMALL
USER_CHARGES


@<TRIPOS>ATOM
      1 N1         -0.5332   -3.6245   -1.0427 N.pl3      1 <1>        0.000
      2 N2          0.7222   -3.7743   -1.3784 N.2        1 <1>        0.000
      3 C1          1.5978   -2.8827   -1.5446 C.2        1 <1>        0.000
      4 C3          1.3708   -1.4467   -1.2755 C.2        1 <1>        0.000
      5 N3          2.2253   -0.6988   -0.7307 N.2        1 <1>        0.000
      6 N4          3.4485   -0.9743   -0.3610 N.pl3      1 <1>        0.000
      7 C4          4.3811   -0.0525   -0.1174 C.cat      1 <1>        0.000
      8 N5          5.5669   -0.3198    0.2334 N.pl3      1 <1>        0.000
      9 N6          3.9788    1.2085   -0.2887 N.pl3      1 <1>        0.000
     10 C11        -1.5450   -4.2561   -1.6427 C.cat      1 <1>        0.000
     11 N7         -2.7006   -4.3775   -1.1424 N.pl3      1 <1>        0.000
     12 N8         -1.2550   -4.7750   -2.8390 N.pl3      1 <1>        0.000
     13 H          -0.7522   -2.9872   -0.2770 H.spc      1 <1>        0.000
     14 H           2.5791   -3.1881   -1.9077 H.spc      1 <1>        0.000
     15 H           0.4135   -1.0124   -1.5638 H.spc      1 <1>        0.000
     16 H           3.7057   -1.9553   -0.2520 H.spc      1 <1>        0.000
     17 H           6.2347    0.4350    0.3905 H.spc      1 <1>        0.000
     18 H           4.6317    1.9773   -0.1365 H.spc      1 <1>        0.000
     19 H           3.0185    1.4035   -0.5718 H.spc      1 <1>        0.000
     20 H          -3.4277   -4.8777   -1.6537 H.spc      1 <1>        0.000
     21 H          -1.9705   -5.2783   -3.3636 H.spc      1 <1>        0.000
     22 H          -0.3181   -4.6680   -3.2278 H.spc      1 <1>        0.000
@<TRIPOS>BOND
     1   10   11 ar 
     2    4    5 2  
     3    7    9 ar 
     4    7    8 ar 
     5   10   12 ar 
     6    5    6 1  
     7    3    4 1  
     8    6    7 ar 
     9    2    3 2  
    10    1    2 1  
    11    1   10 ar 
    12    1   13 1  
    13    3   14 1  
    14    4   15 1  
    15    6   16 1  
    16    8   17 1  
    17    9   18 1  
    18    9   19 1  
    19   11   20 1  
    20   12   21 1  
    21   12   22 1  
# Name:          frag3-224-4/31924 -- energy: -1.575112
# Creation time: Sat Jun  5 12:52:23 2010


@<TRIPOS>MOLECULE
frag3-224-4/31924 -- energy: -1.575112
   22    21     1     1     1
SMALL
USER_CHARGES


@<TRIPOS>ATOM
      1 N1         -0.5069   -3.9086   -0.8424 N.pl3      1 <1>        0.000
      2 N2          0.7859   -4.1168   -0.7761 N.2        1 <1>        0.000
      3 C1          1.6720   -3.2907   -0.4046 C.2        1 <1>        0.000
      4 C3          1.3825   -1.9489    0.1666 C.2        1 <1>        0.000
      5 N3          1.9673   -0.8791   -0.1650 N.2        1 <1>        0.000
      6 N4          2.9291   -0.7217   -1.0357 N.pl3      1 <1>        0.000
      7 C4          4.0581   -0.0542   -0.7900 C.cat      1 <1>        0.000
      8 N5          4.9345    0.2016   -1.6658 N.pl3      1 <1>        0.000
      9 N6          4.2186    0.3360    0.4773 N.pl3      1 <1>        0.000
     10 C11        -1.2153   -3.8691   -1.9765 C.cat      1 <1>        0.000
     11 N7         -2.4573   -3.6304   -2.0281 N.pl3      1 <1>        0.000
     12 N8         -0.5110   -4.0916   -3.0893 N.pl3      1 <1>        0.000
     13 H          -1.0088   -3.7665    0.0341 H.spc      1 <1>        0.000
     14 H           2.7166   -3.5834   -0.5109 H.spc      1 <1>        0.000
     15 H           0.6067   -1.8831    0.9295 H.spc      1 <1>        0.000
     16 H           2.8093   -1.1348   -1.9606 H.spc      1 <1>        0.000
     17 H           5.7788    0.7128   -1.4084 H.spc      1 <1>        0.000
     18 H           5.0572    0.8481    0.7509 H.spc      1 <1>        0.000
     19 H           3.5026    0.1219    1.1714 H.spc      1 <1>        0.000
     20 H          -2.9349   -3.6058   -2.9290 H.spc      1 <1>        0.000
     21 H          -0.9734   -4.0706   -3.9982 H.spc      1 <1>        0.000
     22 H           0.4892   -4.2825   -3.0302 H.spc      1 <1>        0.000
@<TRIPOS>BOND
     1   10   11 ar 
     2    4    5 2  
     3    7    9 ar 
     4    7    8 ar 
     5   10   12 ar 
     6    5    6 1  
     7    3    4 1  
     8    6    7 ar 
     9    2    3 2  
    10    1    2 1  
    11    1   10 ar 
    12    1   13 1  
    13    3   14 1  
    14    4   15 1  
    15    6   16 1  
    16    8   17 1  
    17    9   18 1  
    18    9   19 1  
    19   11   20 1  
    20   12   21 1  
    21   12   22 1  
# Name:          frag3-224-4/31924 -- energy: -2.141907
# Creation time: Sat Jun  5 12:52:23 2010


@<TRIPOS>MOLECULE
frag3-224-4/31924 -- energy: -2.141907
   22    21     1     1     1
SMALL
USER_CHARGES


@<TRIPOS>ATOM
      1 N1          2.8663   -1.6507   -0.7327 N.pl3      1 <1>        0.000
      2 N2          2.6437   -1.7855    0.5521 N.2        1 <1>        0.000
      3 C1          2.0754   -2.7369    1.1621 C.2        1 <1>        0.000
      4 C3          1.5482   -3.9628    0.5083 C.2        1 <1>        0.000
      5 N3          0.6268   -3.9759   -0.3596 N.2        1 <1>        0.000
      6 N4         -0.0099   -2.9599   -0.8887 N.pl3      1 <1>        0.000
      7 C4         -0.3031   -2.8721   -2.1884 C.cat      1 <1>        0.000
      8 N5         -0.8489   -1.8644   -2.7237 N.pl3      1 <1>        0.000
      9 N6          0.0250   -3.9436   -2.9175 N.pl3      1 <1>        0.000
     10 C11         2.8805   -0.4730   -1.3616 C.cat      1 <1>        0.000
     11 N7          3.0447   -0.3400   -2.6088 N.pl3      1 <1>        0.000
     12 N8          2.7088    0.5912   -0.5710 N.pl3      1 <1>        0.000
     13 H           3.0382   -2.4924   -1.2826 H.spc      1 <1>        0.000
     14 H           1.9647   -2.6515    2.2431 H.spc      1 <1>        0.000
     15 H           1.9859   -4.9185    0.7965 H.spc      1 <1>        0.000
     16 H          -0.2963   -2.1966   -0.2758 H.spc      1 <1>        0.000
     17 H          -1.0445   -1.8620   -3.7248 H.spc      1 <1>        0.000
     18 H          -0.1643   -3.9560   -3.9197 H.spc      1 <1>        0.000
     19 H           0.4646   -4.7487   -2.4716 H.spc      1 <1>        0.000
     20 H           3.0475    0.5906   -3.0265 H.spc      1 <1>        0.000
     21 H           2.7088    1.5293   -0.9714 H.spc      1 <1>        0.000
     22 H           2.5778    0.4651    0.4327 H.spc      1 <1>        0.000
@<TRIPOS>BOND
     1   10   11 ar 
     2    4    5 2  
     3    7    9 ar 
     4    7    8 ar 
     5   10   12 ar 
     6    5    6 1  
     7    3    4 1  
     8    6    7 ar 
     9    2    3 2  
    10    1    2 1  
    11    1   10 ar 
    12    1   13 1  
    13    3   14 1  
    14    4   15 1  
    15    6   16 1  
    16    8   17 1  
    17    9   18 1  
    18    9   19 1  
    19   11   20 1  
    20   12   21 1  
    21   12   22 1  
# Name:          frag3-224-4/31924 -- energy: -1.887039
# Creation time: Sat Jun  5 12:52:23 2010


@<TRIPOS>MOLECULE
frag3-224-4/31924 -- energy: -1.887039
   22    21     1     1     1
SMALL
USER_CHARGES


@<TRIPOS>ATOM
      1 N1          3.4808   -1.1537   -0.0494 N.pl3      1 <1>        0.000
      2 N2          2.4679   -1.3491    0.7614 N.2        1 <1>        0.000
      3 C1          1.6614   -2.3299    0.7269 C.2        1 <1>        0.000
      4 C3          1.8137   -3.5506   -0.1177 C.2        1 <1>        0.000
      5 N3          0.8796   -4.1224   -0.7570 N.2        1 <1>        0.000
      6 N4         -0.3457   -3.6865   -0.9164 N.pl3      1 <1>        0.000
      7 C4         -0.8518   -3.2984   -2.0876 C.cat      1 <1>        0.000
      8 N5         -2.0251   -2.8377   -2.2310 N.pl3      1 <1>        0.000
      9 N6         -0.0275   -3.4091   -3.1304 N.pl3      1 <1>        0.000
     10 C11         3.4573   -0.3461   -1.1113 C.cat      1 <1>        0.000
     11 N7          4.4483   -0.1663   -1.8833 N.pl3      1 <1>        0.000
     12 N8          2.2986    0.2760   -1.3339 N.pl3      1 <1>        0.000
     13 H           4.3476   -1.6546    0.1459 H.spc      1 <1>        0.000
     14 H           0.7826   -2.2751    1.3694 H.spc      1 <1>        0.000
     15 H           2.8099   -3.9867   -0.1912 H.spc      1 <1>        0.000
     16 H          -0.9489   -3.6413   -0.0951 H.spc      1 <1>        0.000
     17 H          -2.3493   -2.5461   -3.1531 H.spc      1 <1>        0.000
     18 H          -0.3378   -3.1215   -4.0585 H.spc      1 <1>        0.000
     19 H           0.9131   -3.7814   -2.9997 H.spc      1 <1>        0.000
     20 H           4.3638    0.4595   -2.6843 H.spc      1 <1>        0.000
     21 H           2.2021    0.9042   -2.1317 H.spc      1 <1>        0.000
     22 H           1.5091    0.1235   -0.7064 H.spc      1 <1>        0.000
@<TRIPOS>BOND
     1   10   11 ar 
     2    4    5 2  
     3    7    9 ar 
     4    7    8 ar 
     5   10   12 ar 
     6    5    6 1  
     7    3    4 1  
     8    6    7 ar 
     9    2    3 2  
    10    1    2 1  
    11    1   10 ar 
    12    1   13 1  
    13    3   14 1  
    14    4   15 1  
    15    6   16 1  
    16    8   17 1  
    17    9   18 1  
    18    9   19 1  
    19   11   20 1  
    20   12   21 1  
    21   12   22 1  
# Name:          frag3-224-4/31924 -- energy: -2.578066
# Creation time: Sat Jun  5 12:52:23 2010


@<TRIPOS>MOLECULE
frag3-224-4/31924 -- energy: -2.578066
   22    21     1     1     1
SMALL
USER_CHARGES


@<TRIPOS>ATOM
      1 N1         -0.2408   -3.8681   -0.9212 N.pl3      1 <1>        0.000
      2 N2          0.9524   -4.2930   -0.5606 N.2        1 <1>        0.000
      3 C1          1.8056   -3.6312    0.1177 C.2        1 <1>        0.000
      4 C3          1.5313   -2.3239    0.7954 C.2        1 <1>        0.000
      5 N3          1.6344   -1.1713    0.2655 N.2        1 <1>        0.000
      6 N4          2.1006   -0.9000   -0.9327 N.pl3      1 <1>        0.000
      7 C4          3.3164   -0.4181   -1.1826 C.cat      1 <1>        0.000
      8 N5          3.7850   -0.2352   -2.3482 N.pl3      1 <1>        0.000
      9 N6          4.0508   -0.1487   -0.1019 N.pl3      1 <1>        0.000
     10 C11        -0.5204   -3.2089   -2.0482 C.cat      1 <1>        0.000
     11 N7         -1.6854   -2.8266   -2.3794 N.pl3      1 <1>        0.000
     12 N8          0.5276   -2.9487   -2.8335 N.pl3      1 <1>        0.000
     13 H          -1.0162   -4.0585   -0.2865 H.spc      1 <1>        0.000
     14 H           2.8086   -4.0476    0.2112 H.spc      1 <1>        0.000
     15 H           1.2144   -2.3633    1.8376 H.spc      1 <1>        0.000
     16 H           1.4866   -1.0710   -1.7291 H.spc      1 <1>        0.000
     17 H           4.7332    0.1216   -2.4665 H.spc      1 <1>        0.000
     18 H           5.0004    0.2086   -0.2067 H.spc      1 <1>        0.000
     19 H           3.6627   -0.3000    0.8292 H.spc      1 <1>        0.000
     20 H          -1.8261   -2.3164   -3.2514 H.spc      1 <1>        0.000
     21 H           0.3961   -2.4391   -3.7072 H.spc      1 <1>        0.000
     22 H           1.4597   -3.2595   -2.5597 H.spc      1 <1>        0.000
@<TRIPOS>BOND
     1   10   11 ar 
     2    4    5 2  
     3    7    9 ar 
     4    7    8 ar 
     5   10   12 ar 
     6    5    6 1  
     7    3    4 1  
     8    6    7 ar 
     9    2    3 2  
    10    1    2 1  
    11    1   10 ar 
    12    1   13 1  
    13    3   14 1  
    14    4   15 1  
    15    6   16 1  
    16    8   17 1  
    17    9   18 1  
    18    9   19 1  
    19   11   20 1  
    20   12   21 1  
    21   12   22 1  
# Name:          frag3-224-4/31924 -- energy: -1.734776
# Creation time: Sat Jun  5 12:52:23 2010


@<TRIPOS>MOLECULE
frag3-224-4/31924 -- energy: -1.734776
   22    21     1     1     1
SMALL
USER_CHARGES


@<TRIPOS>ATOM
      1 N1          2.5884   -0.1111   -0.6428 N.pl3      1 <1>        0.000
      2 N2          1.7616   -0.6267    0.2458 N.2        1 <1>        0.000
      3 C1          1.4677   -1.8670    0.3339 C.2        1 <1>        0.000
      4 C3          1.8476   -2.9170   -0.6636 C.2        1 <1>        0.000
      5 N3          1.0643   -3.3706   -1.5498 N.2        1 <1>        0.000
      6 N4         -0.1915   -3.0604   -1.7576 N.pl3      1 <1>        0.000
      7 C4         -1.1505   -3.9572   -1.9758 C.cat      1 <1>        0.000
      8 N5         -2.3564   -3.6596   -2.2284 N.pl3      1 <1>        0.000
      9 N6         -0.7594   -5.2306   -1.9001 N.pl3      1 <1>        0.000
     10 C11         3.9101   -0.2981   -0.6910 C.cat      1 <1>        0.000
     11 N7          4.6653    0.1734   -1.5941 N.pl3      1 <1>        0.000
     12 N8          4.4104   -1.0487    0.2939 N.pl3      1 <1>        0.000
     13 H           2.1801    0.4870   -1.3611 H.spc      1 <1>        0.000
     14 H           0.8948   -2.1861    1.2046 H.spc      1 <1>        0.000
     15 H           2.8612   -3.3159   -0.6248 H.spc      1 <1>        0.000
     16 H          -0.4495   -2.0736   -1.7518 H.spc      1 <1>        0.000
     17 H          -3.0436   -4.3985   -2.3772 H.spc      1 <1>        0.000
     18 H          -1.4346   -5.9810   -2.0464 H.spc      1 <1>        0.000
     19 H           0.2148   -5.4536   -1.6960 H.spc      1 <1>        0.000
     20 H           5.6667   -0.0193   -1.5734 H.spc      1 <1>        0.000
     21 H           5.4102   -1.2484    0.3254 H.spc      1 <1>        0.000
     22 H           3.7927   -1.4223    1.0145 H.spc      1 <1>        0.000
@<TRIPOS>BOND
     1   10   11 ar 
     2    4    5 2  
     3    7    9 ar 
     4    7    8 ar 
     5   10   12 ar 
     6    5    6 1  
     7    3    4 1  
     8    6    7 ar 
     9    2    3 2  
    10    1    2 1  
    11    1   10 ar 
    12    1   13 1  
    13    3   14 1  
    14    4   15 1  
    15    6   16 1  
    16    8   17 1  
    17    9   18 1  
    18    9   19 1  
    19   11   20 1  
    20   12   21 1  
    21   12   22 1  
# Name:          frag3-224-4/31924 -- energy: -2.123359
# Creation time: Sat Jun  5 12:52:23 2010


@<TRIPOS>MOLECULE
frag3-224-4/31924 -- energy: -2.123359
   22    21     1     1     1
SMALL
USER_CHARGES


@<TRIPOS>ATOM
      1 N1          2.4171   -0.2535   -1.0638 N.pl3      1 <1>        0.000
      2 N2          1.4557   -0.6052   -0.2323 N.2        1 <1>        0.000
      3 C1          1.2183   -1.8095    0.1291 C.2        1 <1>        0.000
      4 C3          1.8362   -3.0694   -0.4468 C.2        1 <1>        0.000
      5 N3          1.2010   -4.1295   -0.7747 N.2        1 <1>        0.000
      6 N4         -0.1111   -4.2025   -0.8744 N.pl3      1 <1>        0.000
      7 C4         -0.8651   -3.6995   -1.8558 C.cat      1 <1>        0.000
      8 N5         -2.1362   -3.6671   -1.8374 N.pl3      1 <1>        0.000
      9 N6         -0.1888   -3.1937   -2.8873 N.pl3      1 <1>        0.000
     10 C11         3.7322   -0.3793   -0.8694 C.cat      1 <1>        0.000
     11 N7          4.6186   -0.0331   -1.7121 N.pl3      1 <1>        0.000
     12 N8          4.0794   -0.9315    0.2952 N.pl3      1 <1>        0.000
     13 H           2.1249    0.1586   -1.9499 H.spc      1 <1>        0.000
     14 H           0.4967   -1.9441    0.9349 H.spc      1 <1>        0.000
     15 H           2.9162   -3.0712   -0.5940 H.spc      1 <1>        0.000
     16 H          -0.6008   -4.6930   -0.1260 H.spc      1 <1>        0.000
     17 H          -2.6471   -3.2515   -2.6163 H.spc      1 <1>        0.000
     18 H          -0.6909   -2.7761   -3.6708 H.spc      1 <1>        0.000
     19 H           0.8307   -3.2243   -2.8930 H.spc      1 <1>        0.000
     20 H           5.6063   -0.1764   -1.5014 H.spc      1 <1>        0.000
     21 H           5.0642   -1.0793    0.5161 H.spc      1 <1>        0.000
     22 H           3.3599   -1.2056    0.9643 H.spc      1 <1>        0.000
@<TRIPOS>BOND
     1   10   11 ar 
     2    4    5 2  
     3    7    9 ar 
     4    7    8 ar 
     5   10   12 ar 
     6    5    6 1  
     7    3    4 1  
     8    6    7 ar 
     9    2    3 2  
    10    1    2 1  
    11    1   10 ar 
    12    1   13 1  
    13    3   14 1  
    14    4   15 1  
    15    6   16 1  
    16    8   17 1  
    17    9   18 1  
    18    9   19 1  
    19   11   20 1  
    20   12   21 1  
    21   12   22 1  
# Name:          frag3-224-4/31924 -- energy: -2.089246
# Creation time: Sat Jun  5 12:52:23 2010


@<TRIPOS>MOLECULE
frag3-224-4/31924 -- energy: -2.089246
   22    21     1     1     1
SMALL
USER_CHARGES


@<TRIPOS>ATOM
      1 N1          2.2096   -1.0732   -0.7744 N.pl3      1 <1>        0.000
      2 N2          1.9939   -1.2879    0.5012 N.2        1 <1>        0.000
      3 C1          1.7761   -2.3921    1.0816 C.2        1 <1>        0.000
      4 C3          1.6795   -3.7060    0.3906 C.2        1 <1>        0.000
      5 N3          0.7886   -3.9899   -0.4620 N.2        1 <1>        0.000
      6 N4         -0.1569   -3.2190   -0.9390 N.pl3      1 <1>        0.000
      7 C4         -0.5334   -3.2315   -2.2191 C.cat      1 <1>        0.000
      8 N5         -1.3896   -2.4401   -2.7074 N.pl3      1 <1>        0.000
      9 N6          0.0725   -4.1445   -2.9824 N.pl3      1 <1>        0.000
     10 C11         3.2506   -0.3811   -1.2394 C.cat      1 <1>        0.000
     11 N7          3.3224    0.0808   -2.4141 N.pl3      1 <1>        0.000
     12 N8          4.2441   -0.1892   -0.3653 N.pl3      1 <1>        0.000
     13 H           1.5455   -1.4561   -1.4472 H.spc      1 <1>        0.000
     14 H           1.6505   -2.3789    2.1643 H.spc      1 <1>        0.000
     15 H           2.4195   -4.4688    0.6329 H.spc      1 <1>        0.000
     16 H          -0.6283   -2.5779   -0.3009 H.spc      1 <1>        0.000
     17 H          -1.6267   -2.4932   -3.6980 H.spc      1 <1>        0.000
     18 H          -0.1534   -4.2106   -3.9749 H.spc      1 <1>        0.000
     19 H           0.7612   -4.7757   -2.5729 H.spc      1 <1>        0.000
     20 H           4.1458    0.6075   -2.7055 H.spc      1 <1>        0.000
     21 H           5.0735    0.3356   -0.6430 H.spc      1 <1>        0.000
     22 H           4.1726   -0.5676    0.5792 H.spc      1 <1>        0.000
@<TRIPOS>BOND
     1   10   11 ar 
     2    4    5 2  
     3    7    9 ar 
     4    7    8 ar 
     5   10   12 ar 
     6    5    6 1  
     7    3    4 1  
     8    6    7 ar 
     9    2    3 2  
    10    1    2 1  
    11    1   10 ar 
    12    1   13 1  
    13    3   14 1  
    14    4   15 1  
    15    6   16 1  
    16    8   17 1  
    17    9   18 1  
    18    9   19 1  
    19   11   20 1  
    20   12   21 1  
    21   12   22 1  
# Name:          frag3-224-4/31924 -- energy: -2.093186
# Creation time: Sat Jun  5 12:52:23 2010


@<TRIPOS>MOLECULE
frag3-224-4/31924 -- energy: -2.093186
   22    21     1     1     1
SMALL
USER_CHARGES


@<TRIPOS>ATOM
      1 N1          2.9646   -0.8659    0.3332 N.pl3      1 <1>        0.000
      2 N2          1.6846   -0.7732    0.0277 N.2        1 <1>        0.000
      3 C1          1.1088   -1.4349   -0.9028 C.2        1 <1>        0.000
      4 C3          1.6987   -2.6348   -1.6090 C.2        1 <1>        0.000
      5 N3          1.2586   -3.8324   -1.5191 N.2        1 <1>        0.000
      6 N4          0.0826   -4.1608   -1.0201 N.pl3      1 <1>        0.000
      7 C4         -1.1005   -3.9865   -1.6144 C.cat      1 <1>        0.000
      8 N5         -2.2218   -4.2320   -1.0708 N.pl3      1 <1>        0.000
      9 N6         -1.0374   -3.4920   -2.8530 N.pl3      1 <1>        0.000
     10 C11         3.9828   -0.3611   -0.3685 C.cat      1 <1>        0.000
     11 N7          5.2054   -0.4749   -0.0441 N.pl3      1 <1>        0.000
     12 N8          3.6310    0.2746   -1.4889 N.pl3      1 <1>        0.000
     13 H           3.1992   -1.3717    1.1873 H.spc      1 <1>        0.000
     14 H           0.1155   -1.1086   -1.2109 H.spc      1 <1>        0.000
     15 H           2.5677   -2.4658   -2.2450 H.spc      1 <1>        0.000
     16 H           0.0763   -4.5878   -0.0938 H.spc      1 <1>        0.000
     17 H          -3.0864   -4.0515   -1.5810 H.spc      1 <1>        0.000
     18 H          -1.8954   -3.3075   -3.3728 H.spc      1 <1>        0.000
     19 H          -0.1312   -3.2987   -3.2794 H.spc      1 <1>        0.000
     20 H           5.9307   -0.0785   -0.6418 H.spc      1 <1>        0.000
     21 H           4.3474    0.6750   -2.0945 H.spc      1 <1>        0.000
     22 H           2.6458    0.3597   -1.7391 H.spc      1 <1>        0.000
@<TRIPOS>BOND
     1   10   11 ar 
     2    4    5 2  
     3    7    9 ar 
     4    7    8 ar 
     5   10   12 ar 
     6    5    6 1  
     7    3    4 1  
     8    6    7 ar 
     9    2    3 2  
    10    1    2 1  
    11    1   10 ar 
    12    1   13 1  
    13    3   14 1  
    14    4   15 1  
    15    6   16 1  
    16    8   17 1  
    17    9   18 1  
    18    9   19 1  
    19   11   20 1  
    20   12   21 1  
    21   12   22 1  
# Name:          frag3-224-4/31924 -- energy: -2.871135
# Creation time: Sat Jun  5 12:52:23 2010


@<TRIPOS>MOLECULE
frag3-224-4/31924 -- energy: -2.871135
   22    21     1     1     1
SMALL
USER_CHARGES


@<TRIPOS>ATOM
      1 N1          2.0743   -1.2467   -0.4073 N.pl3      1 <1>        0.000
      2 N2          2.7703   -2.2014    0.1600 N.2        1 <1>        0.000
      3 C1          2.3676   -3.2525    0.7381 C.2        1 <1>        0.000
      4 C3          0.9412   -3.6667    0.8459 C.2        1 <1>        0.000
      5 N3          0.1785   -3.9516   -0.1336 N.2        1 <1>        0.000
      6 N4          0.4763   -3.8699   -1.4144 N.pl3      1 <1>        0.000
      7 C4          0.1707   -2.8465   -2.2190 C.cat      1 <1>        0.000
      8 N5          0.5217   -2.7676   -3.4362 N.pl3      1 <1>        0.000
      9 N6         -0.5456   -1.8758   -1.6417 N.pl3      1 <1>        0.000
     10 C11         2.5617   -0.3616   -1.2738 C.cat      1 <1>        0.000
     11 N7          1.8644    0.5171   -1.8681 N.pl3      1 <1>        0.000
     12 N8          3.8764   -0.4503   -1.4795 N.pl3      1 <1>        0.000
     13 H           1.0855   -1.1767   -0.1669 H.spc      1 <1>        0.000
     14 H           3.1184   -3.9011    1.1894 H.spc      1 <1>        0.000
     15 H           0.5142   -3.7315    1.8467 H.spc      1 <1>        0.000
     16 H           0.9826   -4.6533   -1.8270 H.spc      1 <1>        0.000
     17 H           0.2576   -1.9537   -3.9914 H.spc      1 <1>        0.000
     18 H          -0.8191   -1.0543   -2.1809 H.spc      1 <1>        0.000
     19 H          -0.8184   -1.9570   -0.6622 H.spc      1 <1>        0.000
     20 H           2.3086    1.1692   -2.5145 H.spc      1 <1>        0.000
     21 H           4.3366    0.1939   -2.1226 H.spc      1 <1>        0.000
     22 H           4.4217   -1.1624   -0.9937 H.spc      1 <1>        0.000
@<TRIPOS>BOND
     1   10   11 ar 
     2    4    5 2  
     3    7    9 ar 
     4    7    8 ar 
     5   10   12 ar 
     6    5    6 1  
     7    3    4 1  
     8    6    7 ar 
     9    2    3 2  
    10    1    2 1  
    11    1   10 ar 
    12    1   13 1  
    13    3   14 1  
    14    4   15 1  
    15    6   16 1  
    16    8   17 1  
    17    9   18 1  
    18    9   19 1  
    19   11   20 1  
    20   12   21 1  
    21   12   22 1  
# Name:          frag3-224-4/31924 -- energy: -2.324966
# Creation time: Sat Jun  5 12:52:23 2010


@<TRIPOS>MOLECULE
frag3-224-4/31924 -- energy: -2.324966
   22    21     1     1     1
SMALL
USER_CHARGES


@<TRIPOS>ATOM
      1 N1          2.6123   -1.1353   -1.2211 N.pl3      1 <1>        0.000
      2 N2          2.8229   -2.3772   -0.8549 N.2        1 <1>        0.000
      3 C1          2.1387   -3.0645   -0.0346 C.2        1 <1>        0.000
      4 C3          0.8303   -2.6493    0.5671 C.2        1 <1>        0.000
      5 N3         -0.3136   -3.1021    0.2235 N.2        1 <1>        0.000
      6 N4         -0.5304   -3.9048   -0.8004 N.pl3      1 <1>        0.000
      7 C4         -0.5118   -3.5717   -2.0945 C.cat      1 <1>        0.000
      8 N5         -0.6772   -4.3974   -3.0459 N.pl3      1 <1>        0.000
      9 N6         -0.2966   -2.2785   -2.3425 N.pl3      1 <1>        0.000
     10 C11         3.4353   -0.1231   -0.9577 C.cat      1 <1>        0.000
     11 N7          3.2332    1.0740   -1.3263 N.pl3      1 <1>        0.000
     12 N8          4.5143   -0.4439   -0.2424 N.pl3      1 <1>        0.000
     13 H           1.7600   -0.9316   -1.7431 H.spc      1 <1>        0.000
     14 H           2.5361   -4.0370    0.2559 H.spc      1 <1>        0.000
     15 H           0.8570   -1.9022    1.3603 H.spc      1 <1>        0.000
     16 H          -0.7331   -4.8803   -0.5820 H.spc      1 <1>        0.000
     17 H          -0.6462   -4.0742   -4.0128 H.spc      1 <1>        0.000
     18 H          -0.2633   -1.9424   -3.3050 H.spc      1 <1>        0.000
     19 H          -0.1654   -1.6259   -1.5696 H.spc      1 <1>        0.000
     20 H           3.8999    1.8042   -1.0759 H.spc      1 <1>        0.000
     21 H           5.1887    0.2769    0.0145 H.spc      1 <1>        0.000
     22 H           4.6651   -1.4101    0.0477 H.spc      1 <1>        0.000
@<TRIPOS>BOND
     1   10   11 ar 
     2    4    5 2  
     3    7    9 ar 
     4    7    8 ar 
     5   10   12 ar 
     6    5    6 1  
     7    3    4 1  
     8    6    7 ar 
     9    2    3 2  
    10    1    2 1  
    11    1   10 ar 
    12    1   13 1  
    13    3   14 1  
    14    4   15 1  
    15    6   16 1  
    16    8   17 1  
    17    9   18 1  
    18    9   19 1  
    19   11   20 1  
    20   12   21 1  
    21   12   22 1  
# Name:          frag3-224-4/31924 -- energy: -2.910830
# Creation time: Sat Jun  5 12:52:23 2010


@<TRIPOS>MOLECULE
frag3-224-4/31924 -- energy: -2.910830
   22    21     1     1     1
SMALL
USER_CHARGES


@<TRIPOS>ATOM
      1 N1          2.6490   -1.6860   -1.3435 N.pl3      1 <1>        0.000
      2 N2          3.0619   -2.6617   -0.5592 N.2        1 <1>        0.000
      3 C1          2.4454   -3.1084    0.4644 C.2        1 <1>        0.000
      4 C3          1.0298   -2.7890    0.8412 C.2        1 <1>        0.000
      5 N3          0.0051   -3.1380    0.1699 N.2        1 <1>        0.000
      6 N4         -0.0042   -3.7610   -0.9892 N.pl3      1 <1>        0.000
      7 C4         -0.2395   -3.1878   -2.1708 C.cat      1 <1>        0.000
      8 N5         -0.2159   -3.8040   -3.2808 N.pl3      1 <1>        0.000
      9 N6         -0.4871   -1.8786   -2.1252 N.pl3      1 <1>        0.000
     10 C11         2.9005   -0.3903   -1.1539 C.cat      1 <1>        0.000
     11 N7          2.5000    0.5380   -1.9225 N.pl3      1 <1>        0.000
     12 N8          3.6124   -0.1069   -0.0600 N.pl3      1 <1>        0.000
     13 H           2.0934   -1.9423   -2.1596 H.spc      1 <1>        0.000
     14 H           2.9957   -3.7809    1.1224 H.spc      1 <1>        0.000
     15 H           0.8658   -2.2174    1.7547 H.spc      1 <1>        0.000
     16 H           0.1837   -4.7635   -0.9839 H.spc      1 <1>        0.000
     17 H          -0.3874   -3.2972   -4.1492 H.spc      1 <1>        0.000
     18 H          -0.6600   -1.3619   -2.9875 H.spc      1 <1>        0.000
     19 H          -0.5037   -1.3936   -1.2280 H.spc      1 <1>        0.000
     20 H           2.7215    1.5100   -1.7067 H.spc      1 <1>        0.000
     21 H           3.8389    0.8620    0.1643 H.spc      1 <1>        0.000
     22 H           3.9296   -0.8594    0.5512 H.spc      1 <1>        0.000
@<TRIPOS>BOND
     1   10   11 ar 
     2    4    5 2  
     3    7    9 ar 
     4    7    8 ar 
     5   10   12 ar 
     6    5    6 1  
     7    3    4 1  
     8    6    7 ar 
     9    2    3 2  
    10    1    2 1  
    11    1   10 ar 
    12    1   13 1  
    13    3   14 1  
    14    4   15 1  
    15    6   16 1  
    16    8   17 1  
    17    9   18 1  
    18    9   19 1  
    19   11   20 1  
    20   12   21 1  
    21   12   22 1  
# Name:          frag3-224-4/31924 -- energy: -1.923364
# Creation time: Sat Jun  5 12:52:23 2010


@<TRIPOS>MOLECULE
frag3-224-4/31924 -- energy: -1.923364
   22    21     1     1     1
SMALL
USER_CHARGES


@<TRIPOS>ATOM
      1 N1         -0.3053   -2.6205   -1.3957 N.pl3      1 <1>        0.000
      2 N2         -0.0926   -2.6813   -0.1008 N.2        1 <1>        0.000
      3 C1          1.0060   -3.0349    0.4613 C.2        1 <1>        0.000
      4 C3          2.2969   -3.2084   -0.2504 C.2        1 <1>        0.000
      5 N3          2.9101   -2.2569   -0.8475 N.2        1 <1>        0.000
      6 N4          2.5971   -0.9898   -0.8752 N.pl3      1 <1>        0.000
      7 C4          3.4943   -0.0064   -0.7423 C.cat      1 <1>        0.000
      8 N5          3.2060    1.2200   -0.7589 N.pl3      1 <1>        0.000
      9 N6          4.7519   -0.4199   -0.5710 N.pl3      1 <1>        0.000
     10 C11        -0.7357   -3.6361   -2.1551 C.cat      1 <1>        0.000
     11 N7         -0.9507   -3.5539   -3.3948 N.pl3      1 <1>        0.000
     12 N8         -0.9206   -4.7856   -1.4992 N.pl3      1 <1>        0.000
     13 H          -0.1287   -1.7293   -1.8594 H.spc      1 <1>        0.000
     14 H           0.9897   -3.2205    1.5353 H.spc      1 <1>        0.000
     15 H           2.7474   -4.2008   -0.2653 H.spc      1 <1>        0.000
     16 H           1.6176   -0.7364   -1.0049 H.spc      1 <1>        0.000
     17 H           3.9401    1.9181   -0.6401 H.spc      1 <1>        0.000
     18 H           5.5010    0.2618   -0.4504 H.spc      1 <1>        0.000
     19 H           4.9638   -1.4176   -0.5607 H.spc      1 <1>        0.000
     20 H          -1.2708   -4.3725   -3.9123 H.spc      1 <1>        0.000
     21 H          -1.2403   -5.6137   -2.0016 H.spc      1 <1>        0.000
     22 H          -0.7420   -4.8349   -0.4962 H.spc      1 <1>        0.000
@<TRIPOS>BOND
     1   10   11 ar 
     2    4    5 2  
     3    7    9 ar 
     4    7    8 ar 
     5   10   12 ar 
     6    5    6 1  
     7    3    4 1  
     8    6    7 ar 
     9    2    3 2  
    10    1    2 1  
    11    1   10 ar 
    12    1   13 1  
    13    3   14 1  
    14    4   15 1  
    15    6   16 1  
    16    8   17 1  
    17    9   18 1  
    18    9   19 1  
    19   11   20 1  
    20   12   21 1  
    21   12   22 1  
# Name:          frag3-224-4/31924 -- energy: -2.130881
# Creation time: Sat Jun  5 12:52:23 2010


@<TRIPOS>MOLECULE
frag3-224-4/31924 -- energy: -2.130881
   22    21     1     1     1
SMALL
USER_CHARGES


@<TRIPOS>ATOM
      1 N1          2.1867   -0.4373   -0.2405 N.pl3      1 <1>        0.000
      2 N2          1.9442   -1.2092    0.8033 N.2        1 <1>        0.000
      3 C1          2.0735   -2.4841    0.8074 C.2        1 <1>        0.000
      4 C3          2.2105   -3.3409   -0.4162 C.2        1 <1>        0.000
      5 N3          1.2692   -3.5337   -1.2447 N.2        1 <1>        0.000
      6 N4          0.0494   -3.0506   -1.2551 N.pl3      1 <1>        0.000
      7 C4         -0.9224   -3.4443   -2.0824 C.cat      1 <1>        0.000
      8 N5         -2.0876   -2.9527   -2.1023 N.pl3      1 <1>        0.000
      9 N6         -0.5723   -4.4273   -2.9164 N.pl3      1 <1>        0.000
     10 C11         3.3375   -0.3897   -0.9282 C.cat      1 <1>        0.000
     11 N7          4.3392   -1.0892   -0.5620 N.pl3      1 <1>        0.000
     12 N8          3.4296    0.3854   -1.9927 N.pl3      1 <1>        0.000
     13 H           1.4332    0.1762   -0.5508 H.spc      1 <1>        0.000
     14 H           2.0848   -2.9850    1.7754 H.spc      1 <1>        0.000
     15 H           3.1697   -3.8235   -0.6035 H.spc      1 <1>        0.000
     16 H          -0.1736   -2.3190   -0.5803 H.spc      1 <1>        0.000
     17 H          -2.7792   -3.3065   -2.7633 H.spc      1 <1>        0.000
     18 H          -1.2497   -4.7946   -3.5847 H.spc      1 <1>        0.000
     19 H           0.3724   -4.8106   -2.8849 H.spc      1 <1>        0.000
     20 H           5.2101   -1.0492   -1.0915 H.spc      1 <1>        0.000
     21 H           4.3011    0.4244   -2.5213 H.spc      1 <1>        0.000
     22 H           2.6293    0.9453   -2.2867 H.spc      1 <1>        0.000
@<TRIPOS>BOND
     1   10   11 ar 
     2    4    5 2  
     3    7    9 ar 
     4    7    8 ar 
     5   10   12 ar 
     6    5    6 1  
     7    3    4 1  
     8    6    7 ar 
     9    2    3 2  
    10    1    2 1  
    11    1   10 ar 
    12    1   13 1  
    13    3   14 1  
    14    4   15 1  
    15    6   16 1  
    16    8   17 1  
    17    9   18 1  
    18    9   19 1  
    19   11   20 1  
    20   12   21 1  
    21   12   22 1  
# Name:          frag3-224-4/31924 -- energy: -2.507065
# Creation time: Sat Jun  5 12:52:23 2010


@<TRIPOS>MOLECULE
frag3-224-4/31924 -- energy: -2.507065
   22    21     1     1     1
SMALL
USER_CHARGES


@<TRIPOS>ATOM
      1 N1          2.4618   -1.0742   -0.3777 N.pl3      1 <1>        0.000
      2 N2          2.5536   -2.3207    0.0283 N.2        1 <1>        0.000
      3 C1          1.6581   -3.0765    0.5182 C.2        1 <1>        0.000
      4 C3          0.2266   -2.6540    0.7130 C.2        1 <1>        0.000
      5 N3         -0.5369   -2.1766   -0.2026 N.2        1 <1>        0.000
      6 N4         -0.2967   -2.2975   -1.4986 N.pl3      1 <1>        0.000
      7 C4         -0.0173   -3.4516   -2.1251 C.cat      1 <1>        0.000
      8 N5         -0.1986   -4.5667   -1.5323 N.pl3      1 <1>        0.000
      9 N6          0.4794   -3.4277   -3.3475 N.pl3      1 <1>        0.000
     10 C11         3.3347   -0.4580   -1.1776 C.cat      1 <1>        0.000
     11 N7          3.2137    0.7349   -1.5854 N.pl3      1 <1>        0.000
     12 N8          4.3791   -1.2050   -1.5424 N.pl3      1 <1>        0.000
     13 H           1.6587   -0.5341   -0.0556 H.spc      1 <1>        0.000
     14 H           1.9418   -4.0866    0.8138 H.spc      1 <1>        0.000
     15 H          -0.1961   -2.7620    1.7119 H.spc      1 <1>        0.000
     16 H          -0.3261   -1.4493   -2.0644 H.spc      1 <1>        0.000
     17 H           0.0403   -5.4394   -2.0032 H.spc      1 <1>        0.000
     18 H           0.7182   -4.3006   -3.8181 H.spc      1 <1>        0.000
     19 H           0.6245   -2.5364   -3.8217 H.spc      1 <1>        0.000
     20 H           3.9201    1.1374   -2.2014 H.spc      1 <1>        0.000
     21 H           5.0937   -0.8166   -2.1579 H.spc      1 <1>        0.000
     22 H           4.4625   -2.1642   -1.2056 H.spc      1 <1>        0.000
@<TRIPOS>BOND
     1   10   11 ar 
     2    4    5 2  
     3    7    9 ar 
     4    7    8 ar 
     5   10   12 ar 
     6    5    6 1  
     7    3    4 1  
     8    6    7 ar 
     9    2    3 2  
    10    1    2 1  
    11    1   10 ar 
    12    1   13 1  
    13    3   14 1  
    14    4   15 1  
    15    6   16 1  
    16    8   17 1  
    17    9   18 1  
    18    9   19 1  
    19   11   20 1  
    20   12   21 1  
    21   12   22 1  
# Name:          frag3-224-4/31924 -- energy: -1.771003
# Creation time: Sat Jun  5 12:52:23 2010


@<TRIPOS>MOLECULE
frag3-224-4/31924 -- energy: -1.771003
   22    21     1     1     1
SMALL
USER_CHARGES


@<TRIPOS>ATOM
      1 N1          2.1787   -0.3370   -0.7661 N.pl3      1 <1>        0.000
      2 N2          1.5808   -0.7418    0.3405 N.2        1 <1>        0.000
      3 C1          1.5220   -1.9606    0.7284 C.2        1 <1>        0.000
      4 C3          1.9294   -3.1757   -0.0604 C.2        1 <1>        0.000
      5 N3          1.1253   -3.9322   -0.6912 N.2        1 <1>        0.000
      6 N4         -0.1595   -3.7334   -0.8821 N.pl3      1 <1>        0.000
      7 C4         -0.7274   -3.5223   -2.0697 C.cat      1 <1>        0.000
      8 N5         -1.9460   -3.2034   -2.2310 N.pl3      1 <1>        0.000
      9 N6          0.0849   -3.6543   -3.1188 N.pl3      1 <1>        0.000
     10 C11         3.4691   -0.4932   -1.0749 C.cat      1 <1>        0.000
     11 N7          3.9890   -0.1562   -2.1832 N.pl3      1 <1>        0.000
     12 N8          4.2113   -1.0635   -0.1213 N.pl3      1 <1>        0.000
     13 H           1.5970    0.1426   -1.4531 H.spc      1 <1>        0.000
     14 H           1.1374   -2.1361    1.7331 H.spc      1 <1>        0.000
     15 H           2.9899   -3.4252   -0.0934 H.spc      1 <1>        0.000
     16 H          -0.7663   -3.7412   -0.0623 H.spc      1 <1>        0.000
     17 H          -2.3119   -3.0456   -3.1699 H.spc      1 <1>        0.000
     18 H          -0.2709   -3.4988   -4.0620 H.spc      1 <1>        0.000
     19 H           1.0620   -3.9108   -2.9781 H.spc      1 <1>        0.000
     20 H           4.9815   -0.3202   -2.3518 H.spc      1 <1>        0.000
     21 H           5.2047   -1.2316   -0.2804 H.spc      1 <1>        0.000
     22 H           3.7845   -1.3307    0.7657 H.spc      1 <1>        0.000
@<TRIPOS>BOND
     1   10   11 ar 
     2    4    5 2  
     3    7    9 ar 
     4    7    8 ar 
     5   10   12 ar 
     6    5    6 1  
     7    3    4 1  
     8    6    7 ar 
     9    2    3 2  
    10    1    2 1  
    11    1   10 ar 
    12    1   13 1  
    13    3   14 1  
    14    4   15 1  
    15    6   16 1  
    16    8   17 1  
    17    9   18 1  
    18    9   19 1  
    19   11   20 1  
    20   12   21 1  
    21   12   22 1  
# Name:          frag3-224-4/31924 -- energy: -3.164561
# Creation time: Sat Jun  5 12:52:23 2010


@<TRIPOS>MOLECULE
frag3-224-4/31924 -- energy: -3.164561
   22    21     1     1     1
SMALL
USER_CHARGES


@<TRIPOS>ATOM
      1 N1          3.3430   -1.2342   -0.3040 N.pl3      1 <1>        0.000
      2 N2          2.8014   -1.4431    0.8812 N.2        1 <1>        0.000
      3 C1          2.0762   -2.4468    1.1900 C.2        1 <1>        0.000
      4 C3          1.8782   -3.6742    0.3632 C.2        1 <1>        0.000
      5 N3          0.9550   -3.8414   -0.4885 N.2        1 <1>        0.000
      6 N4          0.0336   -2.9964   -0.8835 N.pl3      1 <1>        0.000
      7 C4         -0.3312   -2.8216   -2.1544 C.cat      1 <1>        0.000
      8 N5         -1.2058   -1.9816   -2.5337 N.pl3      1 <1>        0.000
      9 N6          0.3044   -3.5932   -3.0355 N.pl3      1 <1>        0.000
     10 C11         2.7129   -0.7932   -1.3984 C.cat      1 <1>        0.000
     11 N7          3.2745   -0.6078   -2.5232 N.pl3      1 <1>        0.000
     12 N8          1.4153   -0.5401   -1.2428 N.pl3      1 <1>        0.000
     13 H           4.3403   -1.4281   -0.3944 H.spc      1 <1>        0.000
     14 H           1.5532   -2.4041    2.1454 H.spc      1 <1>        0.000
     15 H           2.5847   -4.4923    0.5035 H.spc      1 <1>        0.000
     16 H          -0.4351   -2.4357   -0.1719 H.spc      1 <1>        0.000
     17 H          -1.4299   -1.8909   -3.5246 H.spc      1 <1>        0.000
     18 H           0.0912   -3.5141   -4.0298 H.spc      1 <1>        0.000
     19 H           1.0041   -4.2629   -2.7156 H.spc      1 <1>        0.000
     20 H           2.7306   -0.2629   -3.3141 H.spc      1 <1>        0.000
     21 H           0.8651   -0.1950   -2.0293 H.spc      1 <1>        0.000
     22 H           0.9712   -0.6913   -0.3371 H.spc      1 <1>        0.000
@<TRIPOS>BOND
     1   10   11 ar 
     2    4    5 2  
     3    7    9 ar 
     4    7    8 ar 
     5   10   12 ar 
     6    5    6 1  
     7    3    4 1  
     8    6    7 ar 
     9    2    3 2  
    10    1    2 1  
    11    1   10 ar 
    12    1   13 1  
    13    3   14 1  
    14    4   15 1  
    15    6   16 1  
    16    8   17 1  
    17    9   18 1  
    18    9   19 1  
    19   11   20 1  
    20   12   21 1  
    21   12   22 1  
# Name:          frag3-224-4/31924 -- energy: -1.449436
# Creation time: Sat Jun  5 12:52:23 2010


@<TRIPOS>MOLECULE
frag3-224-4/31924 -- energy: -1.449436
   22    21     1     1     1
SMALL
USER_CHARGES


@<TRIPOS>ATOM
      1 N1          3.0210   -0.5186   -0.3909 N.pl3      1 <1>        0.000
      2 N2          3.0718   -1.8236   -0.3212 N.2        1 <1>        0.000
      3 C1          2.1341   -2.6572   -0.1926 C.2        1 <1>        0.000
      4 C3          0.7132   -2.2777   -0.0810 C.2        1 <1>        0.000
      5 N3         -0.2196   -2.8640   -0.6936 N.2        1 <1>        0.000
      6 N4         -0.1701   -3.9037   -1.4859 N.pl3      1 <1>        0.000
      7 C4         -1.1955   -4.3541   -2.2072 C.cat      1 <1>        0.000
      8 N5         -1.1645   -5.4200   -2.8985 N.pl3      1 <1>        0.000
      9 N6         -2.2904   -3.5986   -2.1518 N.pl3      1 <1>        0.000
     10 C11         4.0852    0.2670   -0.5433 C.cat      1 <1>        0.000
     11 N7          4.1159    1.2727   -1.3191 N.pl3      1 <1>        0.000
     12 N8          5.1565   -0.0959    0.1554 N.pl3      1 <1>        0.000
     13 H           2.1058   -0.0733   -0.3241 H.spc      1 <1>        0.000
     14 H           2.3878   -3.7168   -0.1623 H.spc      1 <1>        0.000
     15 H           0.4547   -1.4417    0.5689 H.spc      1 <1>        0.000
     16 H           0.7156   -4.4046   -1.5563 H.spc      1 <1>        0.000
     17 H          -1.9886   -5.7109   -3.4244 H.spc      1 <1>        0.000
     18 H          -3.1252   -3.8717   -2.6703 H.spc      1 <1>        0.000
     19 H          -2.2944   -2.7467   -1.5909 H.spc      1 <1>        0.000
     20 H           4.9730    1.8175   -1.4142 H.spc      1 <1>        0.000
     21 H           6.0229    0.4362    0.0738 H.spc      1 <1>        0.000
     22 H           5.1120   -0.9064    0.7730 H.spc      1 <1>        0.000
@<TRIPOS>BOND
     1   10   11 ar 
     2    4    5 2  
     3    7    9 ar 
     4    7    8 ar 
     5   10   12 ar 
     6    5    6 1  
     7    3    4 1  
     8    6    7 ar 
     9    2    3 2  
    10    1    2 1  
    11    1   10 ar 
    12    1   13 1  
    13    3   14 1  
    14    4   15 1  
    15    6   16 1  
    16    8   17 1  
    17    9   18 1  
    18    9   19 1  
    19   11   20 1  
    20   12   21 1  
    21   12   22 1  
# Name:          frag3-224-4/31924 -- energy: -1.666100
# Creation time: Sat Jun  5 12:52:23 2010


@<TRIPOS>MOLECULE
frag3-224-4/31924 -- energy: -1.666100
   22    21     1     1     1
SMALL
USER_CHARGES


@<TRIPOS>ATOM
      1 N1         -0.3388   -3.4102   -1.2345 N.pl3      1 <1>        0.000
      2 N2          0.7682   -2.9154   -1.7226 N.2        1 <1>        0.000
      3 C1          1.5109   -2.0096   -1.2462 C.2        1 <1>        0.000
      4 C3          1.2995   -1.3329    0.0782 C.2        1 <1>        0.000
      5 N3          1.9540   -0.3341    0.5420 N.2        1 <1>        0.000
      6 N4          3.0233    0.1692   -0.0505 N.pl3      1 <1>        0.000
      7 C4          4.0285   -0.5341   -0.5798 C.cat      1 <1>        0.000
      8 N5          4.5815   -0.2649   -1.6922 N.pl3      1 <1>        0.000
      9 N6          4.3659   -1.6279    0.1004 N.pl3      1 <1>        0.000
     10 C11        -1.1056   -4.2825   -1.8743 C.cat      1 <1>        0.000
     11 N7         -2.3461   -4.4248   -1.6496 N.pl3      1 <1>        0.000
     12 N8         -0.4837   -5.0063   -2.8005 N.pl3      1 <1>        0.000
     13 H          -0.6304   -3.1070   -0.3053 H.spc      1 <1>        0.000
     14 H           2.3688   -1.6963   -1.8411 H.spc      1 <1>        0.000
     15 H           0.5069   -1.7333    0.7102 H.spc      1 <1>        0.000
     16 H           3.0866    1.1856   -0.1088 H.spc      1 <1>        0.000
     17 H           5.2921   -0.8898   -2.0729 H.spc      1 <1>        0.000
     18 H           5.0751   -2.2604   -0.2702 H.spc      1 <1>        0.000
     19 H           3.9151   -1.8333    0.9920 H.spc      1 <1>        0.000
     20 H          -2.8865   -5.1049   -2.1842 H.spc      1 <1>        0.000
     21 H          -1.0049   -5.6922   -3.3467 H.spc      1 <1>        0.000
     22 H           0.5145   -4.8756   -2.9647 H.spc      1 <1>        0.000
@<TRIPOS>BOND
     1   10   11 ar 
     2    4    5 2  
     3    7    9 ar 
     4    7    8 ar 
     5   10   12 ar 
     6    5    6 1  
     7    3    4 1  
     8    6    7 ar 
     9    2    3 2  
    10    1    2 1  
    11    1   10 ar 
    12    1   13 1  
    13    3   14 1  
    14    4   15 1  
    15    6   16 1  
    16    8   17 1  
    17    9   18 1  
    18    9   19 1  
    19   11   20 1  
    20   12   21 1  
    21   12   22 1  
# Name:          frag3-224-4/31924 -- energy: -1.952095
# Creation time: Sat Jun  5 12:52:23 2010


@<TRIPOS>MOLECULE
frag3-224-4/31924 -- energy: -1.952095
   22    21     1     1     1
SMALL
USER_CHARGES


@<TRIPOS>ATOM
      1 N1          2.6999   -0.7729   -0.5760 N.pl3      1 <1>        0.000
      2 N2          2.4653   -1.9053    0.0422 N.2        1 <1>        0.000
      3 C1          1.3613   -2.4442    0.3538 C.2        1 <1>        0.000
      4 C3          0.0320   -1.8554    0.0046 C.2        1 <1>        0.000
      5 N3         -0.5244   -1.9458   -1.1413 N.2        1 <1>        0.000
      6 N4         -0.1976   -2.8178   -2.0729 N.pl3      1 <1>        0.000
      7 C4         -0.4392   -4.1332   -2.0027 C.cat      1 <1>        0.000
      8 N5         -0.9192   -4.6460   -0.9387 N.pl3      1 <1>        0.000
      9 N6         -0.1890   -4.8959   -3.0500 N.pl3      1 <1>        0.000
     10 C11         3.9150   -0.2946   -0.8559 C.cat      1 <1>        0.000
     11 N7          4.1305    0.7297   -1.5666 N.pl3      1 <1>        0.000
     12 N8          4.9229   -0.9922   -0.3263 N.pl3      1 <1>        0.000
     13 H           1.8951   -0.2164   -0.8643 H.spc      1 <1>        0.000
     14 H           1.3819   -3.3847    0.9043 H.spc      1 <1>        0.000
     15 H          -0.5003   -1.3100    0.7839 H.spc      1 <1>        0.000
     16 H           0.2728   -2.4663   -2.9069 H.spc      1 <1>        0.000
     17 H          -1.1103   -5.6470   -0.8963 H.spc      1 <1>        0.000
     18 H          -0.3796   -5.8971   -3.0090 H.spc      1 <1>        0.000
     19 H           0.1950   -4.4843   -3.9006 H.spc      1 <1>        0.000
     20 H           5.0873    1.0355   -1.7436 H.spc      1 <1>        0.000
     21 H           5.8866   -0.7019   -0.4921 H.spc      1 <1>        0.000
     22 H           4.7291   -1.8154    0.2440 H.spc      1 <1>        0.000
@<TRIPOS>BOND
     1   10   11 ar 
     2    4    5 2  
     3    7    9 ar 
     4    7    8 ar 
     5   10   12 ar 
     6    5    6 1  
     7    3    4 1  
     8    6    7 ar 
     9    2    3 2  
    10    1    2 1  
    11    1   10 ar 
    12    1   13 1  
    13    3   14 1  
    14    4   15 1  
    15    6   16 1  
    16    8   17 1  
    17    9   18 1  
    18    9   19 1  
    19   11   20 1  
    20   12   21 1  
    21   12   22 1  
# Name:          frag3-224-4/31924 -- energy: -1.870555
# Creation time: Sat Jun  5 12:52:23 2010


@<TRIPOS>MOLECULE
frag3-224-4/31924 -- energy: -1.870555
   22    21     1     1     1
SMALL
USER_CHARGES


@<TRIPOS>ATOM
      1 N1         -0.2513   -3.3071   -1.2471 N.pl3      1 <1>        0.000
      2 N2          1.0361   -3.5000   -1.3958 N.2        1 <1>        0.000
      3 C1          2.0034   -3.0803   -0.6946 C.2        1 <1>        0.000
      4 C3          1.8363   -2.2350    0.5271 C.2        1 <1>        0.000
      5 N3          1.9553   -0.9648    0.5633 N.2        1 <1>        0.000
      6 N4          2.4794   -0.2312   -0.3946 N.pl3      1 <1>        0.000
      7 C4          3.7762   -0.2070   -0.7236 C.cat      1 <1>        0.000
      8 N5          4.6376   -0.7951    0.0072 N.pl3      1 <1>        0.000
      9 N6          4.1545    0.4019   -1.8312 N.pl3      1 <1>        0.000
     10 C11        -1.1954   -3.8290   -2.0331 C.cat      1 <1>        0.000
     11 N7         -2.4379   -3.6547   -1.8640 N.pl3      1 <1>        0.000
     12 N8         -0.7368   -4.5712   -3.0433 N.pl3      1 <1>        0.000
     13 H          -0.5542   -2.7147   -0.4740 H.spc      1 <1>        0.000
     14 H           3.0146   -3.3505   -0.9988 H.spc      1 <1>        0.000
     15 H           1.5938   -2.7435    1.4602 H.spc      1 <1>        0.000
     16 H           1.8478    0.3659   -0.9284 H.spc      1 <1>        0.000
     17 H           5.6210   -0.7957   -0.2636 H.spc      1 <1>        0.000
     18 H           5.1377    0.4019   -2.1029 H.spc      1 <1>        0.000
     19 H           3.4638    0.8726   -2.4158 H.spc      1 <1>        0.000
     20 H          -3.1050   -4.0844   -2.5048 H.spc      1 <1>        0.000
     21 H          -1.3906   -5.0079   -3.6931 H.spc      1 <1>        0.000
     22 H           0.2674   -4.7017   -3.1654 H.spc      1 <1>        0.000
@<TRIPOS>BOND
     1   10   11 ar 
     2    4    5 2  
     3    7    9 ar 
     4    7    8 ar 
     5   10   12 ar 
     6    5    6 1  
     7    3    4 1  
     8    6    7 ar 
     9    2    3 2  
    10    1    2 1  
    11    1   10 ar 
    12    1   13 1  
    13    3   14 1  
    14    4   15 1  
    15    6   16 1  
    16    8   17 1  
    17    9   18 1  
    18    9   19 1  
    19   11   20 1  
    20   12   21 1  
    21   12   22 1  
# Name:          frag3-224-4/31924 -- energy: -1.722003
# Creation time: Sat Jun  5 12:52:23 2010


@<TRIPOS>MOLECULE
frag3-224-4/31924 -- energy: -1.722003
   22    21     1     1     1
SMALL
USER_CHARGES


@<TRIPOS>ATOM
      1 N1         -0.1601   -3.7769   -1.3997 N.pl3      1 <1>        0.000
      2 N2          0.5036   -2.7557   -1.8750 N.2        1 <1>        0.000
      3 C1          1.3528   -2.0162   -1.3009 C.2        1 <1>        0.000
      4 C3          1.7989   -2.1815    0.1153 C.2        1 <1>        0.000
      5 N3          2.4090   -1.3031    0.8065 N.2        1 <1>        0.000
      6 N4          2.9378   -0.2056    0.3189 N.pl3      1 <1>        0.000
      7 C4          4.0184   -0.1514   -0.4691 C.cat      1 <1>        0.000
      8 N5          4.5937   -1.2199   -0.8543 N.pl3      1 <1>        0.000
      9 N6          4.4804    1.0235   -0.8487 N.pl3      1 <1>        0.000
     10 C11        -1.2245   -4.3263   -1.9835 C.cat      1 <1>        0.000
     11 N7         -1.8509   -5.3231   -1.5195 N.pl3      1 <1>        0.000
     12 N8         -1.6017   -3.7375   -3.1197 N.pl3      1 <1>        0.000
     13 H           0.1595   -4.1817   -0.5197 H.spc      1 <1>        0.000
     14 H           1.7897   -1.2018   -1.8788 H.spc      1 <1>        0.000
     15 H           1.5839   -3.1349    0.5979 H.spc      1 <1>        0.000
     16 H           2.4889    0.6780    0.5600 H.spc      1 <1>        0.000
     17 H           5.4142   -1.1682   -1.4581 H.spc      1 <1>        0.000
     18 H           5.3007    1.0781   -1.4525 H.spc      1 <1>        0.000
     19 H           4.0176    1.8779   -0.5386 H.spc      1 <1>        0.000
     20 H          -2.6619   -5.6920   -2.0160 H.spc      1 <1>        0.000
     21 H          -2.4098   -4.0897   -3.6328 H.spc      1 <1>        0.000
     22 H          -1.0819   -2.9351   -3.4753 H.spc      1 <1>        0.000
@<TRIPOS>BOND
     1   10   11 ar 
     2    4    5 2  
     3    7    9 ar 
     4    7    8 ar 
     5   10   12 ar 
     6    5    6 1  
     7    3    4 1  
     8    6    7 ar 
     9    2    3 2  
    10    1    2 1  
    11    1   10 ar 
    12    1   13 1  
    13    3   14 1  
    14    4   15 1  
    15    6   16 1  
    16    8   17 1  
    17    9   18 1  
    18    9   19 1  
    19   11   20 1  
    20   12   21 1  
    21   12   22 1  
# Name:          frag3-224-4/31924 -- energy: -2.587093
# Creation time: Sat Jun  5 12:52:23 2010


@<TRIPOS>MOLECULE
frag3-224-4/31924 -- energy: -2.587093
   22    21     1     1     1
SMALL
USER_CHARGES


@<TRIPOS>ATOM
      1 N1          0.0790   -3.2571   -0.9404 N.pl3      1 <1>        0.000
      2 N2          1.2325   -3.8796   -0.8429 N.2        1 <1>        0.000
      3 C1          2.2094   -3.6381   -0.0676 C.2        1 <1>        0.000
      4 C3          2.1931   -2.5747    0.9884 C.2        1 <1>        0.000
      5 N3          1.9511   -1.3343    0.7891 N.2        1 <1>        0.000
      6 N4          1.9300   -0.7373   -0.3870 N.pl3      1 <1>        0.000
      7 C4          2.9987   -0.5300   -1.1666 C.cat      1 <1>        0.000
      8 N5          4.1376   -1.0019   -0.8399 N.pl3      1 <1>        0.000
      9 N6          2.8706    0.1877   -2.2673 N.pl3      1 <1>        0.000
     10 C11        -0.6051   -3.0947   -2.0766 C.cat      1 <1>        0.000
     11 N7         -1.6854   -2.4412   -2.1718 N.pl3      1 <1>        0.000
     12 N8         -0.0541   -3.6724   -3.1470 N.pl3      1 <1>        0.000
     13 H          -0.3231   -2.8699   -0.0867 H.spc      1 <1>        0.000
     14 H           3.1120   -4.2393   -0.1767 H.spc      1 <1>        0.000
     15 H           2.4052   -2.8840    2.0119 H.spc      1 <1>        0.000
     16 H           1.0278   -0.4073   -0.7298 H.spc      1 <1>        0.000
     17 H           4.9511   -0.8250   -1.4293 H.spc      1 <1>        0.000
     18 H           3.6832    0.3654   -2.8577 H.spc      1 <1>        0.000
     19 H           1.9591    0.5645   -2.5273 H.spc      1 <1>        0.000
     20 H          -2.1482   -2.3499   -3.0762 H.spc      1 <1>        0.000
     21 H          -0.5039   -3.5908   -4.0588 H.spc      1 <1>        0.000
     22 H           0.8166   -4.1953   -3.0528 H.spc      1 <1>        0.000
@<TRIPOS>BOND
     1   10   11 ar 
     2    4    5 2  
     3    7    9 ar 
     4    7    8 ar 
     5   10   12 ar 
     6    5    6 1  
     7    3    4 1  
     8    6    7 ar 
     9    2    3 2  
    10    1    2 1  
    11    1   10 ar 
    12    1   13 1  
    13    3   14 1  
    14    4   15 1  
    15    6   16 1  
    16    8   17 1  
    17    9   18 1  
    18    9   19 1  
    19   11   20 1  
    20   12   21 1  
    21   12   22 1  
# Name:          frag3-224-4/31924 -- energy: -1.870027
# Creation time: Sat Jun  5 12:52:23 2010


@<TRIPOS>MOLECULE
frag3-224-4/31924 -- energy: -1.870027
   22    21     1     1     1
SMALL
USER_CHARGES


@<TRIPOS>ATOM
      1 N1          2.6247   -0.3018    0.1120 N.pl3      1 <1>        0.000
      2 N2          1.8556   -0.1133   -0.9387 N.2        1 <1>        0.000
      3 C1          1.6172   -1.0088   -1.8175 C.2        1 <1>        0.000
      4 C3          1.8716   -2.4740   -1.6454 C.2        1 <1>        0.000
      5 N3          0.9588   -3.3503   -1.6244 N.2        1 <1>        0.000
      6 N4         -0.3302   -3.2143   -1.8017 N.pl3      1 <1>        0.000
      7 C4         -1.2266   -4.1822   -1.6062 C.cat      1 <1>        0.000
      8 N5         -2.4591   -4.0716   -1.8717 N.pl3      1 <1>        0.000
      9 N6         -0.7308   -5.3125   -1.0981 N.pl3      1 <1>        0.000
     10 C11         3.9395   -0.5466    0.0602 C.cat      1 <1>        0.000
     11 N7          4.6003   -0.3084   -1.0015 N.pl3      1 <1>        0.000
     12 N8          4.5365   -1.0899    1.1034 N.pl3      1 <1>        0.000
     13 H           2.1874   -0.2582    1.0325 H.spc      1 <1>        0.000
     14 H           1.1954   -0.6805   -2.7674 H.spc      1 <1>        0.000
     15 H           2.9037   -2.8055   -1.5315 H.spc      1 <1>        0.000
     16 H          -0.6734   -2.3049   -2.1109 H.spc      1 <1>        0.000
     17 H          -3.0904   -4.8536   -1.6977 H.spc      1 <1>        0.000
     18 H          -1.3479   -6.1044   -0.9179 H.spc      1 <1>        0.000
     19 H           0.2652   -5.3843   -0.8900 H.spc      1 <1>        0.000
     20 H           5.5932   -0.5377   -1.0465 H.spc      1 <1>        0.000
     21 H           5.5293   -1.3199    1.0603 H.spc      1 <1>        0.000
     22 H           4.0054   -1.2800    1.9532 H.spc      1 <1>        0.000
@<TRIPOS>BOND
     1   10   11 ar 
     2    4    5 2  
     3    7    9 ar 
     4    7    8 ar 
     5   10   12 ar 
     6    5    6 1  
     7    3    4 1  
     8    6    7 ar 
     9    2    3 2  
    10    1    2 1  
    11    1   10 ar 
    12    1   13 1  
    13    3   14 1  
    14    4   15 1  
    15    6   16 1  
    16    8   17 1  
    17    9   18 1  
    18    9   19 1  
    19   11   20 1  
    20   12   21 1  
    21   12   22 1  
# Name:          frag3-224-4/31924 -- energy: -2.184919
# Creation time: Sat Jun  5 12:52:23 2010


@<TRIPOS>MOLECULE
frag3-224-4/31924 -- energy: -2.184919
   22    21     1     1     1
SMALL
USER_CHARGES


@<TRIPOS>ATOM
      1 N1         -0.4706   -4.0939   -0.6969 N.pl3      1 <1>        0.000
      2 N2          0.8404   -4.2047   -0.7366 N.2        1 <1>        0.000
      3 C1          1.6341   -3.2404   -1.0181 C.2        1 <1>        0.000
      4 C3          1.2558   -1.7996   -1.0559 C.2        1 <1>        0.000
      5 N3          2.0062   -0.8661   -0.6333 N.2        1 <1>        0.000
      6 N4          3.2207   -0.9347   -0.1582 N.pl3      1 <1>        0.000
      7 C4          4.1632   -0.0097   -0.3750 C.cat      1 <1>        0.000
      8 N5          5.0193    0.3407    0.4795 N.pl3      1 <1>        0.000
      9 N6          4.1155    0.5521   -1.5864 N.pl3      1 <1>        0.000
     10 C11        -1.2966   -3.9429   -1.7468 C.cat      1 <1>        0.000
     11 N7         -2.4624   -3.4693   -1.6814 N.pl3      1 <1>        0.000
     12 N8         -0.7682   -4.3050   -2.9206 N.pl3      1 <1>        0.000
     13 H          -0.9046   -4.1259    0.2256 H.spc      1 <1>        0.000
     14 H           2.6690   -3.4935   -1.2485 H.spc      1 <1>        0.000
     15 H           0.2829   -1.5325   -1.4684 H.spc      1 <1>        0.000
     16 H           3.4661   -1.7431    0.4133 H.spc      1 <1>        0.000
     17 H           5.6970    1.0688    0.2536 H.spc      1 <1>        0.000
     18 H           4.7823    1.2824   -1.8365 H.spc      1 <1>        0.000
     19 H           3.4123    0.2507   -2.2610 H.spc      1 <1>        0.000
     20 H          -3.0160   -3.3579   -2.5308 H.spc      1 <1>        0.000
     21 H          -1.3102   -4.1993   -3.7782 H.spc      1 <1>        0.000
     22 H           0.1768   -4.6869   -2.9584 H.spc      1 <1>        0.000
@<TRIPOS>BOND
     1   10   11 ar 
     2    4    5 2  
     3    7    9 ar 
     4    7    8 ar 
     5   10   12 ar 
     6    5    6 1  
     7    3    4 1  
     8    6    7 ar 
     9    2    3 2  
    10    1    2 1  
    11    1   10 ar 
    12    1   13 1  
    13    3   14 1  
    14    4   15 1  
    15    6   16 1  
    16    8   17 1  
    17    9   18 1  
    18    9   19 1  
    19   11   20 1  
    20   12   21 1  
    21   12   22 1  
# Name:          frag3-224-4/31924 -- energy: -1.897211
# Creation time: Sat Jun  5 12:52:23 2010


@<TRIPOS>MOLECULE
frag3-224-4/31924 -- energy: -1.897211
   22    21     1     1     1
SMALL
USER_CHARGES


@<TRIPOS>ATOM
      1 N1         -0.3505   -3.6174   -1.0262 N.pl3      1 <1>        0.000
      2 N2          0.9504   -3.5266   -1.1381 N.2        1 <1>        0.000
      3 C1          1.6627   -2.4796   -1.0572 C.2        1 <1>        0.000
      4 C3          1.1584   -1.1214   -0.6524 C.2        1 <1>        0.000
      5 N3          1.7600   -0.3185    0.1419 N.2        1 <1>        0.000
      6 N4          3.0280   -0.4342    0.4767 N.pl3      1 <1>        0.000
      7 C4          4.0384   -0.4620   -0.4008 C.cat      1 <1>        0.000
      8 N5          3.8253   -0.2247   -1.6346 N.pl3      1 <1>        0.000
      9 N6          5.2459   -0.7871    0.0097 N.pl3      1 <1>        0.000
     10 C11        -1.1434   -4.1562   -1.9548 C.cat      1 <1>        0.000
     11 N7         -2.4003   -4.2537   -1.8424 N.pl3      1 <1>        0.000
     12 N8         -0.5175   -4.5922   -3.0514 N.pl3      1 <1>        0.000
     13 H          -0.7848   -3.2543   -0.1777 H.spc      1 <1>        0.000
     14 H           2.7214   -2.5714   -1.2997 H.spc      1 <1>        0.000
     15 H           0.2052   -0.7954   -1.0686 H.spc      1 <1>        0.000
     16 H           3.2550   -0.5074    1.4684 H.spc      1 <1>        0.000
     17 H           4.5911   -0.2866   -2.3055 H.spc      1 <1>        0.000
     18 H           6.0127   -0.8494   -0.6600 H.spc      1 <1>        0.000
     19 H           5.4149   -0.9767    0.9976 H.spc      1 <1>        0.000
     20 H          -2.9489   -4.6696   -2.5951 H.spc      1 <1>        0.000
     21 H          -1.0531   -5.0103   -3.8121 H.spc      1 <1>        0.000
     22 H           0.4960   -4.5070   -3.1280 H.spc      1 <1>        0.000
@<TRIPOS>BOND
     1   10   11 ar 
     2    4    5 2  
     3    7    9 ar 
     4    7    8 ar 
     5   10   12 ar 
     6    5    6 1  
     7    3    4 1  
     8    6    7 ar 
     9    2    3 2  
    10    1    2 1  
    11    1   10 ar 
    12    1   13 1  
    13    3   14 1  
    14    4   15 1  
    15    6   16 1  
    16    8   17 1  
    17    9   18 1  
    18    9   19 1  
    19   11   20 1  
    20   12   21 1  
    21   12   22 1  
# Name:          frag3-224-4/31924 -- energy: -1.651640
# Creation time: Sat Jun  5 12:52:23 2010


@<TRIPOS>MOLECULE
frag3-224-4/31924 -- energy: -1.651640
   22    21     1     1     1
SMALL
USER_CHARGES


@<TRIPOS>ATOM
      1 N1          3.3608   -0.7477    0.5443 N.pl3      1 <1>        0.000
      2 N2          2.0522   -0.6721    0.6187 N.2        1 <1>        0.000
      3 C1          1.2509   -1.3947   -0.0566 C.2        1 <1>        0.000
      4 C3          1.6272   -2.6420   -0.7860 C.2        1 <1>        0.000
      5 N3          0.8165   -3.3806   -1.4120 N.2        1 <1>        0.000
      6 N4         -0.4622   -3.2128   -1.6195 N.pl3      1 <1>        0.000
      7 C4         -1.2668   -4.1295   -2.1547 C.cat      1 <1>        0.000
      8 N5         -2.5077   -3.9632   -2.3365 N.pl3      1 <1>        0.000
      9 N6         -0.6628   -5.2709   -2.4894 N.pl3      1 <1>        0.000
     10 C11         4.0976   -0.3172   -0.4876 C.cat      1 <1>        0.000
     11 N7          3.5434    0.2146   -1.5027 N.pl3      1 <1>        0.000
     12 N8          5.4083   -0.4577   -0.4477 N.pl3      1 <1>        0.000
     13 H           3.8540   -1.1664    1.3329 H.spc      1 <1>        0.000
     14 H           0.2090   -1.0783   -0.1063 H.spc      1 <1>        0.000
     15 H           2.6768   -2.9361   -0.7775 H.spc      1 <1>        0.000
     16 H          -0.8729   -2.3179   -1.3533 H.spc      1 <1>        0.000
     17 H          -3.0677   -4.7105   -2.7467 H.spc      1 <1>        0.000
     18 H          -1.2028   -6.0320   -2.9011 H.spc      1 <1>        0.000
     19 H           0.3390   -5.3825   -2.3336 H.spc      1 <1>        0.000
     20 H           4.1132    0.5327   -2.2866 H.spc      1 <1>        0.000
     21 H           5.9793   -0.1401   -1.2309 H.spc      1 <1>        0.000
     22 H           5.8510   -0.8840    0.3664 H.spc      1 <1>        0.000
@<TRIPOS>BOND
     1   10   11 ar 
     2    4    5 2  
     3    7    9 ar 
     4    7    8 ar 
     5   10   12 ar 
     6    5    6 1  
     7    3    4 1  
     8    6    7 ar 
     9    2    3 2  
    10    1    2 1  
    11    1   10 ar 
    12    1   13 1  
    13    3   14 1  
    14    4   15 1  
    15    6   16 1  
    16    8   17 1  
    17    9   18 1  
    18    9   19 1  
    19   11   20 1  
    20   12   21 1  
    21   12   22 1  
# Name:          frag3-224-4/31924 -- energy: -3.453869
# Creation time: Sat Jun  5 12:52:23 2010


@<TRIPOS>MOLECULE
frag3-224-4/31924 -- energy: -3.453869
   22    21     1     1     1
SMALL
USER_CHARGES


@<TRIPOS>ATOM
      1 N1          1.7741   -0.5399   -0.5435 N.pl3      1 <1>        0.000
      2 N2          1.2778   -1.1794    0.5161 N.2        1 <1>        0.000
      3 C1          1.4846   -2.4312    0.7541 C.2        1 <1>        0.000
      4 C3          2.1177   -3.4462   -0.2006 C.2        1 <1>        0.000
      5 N3          1.8721   -3.5568   -1.4562 N.2        1 <1>        0.000
      6 N4          0.8881   -2.9280   -2.0900 N.pl3      1 <1>        0.000
      7 C4         -0.4194   -3.1730   -1.9902 C.cat      1 <1>        0.000
      8 N5         -1.3386   -2.4739   -2.5279 N.pl3      1 <1>        0.000
      9 N6         -0.7258   -4.2442   -1.2565 N.pl3      1 <1>        0.000
     10 C11         3.0251   -0.6195   -1.0166 C.cat      1 <1>        0.000
     11 N7          3.3462   -0.6544   -2.2490 N.pl3      1 <1>        0.000
     12 N8          3.9556   -0.7272   -0.0693 N.pl3      1 <1>        0.000
     13 H           1.1341    0.0745   -1.0468 H.spc      1 <1>        0.000
     14 H           1.1779   -2.8022    1.7321 H.spc      1 <1>        0.000
     15 H           2.8440   -4.1390    0.2244 H.spc      1 <1>        0.000
     16 H           1.1624   -2.1758   -2.7219 H.spc      1 <1>        0.000
     17 H          -2.3170   -2.7318   -2.3989 H.spc      1 <1>        0.000
     18 H          -1.7018   -4.5086   -1.1228 H.spc      1 <1>        0.000
     19 H           0.0160   -4.7989   -0.8292 H.spc      1 <1>        0.000
     20 H           4.3237   -0.7657   -2.5184 H.spc      1 <1>        0.000
     21 H           4.9360   -0.8388   -0.3278 H.spc      1 <1>        0.000
     22 H           3.6877   -0.6980    0.9144 H.spc      1 <1>        0.000
@<TRIPOS>BOND
     1   10   11 ar 
     2    4    5 2  
     3    7    9 ar 
     4    7    8 ar 
     5   10   12 ar 
     6    5    6 1  
     7    3    4 1  
     8    6    7 ar 
     9    2    3 2  
    10    1    2 1  
    11    1   10 ar 
    12    1   13 1  
    13    3   14 1  
    14    4   15 1  
    15    6   16 1  
    16    8   17 1  
    17    9   18 1  
    18    9   19 1  
    19   11   20 1  
    20   12   21 1  
    21   12   22 1  
# Name:          frag3-224-4/31924 -- energy: -3.263756
# Creation time: Sat Jun  5 12:52:23 2010


@<TRIPOS>MOLECULE
frag3-224-4/31924 -- energy: -3.263756
   22    21     1     1     1
SMALL
USER_CHARGES


@<TRIPOS>ATOM
      1 N1          3.0118   -1.1784   -0.1149 N.pl3      1 <1>        0.000
      2 N2          3.2253   -2.4802   -0.0628 N.2        1 <1>        0.000
      3 C1          2.3763   -3.3774    0.2560 C.2        1 <1>        0.000
      4 C3          0.9940   -3.1405    0.7961 C.2        1 <1>        0.000
      5 N3         -0.1077   -3.3872    0.1973 N.2        1 <1>        0.000
      6 N4         -0.2119   -3.7167   -1.0796 N.pl3      1 <1>        0.000
      7 C4         -0.0600   -2.9403   -2.1541 C.cat      1 <1>        0.000
      8 N5         -0.1738   -3.3231   -3.3636 N.pl3      1 <1>        0.000
      9 N6          0.2268   -1.6757   -1.8801 N.pl3      1 <1>        0.000
     10 C11         2.7525   -0.4426   -1.1961 C.cat      1 <1>        0.000
     11 N7          2.4800    0.8000   -1.1783 N.pl3      1 <1>        0.000
     12 N8          2.7440   -1.1116   -2.3496 N.pl3      1 <1>        0.000
     13 H           3.0495   -0.6785    0.7734 H.spc      1 <1>        0.000
     14 H           2.6828   -4.4151    0.1240 H.spc      1 <1>        0.000
     15 H           0.9242   -2.7163    1.7977 H.spc      1 <1>        0.000
     16 H          -0.4383   -4.6933   -1.2676 H.spc      1 <1>        0.000
     17 H          -0.0441   -2.6558   -4.1241 H.spc      1 <1>        0.000
     18 H           0.3570   -1.0064   -2.6387 H.spc      1 <1>        0.000
     19 H           0.3174   -1.3718   -0.9106 H.spc      1 <1>        0.000
     20 H           2.2548    1.2852   -2.0468 H.spc      1 <1>        0.000
     21 H           2.5189   -0.6271   -3.2185 H.spc      1 <1>        0.000
     22 H           2.9626   -2.1078   -2.3630 H.spc      1 <1>        0.000
@<TRIPOS>BOND
     1   10   11 ar 
     2    4    5 2  
     3    7    9 ar 
     4    7    8 ar 
     5   10   12 ar 
     6    5    6 1  
     7    3    4 1  
     8    6    7 ar 
     9    2    3 2  
    10    1    2 1  
    11    1   10 ar 
    12    1   13 1  
    13    3   14 1  
    14    4   15 1  
    15    6   16 1  
    16    8   17 1  
    17    9   18 1  
    18    9   19 1  
    19   11   20 1  
    20   12   21 1  
    21   12   22 1  
# Name:          frag3-224-4/31924 -- energy: -2.176365
# Creation time: Sat Jun  5 12:52:23 2010


@<TRIPOS>MOLECULE
frag3-224-4/31924 -- energy: -2.176365
   22    21     1     1     1
SMALL
USER_CHARGES


@<TRIPOS>ATOM
      1 N1         -0.4828   -3.7534   -0.9113 N.pl3      1 <1>        0.000
      2 N2         -0.2174   -3.1350    0.2216 N.2        1 <1>        0.000
      3 C1          0.9493   -2.8256    0.6333 C.2        1 <1>        0.000
      4 C3          2.2449   -3.2642    0.0114 C.2        1 <1>        0.000
      5 N3          3.2431   -2.5129   -0.2376 N.2        1 <1>        0.000
      6 N4          3.2964   -1.2076   -0.0866 N.pl3      1 <1>        0.000
      7 C4          3.1768   -0.2990   -1.0529 C.cat      1 <1>        0.000
      8 N5          3.2904    0.9536   -0.8771 N.pl3      1 <1>        0.000
      9 N6          2.8985   -0.7950   -2.2589 N.pl3      1 <1>        0.000
     10 C11        -0.4298   -3.2442   -2.1426 C.cat      1 <1>        0.000
     11 N7         -1.1362   -3.6508   -3.1176 N.pl3      1 <1>        0.000
     12 N8          0.4241   -2.2397   -2.3115 N.pl3      1 <1>        0.000
     13 H          -0.7601   -4.7322   -0.8382 H.spc      1 <1>        0.000
     14 H           1.0122   -2.1866    1.5141 H.spc      1 <1>        0.000
     15 H           2.3390   -4.3183   -0.2497 H.spc      1 <1>        0.000
     16 H           3.4433   -0.8580    0.8603 H.spc      1 <1>        0.000
     17 H           3.1685    1.5921   -1.6632 H.spc      1 <1>        0.000
     18 H           2.7744   -0.1665   -3.0526 H.spc      1 <1>        0.000
     19 H           2.8097   -1.8029   -2.3877 H.spc      1 <1>        0.000
     20 H          -1.0484   -3.2062   -4.0314 H.spc      1 <1>        0.000
     21 H           0.5131   -1.7941   -3.2247 H.spc      1 <1>        0.000
     22 H           0.9904   -1.9145   -1.5279 H.spc      1 <1>        0.000
@<TRIPOS>BOND
     1   10   11 ar 
     2    4    5 2  
     3    7    9 ar 
     4    7    8 ar 
     5   10   12 ar 
     6    5    6 1  
     7    3    4 1  
     8    6    7 ar 
     9    2    3 2  
    10    1    2 1  
    11    1   10 ar 
    12    1   13 1  
    13    3   14 1  
    14    4   15 1  
    15    6   16 1  
    16    8   17 1  
    17    9   18 1  
    18    9   19 1  
    19   11   20 1  
    20   12   21 1  
    21   12   22 1  
# Name:          frag3-224-4/31924 -- energy: -1.563092
# Creation time: Sat Jun  5 12:52:23 2010


@<TRIPOS>MOLECULE
frag3-224-4/31924 -- energy: -1.563092
   22    21     1     1     1
SMALL
USER_CHARGES


@<TRIPOS>ATOM
      1 N1         -0.3028   -3.1802   -1.2305 N.pl3      1 <1>        0.000
      2 N2          0.7019   -3.8965   -0.7932 N.2        1 <1>        0.000
      3 C1          1.5810   -3.5653    0.0499 C.2        1 <1>        0.000
      4 C3          1.6304   -2.2438    0.7359 C.2        1 <1>        0.000
      5 N3          2.3495   -1.2757    0.3660 N.2        1 <1>        0.000
      6 N4          3.1507   -1.2182   -0.6670 N.pl3      1 <1>        0.000
      7 C4          3.8419   -0.1184   -0.9581 C.cat      1 <1>        0.000
      8 N5          4.5708   -0.0169   -1.9843 N.pl3      1 <1>        0.000
      9 N6          3.7198    0.8916   -0.0924 N.pl3      1 <1>        0.000
     10 C11        -1.1072   -3.6196   -2.1950 C.cat      1 <1>        0.000
     11 N7         -2.3558   -3.7398   -2.0286 N.pl3      1 <1>        0.000
     12 N8         -0.5227   -3.9908   -3.3325 N.pl3      1 <1>        0.000
     13 H          -0.4734   -2.2616   -0.8213 H.spc      1 <1>        0.000
     14 H           2.3547   -4.2940    0.2919 H.spc      1 <1>        0.000
     15 H           1.0032   -2.1041    1.6164 H.spc      1 <1>        0.000
     16 H           3.2483   -2.0384   -1.2654 H.spc      1 <1>        0.000
     17 H           5.0800    0.8483   -2.1646 H.spc      1 <1>        0.000
     18 H           4.2205    1.7654   -0.2542 H.spc      1 <1>        0.000
     19 H           3.1258    0.7890    0.7304 H.spc      1 <1>        0.000
     20 H          -2.9347   -4.1272   -2.7737 H.spc      1 <1>        0.000
     21 H          -1.0832   -4.3806   -4.0903 H.spc      1 <1>        0.000
     22 H           0.4855   -3.8853   -3.4459 H.spc      1 <1>        0.000
@<TRIPOS>BOND
     1   10   11 ar 
     2    4    5 2  
     3    7    9 ar 
     4    7    8 ar 
     5   10   12 ar 
     6    5    6 1  
     7    3    4 1  
     8    6    7 ar 
     9    2    3 2  
    10    1    2 1  
    11    1   10 ar 
    12    1   13 1  
    13    3   14 1  
    14    4   15 1  
    15    6   16 1  
    16    8   17 1  
    17    9   18 1  
    18    9   19 1  
    19   11   20 1  
    20   12   21 1  
    21   12   22 1  
# Name:          frag3-224-4/31924 -- energy: -2.381963
# Creation time: Sat Jun  5 12:52:23 2010


@<TRIPOS>MOLECULE
frag3-224-4/31924 -- energy: -2.381963
   22    21     1     1     1
SMALL
USER_CHARGES


@<TRIPOS>ATOM
      1 N1          0.0785   -4.4898   -1.1326 N.pl3      1 <1>        0.000
      2 N2          1.3886   -4.3452   -1.1253 N.2        1 <1>        0.000
      3 C1          1.9840   -3.2785   -0.7359 C.2        1 <1>        0.000
      4 C3          1.3450   -2.1599    0.0633 C.2        1 <1>        0.000
      5 N3          1.4653   -0.9054   -0.1418 N.2        1 <1>        0.000
      6 N4          2.2788   -0.3612   -1.0188 N.pl3      1 <1>        0.000
      7 C4          3.5743   -0.0999   -0.8286 C.cat      1 <1>        0.000
      8 N5          4.3295    0.4439   -1.6883 N.pl3      1 <1>        0.000
      9 N6          4.0493   -0.4683    0.3652 N.pl3      1 <1>        0.000
     10 C11        -0.7868   -3.6880   -1.7680 C.cat      1 <1>        0.000
     11 N7         -0.3702   -2.7023   -2.4562 N.pl3      1 <1>        0.000
     12 N8         -2.0787   -3.9191   -1.6626 N.pl3      1 <1>        0.000
     13 H          -0.3084   -5.2768   -0.6117 H.spc      1 <1>        0.000
     14 H           3.0353   -3.1668   -1.0011 H.spc      1 <1>        0.000
     15 H           0.7161   -2.4583    0.9021 H.spc      1 <1>        0.000
     16 H           1.8848   -0.1162   -1.9272 H.spc      1 <1>        0.000
     17 H           5.3134    0.6056   -1.4733 H.spc      1 <1>        0.000
     18 H           5.0311   -0.3126    0.5936 H.spc      1 <1>        0.000
     19 H           3.4299   -0.9051    1.0478 H.spc      1 <1>        0.000
     20 H          -1.0372   -2.0906   -2.9267 H.spc      1 <1>        0.000
     21 H          -2.7462   -3.3077   -2.1328 H.spc      1 <1>        0.000
     22 H          -2.4121   -4.7095   -1.1107 H.spc      1 <1>        0.000
@<TRIPOS>BOND
     1   10   11 ar 
     2    4    5 2  
     3    7    9 ar 
     4    7    8 ar 
     5   10   12 ar 
     6    5    6 1  
     7    3    4 1  
     8    6    7 ar 
     9    2    3 2  
    10    1    2 1  
    11    1   10 ar 
    12    1   13 1  
    13    3   14 1  
    14    4   15 1  
    15    6   16 1  
    16    8   17 1  
    17    9   18 1  
    18    9   19 1  
    19   11   20 1  
    20   12   21 1  
    21   12   22 1  
# Name:          frag3-224-4/31924 -- energy: -2.142483
# Creation time: Sat Jun  5 12:52:23 2010


@<TRIPOS>MOLECULE
frag3-224-4/31924 -- energy: -2.142483
   22    21     1     1     1
SMALL
USER_CHARGES


@<TRIPOS>ATOM
      1 N1         -0.5807   -4.0668   -0.8031 N.pl3      1 <1>        0.000
      2 N2         -0.2360   -3.3750    0.2622 N.2        1 <1>        0.000
      3 C1          0.9024   -2.8168    0.4212 C.2        1 <1>        0.000
      4 C3          2.1274   -3.0642   -0.4115 C.2        1 <1>        0.000
      5 N3          3.0864   -2.2508   -0.5770 N.2        1 <1>        0.000
      6 N4          3.1865   -1.0268   -0.1244 N.pl3      1 <1>        0.000
      7 C4          3.4321    0.0535   -0.8702 C.cat      1 <1>        0.000
      8 N5          3.6431    1.2095   -0.3972 N.pl3      1 <1>        0.000
      9 N6          3.4428   -0.1608   -2.1879 N.pl3      1 <1>        0.000
     10 C11        -0.5650   -3.6250   -2.0693 C.cat      1 <1>        0.000
     11 N7          0.0397   -2.5498   -2.3810 N.pl3      1 <1>        0.000
     12 N8         -1.2213   -4.3007   -2.9914 N.pl3      1 <1>        0.000
     13 H          -0.8881   -5.0275   -0.6517 H.spc      1 <1>        0.000
     14 H           0.9924   -2.0964    1.2342 H.spc      1 <1>        0.000
     15 H           2.1986   -4.0268   -0.9179 H.spc      1 <1>        0.000
     16 H           3.0673   -0.8867    0.8789 H.spc      1 <1>        0.000
     17 H           3.8244    1.9923   -1.0255 H.spc      1 <1>        0.000
     18 H           3.6226    0.6120   -2.8288 H.spc      1 <1>        0.000
     19 H           3.2711   -1.0974   -2.5537 H.spc      1 <1>        0.000
     20 H           0.0161   -2.2120   -3.3431 H.spc      1 <1>        0.000
     21 H          -1.2438   -3.9614   -3.9531 H.spc      1 <1>        0.000
     22 H          -1.7066   -5.1628   -2.7433 H.spc      1 <1>        0.000
@<TRIPOS>BOND
     1   10   11 ar 
     2    4    5 2  
     3    7    9 ar 
     4    7    8 ar 
     5   10   12 ar 
     6    5    6 1  
     7    3    4 1  
     8    6    7 ar 
     9    2    3 2  
    10    1    2 1  
    11    1   10 ar 
    12    1   13 1  
    13    3   14 1  
    14    4   15 1  
    15    6   16 1  
    16    8   17 1  
    17    9   18 1  
    18    9   19 1  
    19   11   20 1  
    20   12   21 1  
    21   12   22 1  
# Name:          frag3-224-4/31924 -- energy: -2.383126
# Creation time: Sat Jun  5 12:52:23 2010


@<TRIPOS>MOLECULE
frag3-224-4/31924 -- energy: -2.383126
   22    21     1     1     1
SMALL
USER_CHARGES


@<TRIPOS>ATOM
      1 N1          2.8924    0.0223   -1.1229 N.pl3      1 <1>        0.000
      2 N2          1.6479   -0.2162   -0.7624 N.2        1 <1>        0.000
      3 C1          1.1010   -1.3729   -0.7625 C.2        1 <1>        0.000
      4 C3          1.7016   -2.6483   -1.3136 C.2        1 <1>        0.000
      5 N3          1.2056   -3.8233   -1.2119 N.2        1 <1>        0.000
      6 N4         -0.0079   -4.0974   -0.7861 N.pl3      1 <1>        0.000
      7 C4         -1.1008   -4.1170   -1.5496 C.cat      1 <1>        0.000
      8 N5         -2.1106   -3.3710   -1.3557 N.pl3      1 <1>        0.000
      9 N6         -1.0410   -4.9205   -2.6037 N.pl3      1 <1>        0.000
     10 C11         3.9987   -0.3364   -0.4666 C.cat      1 <1>        0.000
     11 N7          5.1787   -0.1331   -0.8895 N.pl3      1 <1>        0.000
     12 N8          3.7918   -0.9598    0.6949 N.pl3      1 <1>        0.000
     13 H           3.0248    0.5347   -1.9948 H.spc      1 <1>        0.000
     14 H           0.1062   -1.4470   -0.3232 H.spc      1 <1>        0.000
     15 H           2.6471   -2.5570   -1.8482 H.spc      1 <1>        0.000
     16 H          -0.1219   -4.3115    0.2046 H.spc      1 <1>        0.000
     17 H          -2.8890   -3.3848   -2.0148 H.spc      1 <1>        0.000
     18 H          -1.8121   -4.9446   -3.2710 H.spc      1 <1>        0.000
     19 H          -0.2239   -5.5141   -2.7468 H.spc      1 <1>        0.000
     20 H           5.9786   -0.4472   -0.3400 H.spc      1 <1>        0.000
     21 H           4.5852   -1.2777    1.2515 H.spc      1 <1>        0.000
     22 H           2.8402   -1.1185    1.0261 H.spc      1 <1>        0.000
@<TRIPOS>BOND
     1   10   11 ar 
     2    4    5 2  
     3    7    9 ar 
     4    7    8 ar 
     5   10   12 ar 
     6    5    6 1  
     7    3    4 1  
     8    6    7 ar 
     9    2    3 2  
    10    1    2 1  
    11    1   10 ar 
    12    1   13 1  
    13    3   14 1  
    14    4   15 1  
    15    6   16 1  
    16    8   17 1  
    17    9   18 1  
    18    9   19 1  
    19   11   20 1  
    20   12   21 1  
    21   12   22 1  
# Name:          frag3-224-4/31924 -- energy: -3.644814
# Creation time: Sat Jun  5 12:52:23 2010


@<TRIPOS>MOLECULE
frag3-224-4/31924 -- energy: -3.644814
   22    21     1     1     1
SMALL
USER_CHARGES


@<TRIPOS>ATOM
      1 N1          1.7260   -0.6180   -0.3931 N.pl3      1 <1>        0.000
      2 N2          1.7191   -1.0438    0.8741 N.2        1 <1>        0.000
      3 C1          1.9927   -2.2494    1.2374 C.2        1 <1>        0.000
      4 C3          2.1222   -3.4549    0.3444 C.2        1 <1>        0.000
      5 N3          1.2712   -3.7931   -0.5422 N.2        1 <1>        0.000
      6 N4          0.1984   -3.1313   -0.9510 N.pl3      1 <1>        0.000
      7 C4         -0.1674   -2.9344   -2.2217 C.cat      1 <1>        0.000
      8 N5         -1.1348   -2.1894   -2.5921 N.pl3      1 <1>        0.000
      9 N6          0.5687   -3.5897   -3.1193 N.pl3      1 <1>        0.000
     10 C11         2.6472   -0.8899   -1.3314 C.cat      1 <1>        0.000
     11 N7          2.4186   -1.1271   -2.5618 N.pl3      1 <1>        0.000
     12 N8          3.8957   -0.9528   -0.8730 N.pl3      1 <1>        0.000
     13 H           0.9481   -0.0228   -0.6777 H.spc      1 <1>        0.000
     14 H           2.1467   -2.4140    2.3038 H.spc      1 <1>        0.000
     15 H           3.0055   -4.0822    0.4646 H.spc      1 <1>        0.000
     16 H          -0.4040   -2.7355   -0.2293 H.spc      1 <1>        0.000
     17 H          -1.3516   -2.0906   -3.5839 H.spc      1 <1>        0.000
     18 H           0.3610   -3.4983   -4.1137 H.spc      1 <1>        0.000
     19 H           1.3397   -4.1825   -2.8117 H.spc      1 <1>        0.000
     20 H           3.1889   -1.3630   -3.1874 H.spc      1 <1>        0.000
     21 H           4.6600   -1.1894   -1.5057 H.spc      1 <1>        0.000
     22 H           4.0879   -0.7643    0.1108 H.spc      1 <1>        0.000
@<TRIPOS>BOND
     1   10   11 ar 
     2    4    5 2  
     3    7    9 ar 
     4    7    8 ar 
     5   10   12 ar 
     6    5    6 1  
     7    3    4 1  
     8    6    7 ar 
     9    2    3 2  
    10    1    2 1  
    11    1   10 ar 
    12    1   13 1  
    13    3   14 1  
    14    4   15 1  
    15    6   16 1  
    16    8   17 1  
    17    9   18 1  
    18    9   19 1  
    19   11   20 1  
    20   12   21 1  
    21   12   22 1  
# Name:          frag3-224-4/31924 -- energy: -3.396540
# Creation time: Sat Jun  5 12:52:23 2010


@<TRIPOS>MOLECULE
frag3-224-4/31924 -- energy: -3.396540
   22    21     1     1     1
SMALL
USER_CHARGES


@<TRIPOS>ATOM
      1 N1          0.0576   -2.1726   -1.6348 N.pl3      1 <1>        0.000
      2 N2         -0.2248   -1.8457   -0.3891 N.2        1 <1>        0.000
      3 C1          0.3953   -2.2883    0.6412 C.2        1 <1>        0.000
      4 C3          1.7446   -2.9657    0.6357 C.2        1 <1>        0.000
      5 N3          2.8549   -2.3796    0.4003 N.2        1 <1>        0.000
      6 N4          3.0161   -1.1249    0.0392 N.pl3      1 <1>        0.000
      7 C4          3.1613   -0.6849   -1.2151 C.cat      1 <1>        0.000
      8 N5          3.3645    0.5259   -1.5281 N.pl3      1 <1>        0.000
      9 N6          3.0716   -1.6256   -2.1606 N.pl3      1 <1>        0.000
     10 C11        -0.0369   -3.4097   -2.1326 C.cat      1 <1>        0.000
     11 N7         -0.3827   -4.3794   -1.3814 N.pl3      1 <1>        0.000
     12 N8          0.2359   -3.6232   -3.4043 N.pl3      1 <1>        0.000
     13 H           0.3695   -1.4308   -2.2616 H.spc      1 <1>        0.000
     14 H          -0.0947   -2.1648    1.6070 H.spc      1 <1>        0.000
     15 H           1.7734   -4.0344    0.8484 H.spc      1 <1>        0.000
     16 H           3.0317   -0.4258    0.7818 H.spc      1 <1>        0.000
     17 H           3.4611    0.7899   -2.5086 H.spc      1 <1>        0.000
     18 H           3.1669   -1.3712   -3.1438 H.spc      1 <1>        0.000
     19 H           2.9079   -2.5978   -1.8989 H.spc      1 <1>        0.000
     20 H          -0.4487   -5.3226   -1.7641 H.spc      1 <1>        0.000
     21 H           0.1704   -4.5657   -3.7887 H.spc      1 <1>        0.000
     22 H           0.5125   -2.8459   -4.0040 H.spc      1 <1>        0.000
@<TRIPOS>BOND
     1   10   11 ar 
     2    4    5 2  
     3    7    9 ar 
     4    7    8 ar 
     5   10   12 ar 
     6    5    6 1  
     7    3    4 1  
     8    6    7 ar 
     9    2    3 2  
    10    1    2 1  
    11    1   10 ar 
    12    1   13 1  
    13    3   14 1  
    14    4   15 1  
    15    6   16 1  
    16    8   17 1  
    17    9   18 1  
    18    9   19 1  
    19   11   20 1  
    20   12   21 1  
    21   12   22 1  
# Name:          frag3-224-4/31924 -- energy: -1.767563
# Creation time: Sat Jun  5 12:52:23 2010


@<TRIPOS>MOLECULE
frag3-224-4/31924 -- energy: -1.767563
   22    21     1     1     1
SMALL
USER_CHARGES


@<TRIPOS>ATOM
      1 N1         -0.1202   -3.1507   -1.1647 N.pl3      1 <1>        0.000
      2 N2          0.9372   -3.8868   -0.8897 N.2        1 <1>        0.000
      3 C1          1.8484   -3.6351   -0.0482 C.2        1 <1>        0.000
      4 C3          1.8695   -2.4306    0.8337 C.2        1 <1>        0.000
      5 N3          2.1530   -1.2608    0.4412 N.2        1 <1>        0.000
      6 N4          2.4722   -0.8876   -0.7856 N.pl3      1 <1>        0.000
      7 C4          3.5633   -0.1574   -0.9873 C.cat      1 <1>        0.000
      8 N5          4.2416    0.2478    0.0134 N.pl3      1 <1>        0.000
      9 N6          3.9290    0.1240   -2.2207 N.pl3      1 <1>        0.000
     10 C11        -0.9660   -3.4999   -2.1261 C.cat      1 <1>        0.000
     11 N7         -2.0013   -2.8268   -2.3920 N.pl3      1 <1>        0.000
     12 N8         -0.6692   -4.6098   -2.8037 N.pl3      1 <1>        0.000
     13 H          -0.2916   -2.2990   -0.6303 H.spc      1 <1>        0.000
     14 H           2.6717   -4.3442    0.0384 H.spc      1 <1>        0.000
     15 H           1.6242   -2.5676    1.8869 H.spc      1 <1>        0.000
     16 H           1.8839   -1.1588   -1.5735 H.spc      1 <1>        0.000
     17 H           5.0857    0.8014   -0.1331 H.spc      1 <1>        0.000
     18 H           4.7697    0.6763   -2.3900 H.spc      1 <1>        0.000
     19 H           3.3716   -0.2103   -3.0068 H.spc      1 <1>        0.000
     20 H          -2.6288   -3.1292   -3.1371 H.spc      1 <1>        0.000
     21 H          -1.2833   -4.9297   -3.5527 H.spc      1 <1>        0.000
     22 H           0.1719   -5.1387   -2.5729 H.spc      1 <1>        0.000
@<TRIPOS>BOND
     1   10   11 ar 
     2    4    5 2  
     3    7    9 ar 
     4    7    8 ar 
     5   10   12 ar 
     6    5    6 1  
     7    3    4 1  
     8    6    7 ar 
     9    2    3 2  
    10    1    2 1  
    11    1   10 ar 
    12    1   13 1  
    13    3   14 1  
    14    4   15 1  
    15    6   16 1  
    16    8   17 1  
    17    9   18 1  
    18    9   19 1  
    19   11   20 1  
    20   12   21 1  
    21   12   22 1  
