#      Rotatable Fragment
#      Build by yxyuan
#
# Name:          frag4-291-5529/150395
# Creation time: Sat Jun  5 12:53:29 2010


@<TRIPOS>MOLECULE
frag4-291-5529/150395
   18    18     1     1     1
SMALL
USER_CHARGES


@<TRIPOS>ATOM
      1 C12         2.2369    0.2018   -0.3019 C.3        1 <1>        0.000
      2 C13         2.1615    1.6858    0.1023 C.3        1 <1>        0.000
      3 C14         3.4970   -0.4515    0.2951 C.3        1 <1>        0.000
      4 C15         3.4596    2.4193   -0.2751 C.3        1 <1>        0.000
      5 C16         4.7551    0.3427   -0.0944 C.3        1 <1>        0.000
      6 N1          4.6500    1.7625    0.3105 N.4        1 <1>        0.000
      7 H           2.2802    0.1308   -1.3887 H.spc      1 <1>        0.000
      8 H           1.3549   -0.3152    0.0762 H.spc      1 <1>        0.000
      9 H           2.0216    1.7502    1.1814 H.spc      1 <1>        0.000
     10 H           1.3281    2.1520   -0.4232 H.spc      1 <1>        0.000
     11 H           3.5860   -1.4663   -0.0926 H.spc      1 <1>        0.000
     12 H           3.4083   -0.4620    1.3814 H.spc      1 <1>        0.000
     13 H           3.5588    2.4052   -1.3605 H.spc      1 <1>        0.000
     14 H           3.4038    3.4369    0.1116 H.spc      1 <1>        0.000
     15 H           5.6121   -0.0982    0.4148 H.spc      1 <1>        0.000
     16 H           4.8671    0.3009   -1.1778 H.spc      1 <1>        0.000
     17 H           4.5672    1.7992    1.3265 H.spc      1 <1>        0.000
     18 H           5.4806    2.2517   -0.0229 H.spc      1 <1>        0.000
@<TRIPOS>BOND
     1    4    6 1  
     2    5    6 1  
     3    1    2 1  
     4    1    3 1  
     5    2    4 1  
     6    3    5 1  
     7    1    7 1  
     8    1    8 1  
     9    2    9 1  
    10    2   10 1  
    11    3   11 1  
    12    3   12 1  
    13    4   13 1  
    14    4   14 1  
    15    5   15 1  
    16    5   16 1  
    17    6   17 1  
    18    6   18 1  
# Name:          frag4-291-5529/150395 -- energy: -1.634141
# Creation time: Sat Jun  5 12:53:29 2010


@<TRIPOS>MOLECULE
frag4-291-5529/150395 -- energy: -1.634141
   18    18     1     1     1
SMALL
USER_CHARGES


@<TRIPOS>ATOM
      1 C12         2.2369    0.2018   -0.3019 C.3        1 <1>        0.000
      2 C13         2.1615    1.6858    0.1023 C.3        1 <1>        0.000
      3 C14         3.4970   -0.4515    0.2951 C.3        1 <1>        0.000
      4 C15         3.4596    2.4193   -0.2751 C.3        1 <1>        0.000
      5 C16         4.7551    0.3427   -0.0944 C.3        1 <1>        0.000
      6 N1          4.6500    1.7625    0.3105 N.4        1 <1>        0.000
      7 H           2.2802    0.1308   -1.3887 H.spc      1 <1>        0.000
      8 H           1.3549   -0.3152    0.0762 H.spc      1 <1>        0.000
      9 H           2.0216    1.7502    1.1814 H.spc      1 <1>        0.000
     10 H           1.3281    2.1520   -0.4232 H.spc      1 <1>        0.000
     11 H           3.5860   -1.4663   -0.0926 H.spc      1 <1>        0.000
     12 H           3.4083   -0.4620    1.3814 H.spc      1 <1>        0.000
     13 H           3.5588    2.4052   -1.3605 H.spc      1 <1>        0.000
     14 H           3.4038    3.4369    0.1116 H.spc      1 <1>        0.000
     15 H           5.6121   -0.0982    0.4148 H.spc      1 <1>        0.000
     16 H           4.8671    0.3009   -1.1778 H.spc      1 <1>        0.000
     17 H           4.5672    1.7992    1.3265 H.spc      1 <1>        0.000
     18 H           5.4806    2.2517   -0.0229 H.spc      1 <1>        0.000
@<TRIPOS>BOND
     1    4    6 1  
     2    5    6 1  
     3    1    2 1  
     4    1    3 1  
     5    2    4 1  
     6    3    5 1  
     7    1    7 1  
     8    1    8 1  
     9    2    9 1  
    10    2   10 1  
    11    3   11 1  
    12    3   12 1  
    13    4   13 1  
    14    4   14 1  
    15    5   15 1  
    16    5   16 1  
    17    6   17 1  
    18    6   18 1  
