#      Rotatable Fragment
#      Build by yxyuan
#
# Name:          frag3-142-24/31924
# Creation time: Sat Jun  5 12:52:04 2010


@<TRIPOS>MOLECULE
frag3-142-24/31924
    6     5     1     1     1
SMALL
USER_CHARGES


@<TRIPOS>ATOM
      1 C36         0.7254    0.1810   -0.0039 C.2        1 <1>        0.000
      2 O7          1.0285    1.2464    0.5069 O.2        1 <1>        0.000
      3 C37        -0.7111   -0.2300    0.0138 C.2        1 <1>        0.000
      4 O8         -1.0846   -1.0605   -0.7982 O.2        1 <1>        0.000
      5 H           1.4831   -0.4550   -0.4616 H.spc      1 <1>        0.000
      6 H          -1.4072    0.2009    0.7334 H.spc      1 <1>        0.000
@<TRIPOS>BOND
     1    1    2 2  
     2    1    3 1  
     3    3    4 2  
     4    1    5 1  
     5    3    6 1  
# Name:          frag3-142-24/31924
# Creation time: Sat Jun  5 12:52:04 2010


@<TRIPOS>MOLECULE
frag3-142-24/31924
    6     5     1     1     1
SMALL
USER_CHARGES


@<TRIPOS>ATOM
      1 C36         0.6085    0.5507   -0.3166 C.2        1 <1>        0.000
      2 O7          1.0414    0.8116    0.7925 O.2        1 <1>        0.000
      3 C37        -0.7738   -0.0092   -0.4257 C.2        1 <1>        0.000
      4 O8         -0.9180   -1.2161   -0.3315 O.2        1 <1>        0.000
      5 H           1.2139    0.7213   -1.2068 H.spc      1 <1>        0.000
      6 H          -1.6308    0.6452   -0.5854 H.spc      1 <1>        0.000
@<TRIPOS>BOND
     1    1    2 2  
     2    1    3 1  
     3    3    4 2  
     4    1    5 1  
     5    3    6 1  
# Name:          frag3-142-24/31924 -- energy: -0.119876
# Creation time: Sat Jun  5 12:52:04 2010


@<TRIPOS>MOLECULE
frag3-142-24/31924 -- energy: -0.119876
    6     5     1     1     1
SMALL
USER_CHARGES


@<TRIPOS>ATOM
      1 C36         0.7254    0.1810   -0.0039 C.2        1 <1>        0.000
      2 O7          1.0285    1.2464    0.5069 O.2        1 <1>        0.000
      3 C37        -0.7111   -0.2300    0.0138 C.2        1 <1>        0.000
      4 O8         -1.0846   -1.0605   -0.7982 O.2        1 <1>        0.000
      5 H           1.4831   -0.4550   -0.4616 H.spc      1 <1>        0.000
      6 H          -1.4072    0.2009    0.7334 H.spc      1 <1>        0.000
@<TRIPOS>BOND
     1    1    2 2  
     2    1    3 1  
     3    3    4 2  
     4    1    5 1  
     5    3    6 1  
# Name:          frag3-142-24/31924 -- energy: -0.124335
# Creation time: Sat Jun  5 12:52:04 2010


@<TRIPOS>MOLECULE
frag3-142-24/31924 -- energy: -0.124335
    6     5     1     1     1
SMALL
USER_CHARGES


@<TRIPOS>ATOM
      1 C36         0.6085    0.5507   -0.3166 C.2        1 <1>        0.000
      2 O7          1.0414    0.8116    0.7925 O.2        1 <1>        0.000
      3 C37        -0.7738   -0.0092   -0.4257 C.2        1 <1>        0.000
      4 O8         -0.9180   -1.2161   -0.3315 O.2        1 <1>        0.000
      5 H           1.2139    0.7213   -1.2068 H.spc      1 <1>        0.000
      6 H          -1.6308    0.6452   -0.5854 H.spc      1 <1>        0.000
@<TRIPOS>BOND
     1    1    2 2  
     2    1    3 1  
     3    3    4 2  
     4    1    5 1  
     5    3    6 1  
