#      Rotatable Fragment
#      Build by yxyuan
#
# Name:          frag3-276-3/96164
# Creation time: Sat Jun  5 12:53:23 2010


@<TRIPOS>MOLECULE
frag3-276-3/96164
   17    16     1     1     1
SMALL
USER_CHARGES


@<TRIPOS>ATOM
      1 C14        -0.1015    0.0424    0.0793 C.2        1 <1>        0.000
      2 N1          0.9014    0.8057    0.1272 N.2        1 <1>        0.000
      3 N2          0.8170    2.1397    0.0421 N.pl3      1 <1>        0.000
      4 C21         1.8961    2.8412    0.2149 C.cat      1 <1>        0.000
      5 N3          3.0729    2.2722   -0.0161 N.pl3      1 <1>        0.000
      6 N4          1.8725    4.0661    0.6051 N.pl3      1 <1>        0.000
      7 C22         4.1361    2.8268   -0.4789 C.cat      1 <1>        0.000
      8 N5          4.0835    4.0102   -1.0296 N.pl3      1 <1>        0.000
      9 N6          5.2832    2.2024   -0.3824 N.pl3      1 <1>        0.000
     10 H          -1.1007    0.4621   -0.0369 H.spc      1 <1>        0.000
     11 H           0.0310   -1.0369    0.1541 H.spc      1 <1>        0.000
     12 H          -0.0747    2.5944   -0.1540 H.spc      1 <1>        0.000
     13 H           3.1416    1.2775    0.1990 H.spc      1 <1>        0.000
     14 H           2.7456    4.5783    0.7306 H.spc      1 <1>        0.000
     15 H           4.9349    4.4463   -1.3835 H.spc      1 <1>        0.000
     16 H           6.1335    2.6402   -0.7369 H.spc      1 <1>        0.000
     17 H           5.3263    1.2783    0.0473 H.spc      1 <1>        0.000
@<TRIPOS>BOND
     1    7    8 ar 
     2    7    9 ar 
     3    5    7 ar 
     4    1    2 2  
     5    2    3 1  
     6    3    4 ar 
     7    4    5 ar 
     8    4    6 ar 
     9    1   10 1  
    10    1   11 1  
    11    3   12 1  
    12    5   13 1  
    13    6   14 1  
    14    8   15 1  
    15    9   16 1  
    16    9   17 1  
# Name:          frag3-276-3/96164
# Creation time: Sat Jun  5 12:53:23 2010


@<TRIPOS>MOLECULE
frag3-276-3/96164
   17    16     1     1     1
SMALL
USER_CHARGES


@<TRIPOS>ATOM
      1 C14        -0.1349    0.0576    0.3045 C.2        1 <1>        0.000
      2 N1          0.8914    0.7798    0.1934 N.2        1 <1>        0.000
      3 N2          0.8949    2.0991    0.4368 N.pl3      1 <1>        0.000
      4 C21         1.8581    2.8186   -0.0441 C.cat      1 <1>        0.000
      5 N3          3.0529    2.2626   -0.2095 N.pl3      1 <1>        0.000
      6 N4          1.7003    4.0492   -0.3866 N.pl3      1 <1>        0.000
      7 C22         4.1868    2.8525   -0.3248 C.cat      1 <1>        0.000
      8 N5          4.4592    3.9209    0.3715 N.pl3      1 <1>        0.000
      9 N6          5.0525    2.3663   -1.1795 N.pl3      1 <1>        0.000
     10 H          -1.0821    0.5003    0.6124 H.spc      1 <1>        0.000
     11 H          -0.0756   -1.0100    0.0927 H.spc      1 <1>        0.000
     12 H           0.1528    2.5273    0.9902 H.spc      1 <1>        0.000
     13 H           3.0715    1.2436   -0.2497 H.spc      1 <1>        0.000
     14 H           2.4833    4.5749   -0.7752 H.spc      1 <1>        0.000
     15 H           5.3571    4.3906    0.2547 H.spc      1 <1>        0.000
     16 H           5.9548    2.8243   -1.3079 H.spc      1 <1>        0.000
     17 H           4.8242    1.5297   -1.7166 H.spc      1 <1>        0.000
@<TRIPOS>BOND
     1    7    8 ar 
     2    7    9 ar 
     3    5    7 ar 
     4    1    2 2  
     5    2    3 1  
     6    3    4 ar 
     7    4    5 ar 
     8    4    6 ar 
     9    1   10 1  
    10    1   11 1  
    11    3   12 1  
    12    5   13 1  
    13    6   14 1  
    14    8   15 1  
    15    9   16 1  
    16    9   17 1  
# Name:          frag3-276-3/96164
# Creation time: Sat Jun  5 12:53:23 2010


@<TRIPOS>MOLECULE
frag3-276-3/96164
   17    16     1     1     1
SMALL
USER_CHARGES


@<TRIPOS>ATOM
      1 C14        -0.3192    0.2398   -0.1593 C.2        1 <1>        0.000
      2 N1          0.7206    0.9460   -0.2367 N.2        1 <1>        0.000
      3 N2          1.0957    1.8173    0.7135 N.pl3      1 <1>        0.000
      4 C21         2.0358    2.6649    0.4441 C.cat      1 <1>        0.000
      5 N3          2.9611    2.3321   -0.4526 N.pl3      1 <1>        0.000
      6 N4          2.1013    3.8269    0.9954 N.pl3      1 <1>        0.000
      7 C22         4.0806    2.9214   -0.6656 C.cat      1 <1>        0.000
      8 N5          4.4671    3.2279   -1.8619 N.pl3      1 <1>        0.000
      9 N6          4.8182    3.2303    0.3849 N.pl3      1 <1>        0.000
     10 H          -0.9679    0.3187    0.7131 H.spc      1 <1>        0.000
     11 H          -0.5705   -0.4503   -0.9647 H.spc      1 <1>        0.000
     12 H           0.6483    1.8113    1.6301 H.spc      1 <1>        0.000
     13 H           2.7580    1.5193   -1.0344 H.spc      1 <1>        0.000
     14 H           2.8513    4.4701    0.7420 H.spc      1 <1>        0.000
     15 H           5.3523    3.7147   -2.0028 H.spc      1 <1>        0.000
     16 H           5.7058    3.7171    0.2595 H.spc      1 <1>        0.000
     17 H           4.5005    2.9822    1.3219 H.spc      1 <1>        0.000
@<TRIPOS>BOND
     1    7    8 ar 
     2    7    9 ar 
     3    5    7 ar 
     4    1    2 2  
     5    2    3 1  
     6    3    4 ar 
     7    4    5 ar 
     8    4    6 ar 
     9    1   10 1  
    10    1   11 1  
    11    3   12 1  
    12    5   13 1  
    13    6   14 1  
    14    8   15 1  
    15    9   16 1  
    16    9   17 1  
# Name:          frag3-276-3/96164
# Creation time: Sat Jun  5 12:53:23 2010


@<TRIPOS>MOLECULE
frag3-276-3/96164
   17    16     1     1     1
SMALL
USER_CHARGES


@<TRIPOS>ATOM
      1 C14        -0.6695    0.4209    0.1016 C.2        1 <1>        0.000
      2 N1          0.1143    1.3935    0.2746 N.2        1 <1>        0.000
      3 N2          1.4093    1.3658   -0.0225 N.pl3      1 <1>        0.000
      4 C21         2.1693    2.3931    0.2015 C.cat      1 <1>        0.000
      5 N3          3.4758    2.2451    0.1459 N.pl3      1 <1>        0.000
      6 N4          1.6652    3.5544    0.4663 N.pl3      1 <1>        0.000
      7 C22         4.3100    3.0246   -0.4690 C.cat      1 <1>        0.000
      8 N5          3.8983    4.0594   -1.1336 N.pl3      1 <1>        0.000
      9 N6          5.5884    2.7498   -0.4031 N.pl3      1 <1>        0.000
     10 H          -0.2944   -0.5139   -0.3150 H.spc      1 <1>        0.000
     11 H          -1.7221    0.5150    0.3686 H.spc      1 <1>        0.000
     12 H           1.8121    0.5235   -0.4332 H.spc      1 <1>        0.000
     13 H           3.8700    1.4403    0.6331 H.spc      1 <1>        0.000
     14 H           2.2798    4.3516    0.6312 H.spc      1 <1>        0.000
     15 H           4.5712    4.6622   -1.6071 H.spc      1 <1>        0.000
     16 H           6.2642    3.3504   -0.8754 H.spc      1 <1>        0.000
     17 H           5.9086    1.9351    0.1205 H.spc      1 <1>        0.000
@<TRIPOS>BOND
     1    7    8 ar 
     2    7    9 ar 
     3    5    7 ar 
     4    1    2 2  
     5    2    3 1  
     6    3    4 ar 
     7    4    5 ar 
     8    4    6 ar 
     9    1   10 1  
    10    1   11 1  
    11    3   12 1  
    12    5   13 1  
    13    6   14 1  
    14    8   15 1  
    15    9   16 1  
    16    9   17 1  
# Name:          frag3-276-3/96164
# Creation time: Sat Jun  5 12:53:23 2010


@<TRIPOS>MOLECULE
frag3-276-3/96164
   17    16     1     1     1
SMALL
USER_CHARGES


@<TRIPOS>ATOM
      1 C14         0.9603    0.1109    0.7506 C.2        1 <1>        0.000
      2 N1          0.7545    0.9584   -0.1648 N.2        1 <1>        0.000
      3 N2          0.6663    2.2804    0.0506 N.pl3      1 <1>        0.000
      4 C21         1.7113    3.0133   -0.1824 C.cat      1 <1>        0.000
      5 N3          2.8064    2.4406   -0.6769 N.pl3      1 <1>        0.000
      6 N4          1.7466    4.2742    0.0619 N.pl3      1 <1>        0.000
      7 C22         4.0286    2.6405   -0.3305 C.cat      1 <1>        0.000
      8 N5          4.3147    3.1611    0.8341 N.pl3      1 <1>        0.000
      9 N6          4.9725    2.3273   -1.1809 N.pl3      1 <1>        0.000
     10 H           1.0769    0.4411    1.7828 H.spc      1 <1>        0.000
     11 H           1.0211   -0.9499    0.5075 H.spc      1 <1>        0.000
     12 H          -0.2005    2.6983    0.3889 H.spc      1 <1>        0.000
     13 H           2.6580    1.7598   -1.4218 H.spc      1 <1>        0.000
     14 H           2.5970    4.8060   -0.1235 H.spc      1 <1>        0.000
     15 H           5.2870    3.3294    1.0925 H.spc      1 <1>        0.000
     16 H           5.9504    2.4885   -0.9396 H.spc      1 <1>        0.000
     17 H           4.7304    1.9220   -2.0851 H.spc      1 <1>        0.000
@<TRIPOS>BOND
     1    7    8 ar 
     2    7    9 ar 
     3    5    7 ar 
     4    1    2 2  
     5    2    3 1  
     6    3    4 ar 
     7    4    5 ar 
     8    4    6 ar 
     9    1   10 1  
    10    1   11 1  
    11    3   12 1  
    12    5   13 1  
    13    6   14 1  
    14    8   15 1  
    15    9   16 1  
    16    9   17 1  
# Name:          frag3-276-3/96164
# Creation time: Sat Jun  5 12:53:23 2010


@<TRIPOS>MOLECULE
frag3-276-3/96164
   17    16     1     1     1
SMALL
USER_CHARGES


@<TRIPOS>ATOM
      1 C14         0.4992    0.5763   -0.8002 C.2        1 <1>        0.000
      2 N1          0.7348    0.8137    0.4240 N.2        1 <1>        0.000
      3 N2          0.9072    2.0398    0.9019 N.pl3      1 <1>        0.000
      4 C21         1.8712    2.7582    0.4334 C.cat      1 <1>        0.000
      5 N3          2.8998    2.2160   -0.2315 N.pl3      1 <1>        0.000
      6 N4          1.9095    4.0413    0.5585 N.pl3      1 <1>        0.000
      7 C22         4.0109    2.7278   -0.5979 C.cat      1 <1>        0.000
      8 N5          5.0035    1.9965   -1.0119 N.pl3      1 <1>        0.000
      9 N6          4.1249    4.0371   -0.5146 N.pl3      1 <1>        0.000
     10 H           0.4305    1.3993   -1.5116 H.spc      1 <1>        0.000
     11 H           0.3656   -0.4506   -1.1403 H.spc      1 <1>        0.000
     12 H           0.2895    2.4072    1.6257 H.spc      1 <1>        0.000
     13 H           2.7756    1.2362   -0.4863 H.spc      1 <1>        0.000
     14 H           2.6877    4.5692    0.1634 H.spc      1 <1>        0.000
     15 H           5.8849    2.4360   -1.2772 H.spc      1 <1>        0.000
     16 H           5.0002    4.4905   -0.7765 H.spc      1 <1>        0.000
     17 H           3.3379    4.5978   -0.1881 H.spc      1 <1>        0.000
@<TRIPOS>BOND
     1    7    8 ar 
     2    7    9 ar 
     3    5    7 ar 
     4    1    2 2  
     5    2    3 1  
     6    3    4 ar 
     7    4    5 ar 
     8    4    6 ar 
     9    1   10 1  
    10    1   11 1  
    11    3   12 1  
    12    5   13 1  
    13    6   14 1  
    14    8   15 1  
    15    9   16 1  
    16    9   17 1  
# Name:          frag3-276-3/96164
# Creation time: Sat Jun  5 12:53:23 2010


@<TRIPOS>MOLECULE
frag3-276-3/96164
   17    16     1     1     1
SMALL
USER_CHARGES


@<TRIPOS>ATOM
      1 C14         0.3893   -0.0669   -0.1617 C.2        1 <1>        0.000
      2 N1          1.0538    0.8538    0.3910 N.2        1 <1>        0.000
      3 N2          0.7943    2.1555    0.2217 N.pl3      1 <1>        0.000
      4 C21         1.8029    2.9772    0.1808 C.cat      1 <1>        0.000
      5 N3          3.0333    2.5131    0.3803 N.pl3      1 <1>        0.000
      6 N4          1.6666    4.2324   -0.0637 N.pl3      1 <1>        0.000
      7 C22         4.0747    2.7507   -0.3410 C.cat      1 <1>        0.000
      8 N5          5.2622    2.7260    0.1689 N.pl3      1 <1>        0.000
      9 N6          3.8839    3.0650   -1.6147 N.pl3      1 <1>        0.000
     10 H          -0.4457    0.1815   -0.8168 H.spc      1 <1>        0.000
     11 H           0.6507   -1.1100    0.0164 H.spc      1 <1>        0.000
     12 H          -0.1636    2.4932    0.1277 H.spc      1 <1>        0.000
     13 H           3.1667    1.9056    1.1887 H.spc      1 <1>        0.000
     14 H           2.4873    4.8371   -0.0995 H.spc      1 <1>        0.000
     15 H           6.0709    2.9505   -0.4108 H.spc      1 <1>        0.000
     16 H           4.6812    3.2923   -2.2089 H.spc      1 <1>        0.000
     17 H           2.9398    3.0795   -2.0005 H.spc      1 <1>        0.000
@<TRIPOS>BOND
     1    7    8 ar 
     2    7    9 ar 
     3    5    7 ar 
     4    1    2 2  
     5    2    3 1  
     6    3    4 ar 
     7    4    5 ar 
     8    4    6 ar 
     9    1   10 1  
    10    1   11 1  
    11    3   12 1  
    12    5   13 1  
    13    6   14 1  
    14    8   15 1  
    15    9   16 1  
    16    9   17 1  
# Name:          frag3-276-3/96164
# Creation time: Sat Jun  5 12:53:23 2010


@<TRIPOS>MOLECULE
frag3-276-3/96164
   17    16     1     1     1
SMALL
USER_CHARGES


@<TRIPOS>ATOM
      1 C14        -0.5513    0.2537    0.4337 C.2        1 <1>        0.000
      2 N1          0.1321    1.2739    0.1491 N.2        1 <1>        0.000
      3 N2          1.3939    1.4504    0.5221 N.pl3      1 <1>        0.000
      4 C21         2.1312    2.3705   -0.0174 C.cat      1 <1>        0.000
      5 N3          3.3848    2.4999    0.3696 N.pl3      1 <1>        0.000
      6 N4          1.6568    3.1594   -0.9279 N.pl3      1 <1>        0.000
      7 C22         4.3041    3.1780   -0.2360 C.cat      1 <1>        0.000
      8 N5          5.1083    3.9542    0.4117 N.pl3      1 <1>        0.000
      9 N6          4.4013    3.0668   -1.5433 N.pl3      1 <1>        0.000
     10 H          -0.1098   -0.5517    1.0206 H.spc      1 <1>        0.000
     11 H          -1.5838    0.1769    0.0929 H.spc      1 <1>        0.000
     12 H           1.7905    0.8514    1.2462 H.spc      1 <1>        0.000
     13 H           3.6550    2.0197    1.2279 H.spc      1 <1>        0.000
     14 H           2.2523    3.8766   -1.3420 H.spc      1 <1>        0.000
     15 H           5.8214    4.4832   -0.0904 H.spc      1 <1>        0.000
     16 H           5.1132    3.5944   -2.0485 H.spc      1 <1>        0.000
     17 H           3.7647    2.4530   -2.0517 H.spc      1 <1>        0.000
@<TRIPOS>BOND
     1    7    8 ar 
     2    7    9 ar 
     3    5    7 ar 
     4    1    2 2  
     5    2    3 1  
     6    3    4 ar 
     7    4    5 ar 
     8    4    6 ar 
     9    1   10 1  
    10    1   11 1  
    11    3   12 1  
    12    5   13 1  
    13    6   14 1  
    14    8   15 1  
    15    9   16 1  
    16    9   17 1  
# Name:          frag3-276-3/96164
# Creation time: Sat Jun  5 12:53:23 2010


@<TRIPOS>MOLECULE
frag3-276-3/96164
   17    16     1     1     1
SMALL
USER_CHARGES


@<TRIPOS>ATOM
      1 C14         0.2802    0.3707   -0.5410 C.2        1 <1>        0.000
      2 N1          0.8246    0.7891    0.5249 N.2        1 <1>        0.000
      3 N2          0.9222    2.0859    0.8248 N.pl3      1 <1>        0.000
      4 C21         1.8554    2.7955    0.2675 C.cat      1 <1>        0.000
      5 N3          3.0887    2.3098    0.1904 N.pl3      1 <1>        0.000
      6 N4          1.6229    3.9484   -0.2614 N.pl3      1 <1>        0.000
      7 C22         4.1105    2.8045   -0.4045 C.cat      1 <1>        0.000
      8 N5          4.1830    4.0883   -0.6273 N.pl3      1 <1>        0.000
      9 N6          5.0735    2.0146   -0.8117 N.pl3      1 <1>        0.000
     10 H          -0.1324    1.0811   -1.2574 H.spc      1 <1>        0.000
     11 H           0.2248   -0.6994   -0.7410 H.spc      1 <1>        0.000
     12 H           0.2717    2.5140    1.4836 H.spc      1 <1>        0.000
     13 H           3.2440    1.4228    0.6695 H.spc      1 <1>        0.000
     14 H           2.3760    4.4594   -0.7220 H.spc      1 <1>        0.000
     15 H           4.9888    4.4761   -1.1180 H.spc      1 <1>        0.000
     16 H           5.8789    2.4033   -1.3023 H.spc      1 <1>        0.000
     17 H           5.0177    1.0110   -0.6380 H.spc      1 <1>        0.000
@<TRIPOS>BOND
     1    7    8 ar 
     2    7    9 ar 
     3    5    7 ar 
     4    1    2 2  
     5    2    3 1  
     6    3    4 ar 
     7    4    5 ar 
     8    4    6 ar 
     9    1   10 1  
    10    1   11 1  
    11    3   12 1  
    12    5   13 1  
    13    6   14 1  
    14    8   15 1  
    15    9   16 1  
    16    9   17 1  
# Name:          frag3-276-3/96164 -- energy: -0.501350
# Creation time: Sat Jun  5 12:53:23 2010


@<TRIPOS>MOLECULE
frag3-276-3/96164 -- energy: -0.501350
   17    16     1     1     1
SMALL
USER_CHARGES


@<TRIPOS>ATOM
      1 C14        -0.1015    0.0424    0.0793 C.2        1 <1>        0.000
      2 N1          0.9014    0.8057    0.1272 N.2        1 <1>        0.000
      3 N2          0.8170    2.1397    0.0421 N.pl3      1 <1>        0.000
      4 C21         1.8961    2.8412    0.2149 C.cat      1 <1>        0.000
      5 N3          3.0729    2.2722   -0.0161 N.pl3      1 <1>        0.000
      6 N4          1.8725    4.0661    0.6051 N.pl3      1 <1>        0.000
      7 C22         4.1361    2.8268   -0.4789 C.cat      1 <1>        0.000
      8 N5          4.0835    4.0102   -1.0296 N.pl3      1 <1>        0.000
      9 N6          5.2832    2.2024   -0.3824 N.pl3      1 <1>        0.000
     10 H          -1.1007    0.4621   -0.0369 H.spc      1 <1>        0.000
     11 H           0.0310   -1.0369    0.1541 H.spc      1 <1>        0.000
     12 H          -0.0747    2.5944   -0.1540 H.spc      1 <1>        0.000
     13 H           3.1416    1.2775    0.1990 H.spc      1 <1>        0.000
     14 H           2.7456    4.5783    0.7306 H.spc      1 <1>        0.000
     15 H           4.9349    4.4463   -1.3835 H.spc      1 <1>        0.000
     16 H           6.1335    2.6402   -0.7369 H.spc      1 <1>        0.000
     17 H           5.3263    1.2783    0.0473 H.spc      1 <1>        0.000
@<TRIPOS>BOND
     1    7    8 ar 
     2    7    9 ar 
     3    5    7 ar 
     4    1    2 2  
     5    2    3 1  
     6    3    4 ar 
     7    4    5 ar 
     8    4    6 ar 
     9    1   10 1  
    10    1   11 1  
    11    3   12 1  
    12    5   13 1  
    13    6   14 1  
    14    8   15 1  
    15    9   16 1  
    16    9   17 1  
# Name:          frag3-276-3/96164 -- energy: -0.692883
# Creation time: Sat Jun  5 12:53:23 2010


@<TRIPOS>MOLECULE
frag3-276-3/96164 -- energy: -0.692883
   17    16     1     1     1
SMALL
USER_CHARGES


@<TRIPOS>ATOM
      1 C14        -0.1349    0.0576    0.3045 C.2        1 <1>        0.000
      2 N1          0.8914    0.7798    0.1934 N.2        1 <1>        0.000
      3 N2          0.8949    2.0991    0.4368 N.pl3      1 <1>        0.000
      4 C21         1.8581    2.8186   -0.0441 C.cat      1 <1>        0.000
      5 N3          3.0529    2.2626   -0.2095 N.pl3      1 <1>        0.000
      6 N4          1.7003    4.0492   -0.3866 N.pl3      1 <1>        0.000
      7 C22         4.1868    2.8525   -0.3248 C.cat      1 <1>        0.000
      8 N5          4.4592    3.9209    0.3715 N.pl3      1 <1>        0.000
      9 N6          5.0525    2.3663   -1.1795 N.pl3      1 <1>        0.000
     10 H          -1.0821    0.5003    0.6124 H.spc      1 <1>        0.000
     11 H          -0.0756   -1.0100    0.0927 H.spc      1 <1>        0.000
     12 H           0.1528    2.5273    0.9902 H.spc      1 <1>        0.000
     13 H           3.0715    1.2436   -0.2497 H.spc      1 <1>        0.000
     14 H           2.4833    4.5749   -0.7752 H.spc      1 <1>        0.000
     15 H           5.3571    4.3906    0.2547 H.spc      1 <1>        0.000
     16 H           5.9548    2.8243   -1.3079 H.spc      1 <1>        0.000
     17 H           4.8242    1.5297   -1.7166 H.spc      1 <1>        0.000
@<TRIPOS>BOND
     1    7    8 ar 
     2    7    9 ar 
     3    5    7 ar 
     4    1    2 2  
     5    2    3 1  
     6    3    4 ar 
     7    4    5 ar 
     8    4    6 ar 
     9    1   10 1  
    10    1   11 1  
    11    3   12 1  
    12    5   13 1  
    13    6   14 1  
    14    8   15 1  
    15    9   16 1  
    16    9   17 1  
# Name:          frag3-276-3/96164 -- energy: -0.620428
# Creation time: Sat Jun  5 12:53:23 2010


@<TRIPOS>MOLECULE
frag3-276-3/96164 -- energy: -0.620428
   17    16     1     1     1
SMALL
USER_CHARGES


@<TRIPOS>ATOM
      1 C14        -0.3192    0.2398   -0.1593 C.2        1 <1>        0.000
      2 N1          0.7206    0.9460   -0.2367 N.2        1 <1>        0.000
      3 N2          1.0957    1.8173    0.7135 N.pl3      1 <1>        0.000
      4 C21         2.0358    2.6649    0.4441 C.cat      1 <1>        0.000
      5 N3          2.9611    2.3321   -0.4526 N.pl3      1 <1>        0.000
      6 N4          2.1013    3.8269    0.9954 N.pl3      1 <1>        0.000
      7 C22         4.0806    2.9214   -0.6656 C.cat      1 <1>        0.000
      8 N5          4.4671    3.2279   -1.8619 N.pl3      1 <1>        0.000
      9 N6          4.8182    3.2303    0.3849 N.pl3      1 <1>        0.000
     10 H          -0.9679    0.3187    0.7131 H.spc      1 <1>        0.000
     11 H          -0.5705   -0.4503   -0.9647 H.spc      1 <1>        0.000
     12 H           0.6483    1.8113    1.6301 H.spc      1 <1>        0.000
     13 H           2.7580    1.5193   -1.0344 H.spc      1 <1>        0.000
     14 H           2.8513    4.4701    0.7420 H.spc      1 <1>        0.000
     15 H           5.3523    3.7147   -2.0028 H.spc      1 <1>        0.000
     16 H           5.7058    3.7171    0.2595 H.spc      1 <1>        0.000
     17 H           4.5005    2.9822    1.3219 H.spc      1 <1>        0.000
@<TRIPOS>BOND
     1    7    8 ar 
     2    7    9 ar 
     3    5    7 ar 
     4    1    2 2  
     5    2    3 1  
     6    3    4 ar 
     7    4    5 ar 
     8    4    6 ar 
     9    1   10 1  
    10    1   11 1  
    11    3   12 1  
    12    5   13 1  
    13    6   14 1  
    14    8   15 1  
    15    9   16 1  
    16    9   17 1  
# Name:          frag3-276-3/96164 -- energy: -0.961045
# Creation time: Sat Jun  5 12:53:23 2010


@<TRIPOS>MOLECULE
frag3-276-3/96164 -- energy: -0.961045
   17    16     1     1     1
SMALL
USER_CHARGES


@<TRIPOS>ATOM
      1 C14        -0.6695    0.4209    0.1016 C.2        1 <1>        0.000
      2 N1          0.1143    1.3935    0.2746 N.2        1 <1>        0.000
      3 N2          1.4093    1.3658   -0.0225 N.pl3      1 <1>        0.000
      4 C21         2.1693    2.3931    0.2015 C.cat      1 <1>        0.000
      5 N3          3.4758    2.2451    0.1459 N.pl3      1 <1>        0.000
      6 N4          1.6652    3.5544    0.4663 N.pl3      1 <1>        0.000
      7 C22         4.3100    3.0246   -0.4690 C.cat      1 <1>        0.000
      8 N5          3.8983    4.0594   -1.1336 N.pl3      1 <1>        0.000
      9 N6          5.5884    2.7498   -0.4031 N.pl3      1 <1>        0.000
     10 H          -0.2944   -0.5139   -0.3150 H.spc      1 <1>        0.000
     11 H          -1.7221    0.5150    0.3686 H.spc      1 <1>        0.000
     12 H           1.8121    0.5235   -0.4332 H.spc      1 <1>        0.000
     13 H           3.8700    1.4403    0.6331 H.spc      1 <1>        0.000
     14 H           2.2798    4.3516    0.6312 H.spc      1 <1>        0.000
     15 H           4.5712    4.6622   -1.6071 H.spc      1 <1>        0.000
     16 H           6.2642    3.3504   -0.8754 H.spc      1 <1>        0.000
     17 H           5.9086    1.9351    0.1205 H.spc      1 <1>        0.000
@<TRIPOS>BOND
     1    7    8 ar 
     2    7    9 ar 
     3    5    7 ar 
     4    1    2 2  
     5    2    3 1  
     6    3    4 ar 
     7    4    5 ar 
     8    4    6 ar 
     9    1   10 1  
    10    1   11 1  
    11    3   12 1  
    12    5   13 1  
    13    6   14 1  
    14    8   15 1  
    15    9   16 1  
    16    9   17 1  
# Name:          frag3-276-3/96164 -- energy: -1.295189
# Creation time: Sat Jun  5 12:53:23 2010


@<TRIPOS>MOLECULE
frag3-276-3/96164 -- energy: -1.295189
   17    16     1     1     1
SMALL
USER_CHARGES


@<TRIPOS>ATOM
      1 C14         0.9603    0.1109    0.7506 C.2        1 <1>        0.000
      2 N1          0.7545    0.9584   -0.1648 N.2        1 <1>        0.000
      3 N2          0.6663    2.2804    0.0506 N.pl3      1 <1>        0.000
      4 C21         1.7113    3.0133   -0.1824 C.cat      1 <1>        0.000
      5 N3          2.8064    2.4406   -0.6769 N.pl3      1 <1>        0.000
      6 N4          1.7466    4.2742    0.0619 N.pl3      1 <1>        0.000
      7 C22         4.0286    2.6405   -0.3305 C.cat      1 <1>        0.000
      8 N5          4.3147    3.1611    0.8341 N.pl3      1 <1>        0.000
      9 N6          4.9725    2.3273   -1.1809 N.pl3      1 <1>        0.000
     10 H           1.0769    0.4411    1.7828 H.spc      1 <1>        0.000
     11 H           1.0211   -0.9499    0.5075 H.spc      1 <1>        0.000
     12 H          -0.2005    2.6983    0.3889 H.spc      1 <1>        0.000
     13 H           2.6580    1.7598   -1.4218 H.spc      1 <1>        0.000
     14 H           2.5970    4.8060   -0.1235 H.spc      1 <1>        0.000
     15 H           5.2870    3.3294    1.0925 H.spc      1 <1>        0.000
     16 H           5.9504    2.4885   -0.9396 H.spc      1 <1>        0.000
     17 H           4.7304    1.9220   -2.0851 H.spc      1 <1>        0.000
@<TRIPOS>BOND
     1    7    8 ar 
     2    7    9 ar 
     3    5    7 ar 
     4    1    2 2  
     5    2    3 1  
     6    3    4 ar 
     7    4    5 ar 
     8    4    6 ar 
     9    1   10 1  
    10    1   11 1  
    11    3   12 1  
    12    5   13 1  
    13    6   14 1  
    14    8   15 1  
    15    9   16 1  
    16    9   17 1  
# Name:          frag3-276-3/96164 -- energy: -1.216562
# Creation time: Sat Jun  5 12:53:23 2010


@<TRIPOS>MOLECULE
frag3-276-3/96164 -- energy: -1.216562
   17    16     1     1     1
SMALL
USER_CHARGES


@<TRIPOS>ATOM
      1 C14         0.3893   -0.0669   -0.1617 C.2        1 <1>        0.000
      2 N1          1.0538    0.8538    0.3910 N.2        1 <1>        0.000
      3 N2          0.7943    2.1555    0.2217 N.pl3      1 <1>        0.000
      4 C21         1.8029    2.9772    0.1808 C.cat      1 <1>        0.000
      5 N3          3.0333    2.5131    0.3803 N.pl3      1 <1>        0.000
      6 N4          1.6666    4.2324   -0.0637 N.pl3      1 <1>        0.000
      7 C22         4.0747    2.7507   -0.3410 C.cat      1 <1>        0.000
      8 N5          5.2622    2.7260    0.1689 N.pl3      1 <1>        0.000
      9 N6          3.8839    3.0650   -1.6147 N.pl3      1 <1>        0.000
     10 H          -0.4457    0.1815   -0.8168 H.spc      1 <1>        0.000
     11 H           0.6507   -1.1100    0.0164 H.spc      1 <1>        0.000
     12 H          -0.1636    2.4932    0.1277 H.spc      1 <1>        0.000
     13 H           3.1667    1.9056    1.1887 H.spc      1 <1>        0.000
     14 H           2.4873    4.8371   -0.0995 H.spc      1 <1>        0.000
     15 H           6.0709    2.9505   -0.4108 H.spc      1 <1>        0.000
     16 H           4.6812    3.2923   -2.2089 H.spc      1 <1>        0.000
     17 H           2.9398    3.0795   -2.0005 H.spc      1 <1>        0.000
@<TRIPOS>BOND
     1    7    8 ar 
     2    7    9 ar 
     3    5    7 ar 
     4    1    2 2  
     5    2    3 1  
     6    3    4 ar 
     7    4    5 ar 
     8    4    6 ar 
     9    1   10 1  
    10    1   11 1  
    11    3   12 1  
    12    5   13 1  
    13    6   14 1  
    14    8   15 1  
    15    9   16 1  
    16    9   17 1  
# Name:          frag3-276-3/96164 -- energy: -0.666037
# Creation time: Sat Jun  5 12:53:23 2010


@<TRIPOS>MOLECULE
frag3-276-3/96164 -- energy: -0.666037
   17    16     1     1     1
SMALL
USER_CHARGES


@<TRIPOS>ATOM
      1 C14        -0.5513    0.2537    0.4337 C.2        1 <1>        0.000
      2 N1          0.1321    1.2739    0.1491 N.2        1 <1>        0.000
      3 N2          1.3939    1.4504    0.5221 N.pl3      1 <1>        0.000
      4 C21         2.1312    2.3705   -0.0174 C.cat      1 <1>        0.000
      5 N3          3.3848    2.4999    0.3696 N.pl3      1 <1>        0.000
      6 N4          1.6568    3.1594   -0.9279 N.pl3      1 <1>        0.000
      7 C22         4.3041    3.1780   -0.2360 C.cat      1 <1>        0.000
      8 N5          5.1083    3.9542    0.4117 N.pl3      1 <1>        0.000
      9 N6          4.4013    3.0668   -1.5433 N.pl3      1 <1>        0.000
     10 H          -0.1098   -0.5517    1.0206 H.spc      1 <1>        0.000
     11 H          -1.5838    0.1769    0.0929 H.spc      1 <1>        0.000
     12 H           1.7905    0.8514    1.2462 H.spc      1 <1>        0.000
     13 H           3.6550    2.0197    1.2279 H.spc      1 <1>        0.000
     14 H           2.2523    3.8766   -1.3420 H.spc      1 <1>        0.000
     15 H           5.8214    4.4832   -0.0904 H.spc      1 <1>        0.000
     16 H           5.1132    3.5944   -2.0485 H.spc      1 <1>        0.000
     17 H           3.7647    2.4530   -2.0517 H.spc      1 <1>        0.000
@<TRIPOS>BOND
     1    7    8 ar 
     2    7    9 ar 
     3    5    7 ar 
     4    1    2 2  
     5    2    3 1  
     6    3    4 ar 
     7    4    5 ar 
     8    4    6 ar 
     9    1   10 1  
    10    1   11 1  
    11    3   12 1  
    12    5   13 1  
    13    6   14 1  
    14    8   15 1  
    15    9   16 1  
    16    9   17 1  
