#      Rotatable Fragment
#      Build by yxyuan
#
# Name:          frag5-684-23/41815
# Creation time: Sat Jun  5 12:53:04 2010


@<TRIPOS>MOLECULE
frag5-684-23/41815
   38    42     1     1     1
SMALL
USER_CHARGES


@<TRIPOS>ATOM
      1 N1         -2.4308    1.9936   -0.4747 N.4        1 <1>        0.000
      2 C1         -1.6418    0.7317   -0.4888 C.3        1 <1>        0.000
      3 C2         -1.1391    0.4465   -1.9379 C.3        1 <1>        0.000
      4 C3         -0.2274    1.6302   -2.3399 C.3        1 <1>        0.000
      5 C4          0.6888    1.4991   -3.5979 C.3        1 <1>        0.000
      6 O1          1.8759    2.2715   -3.3332 O.3        1 <1>        0.000
      7 C5          2.0239    2.1320   -1.9671 C.ar       1 <1>        0.000
      8 C6          0.8731    1.7038   -1.3179 C.ar       1 <1>        0.000
      9 C14         0.1226   -1.0352   -3.5428 C.3        1 <1>        0.000
     10 C7          0.8116    1.3661    0.0343 C.ar       1 <1>        0.000
     11 C8          1.9720    1.6304    0.7685 C.ar       1 <1>        0.000
     12 C9          3.1216    2.1254    0.1503 C.ar       1 <1>        0.000
     13 C10         3.1856    2.3727   -1.2342 C.ar       1 <1>        0.000
     14 O2          4.3183    2.8272   -1.8667 O.3        1 <1>        0.000
     15 C12        -0.4706    0.7475    0.5563 C.3        1 <1>        0.000
     16 C13         1.1269    0.0576   -3.7823 C.2        1 <1>        0.000
     17 C15        -0.4238   -0.9069   -2.1183 C.3        1 <1>        0.000
     18 O3          2.2867   -0.2059   -4.0918 O.2        1 <1>        0.000
     19 C18        -1.0196    2.9578   -2.3064 C.3        1 <1>        0.000
     20 C19        -1.6647    3.1784   -0.9290 C.3        1 <1>        0.000
     21 H          -2.7156    2.1652    0.4896 H.spc      1 <1>        0.000
     22 H          -3.2139    1.8715   -1.1167 H.spc      1 <1>        0.000
     23 H          -2.2937   -0.0861   -0.1816 H.spc      1 <1>        0.000
     24 H          -2.0065    0.3637   -2.5928 H.spc      1 <1>        0.000
     25 H           0.1515    1.8359   -4.4844 H.spc      1 <1>        0.000
     26 H          -0.6943   -0.9470   -4.2591 H.spc      1 <1>        0.000
     27 H           0.6003   -2.0070   -3.6670 H.spc      1 <1>        0.000
     28 H           1.9790    1.4466    1.8429 H.spc      1 <1>        0.000
     29 H           4.0012    2.3277    0.7614 H.spc      1 <1>        0.000
     30 H           5.0203    2.9397   -1.2217 H.spc      1 <1>        0.000
     31 H          -0.2498   -0.2891    0.8109 H.spc      1 <1>        0.000
     32 H          -0.7999    1.3504    1.4026 H.spc      1 <1>        0.000
     33 H          -1.1358   -1.7120   -1.9370 H.spc      1 <1>        0.000
     34 H           0.4051   -0.9675   -1.4130 H.spc      1 <1>        0.000
     35 H          -1.8070    2.9147   -3.0589 H.spc      1 <1>        0.000
     36 H          -0.3331    3.7803   -2.5072 H.spc      1 <1>        0.000
     37 H          -0.8693    3.3656   -0.2076 H.spc      1 <1>        0.000
     38 H          -2.3542    4.0189   -1.0076 H.spc      1 <1>        0.000
@<TRIPOS>BOND
     1    7    8 ar 
     2    2    3 1  
     3    7   13 ar 
     4    1    2 1  
     5    1   20 1  
     6    4    8 1  
     7    4   19 1  
     8    6    7 1  
     9    4    5 1  
    10    5   16 1  
    11    3    4 1  
    12    3   17 1  
    13    5    6 1  
    14    8   10 ar 
    15    2   15 1  
    16   19   20 1  
    17    9   17 1  
    18   16   18 2  
    19   16    9 1  
    20   13   14 1  
    21   12   13 ar 
    22   11   12 ar 
    23   10   15 1  
    24   10   11 ar 
    25    1   21 1  
    26    1   22 1  
    27    2   23 1  
    28    3   24 1  
    29    5   25 1  
    30    9   26 1  
    31    9   27 1  
    32   11   28 1  
    33   12   29 1  
    34   14   30 1  
    35   15   31 1  
    36   15   32 1  
    37   17   33 1  
    38   17   34 1  
    39   19   35 1  
    40   19   36 1  
    41   20   37 1  
    42   20   38 1  
# Name:          frag5-684-23/41815 -- energy: -7.624988
# Creation time: Sat Jun  5 12:53:04 2010


@<TRIPOS>MOLECULE
frag5-684-23/41815 -- energy: -7.624988
   38    42     1     1     1
SMALL
USER_CHARGES


@<TRIPOS>ATOM
      1 N1         -2.4308    1.9936   -0.4747 N.4        1 <1>        0.000
      2 C1         -1.6418    0.7317   -0.4888 C.3        1 <1>        0.000
      3 C2         -1.1391    0.4465   -1.9379 C.3        1 <1>        0.000
      4 C3         -0.2274    1.6302   -2.3399 C.3        1 <1>        0.000
      5 C4          0.6888    1.4991   -3.5979 C.3        1 <1>        0.000
      6 O1          1.8759    2.2715   -3.3332 O.3        1 <1>        0.000
      7 C5          2.0239    2.1320   -1.9671 C.ar       1 <1>        0.000
      8 C6          0.8731    1.7038   -1.3179 C.ar       1 <1>        0.000
      9 C14         0.1226   -1.0352   -3.5428 C.3        1 <1>        0.000
     10 C7          0.8116    1.3661    0.0343 C.ar       1 <1>        0.000
     11 C8          1.9720    1.6304    0.7685 C.ar       1 <1>        0.000
     12 C9          3.1216    2.1254    0.1503 C.ar       1 <1>        0.000
     13 C10         3.1856    2.3727   -1.2342 C.ar       1 <1>        0.000
     14 O2          4.3183    2.8272   -1.8667 O.3        1 <1>        0.000
     15 C12        -0.4706    0.7475    0.5563 C.3        1 <1>        0.000
     16 C13         1.1269    0.0576   -3.7823 C.2        1 <1>        0.000
     17 C15        -0.4238   -0.9069   -2.1183 C.3        1 <1>        0.000
     18 O3          2.2867   -0.2059   -4.0918 O.2        1 <1>        0.000
     19 C18        -1.0196    2.9578   -2.3064 C.3        1 <1>        0.000
     20 C19        -1.6647    3.1784   -0.9290 C.3        1 <1>        0.000
     21 H          -2.7156    2.1652    0.4896 H.spc      1 <1>        0.000
     22 H          -3.2139    1.8715   -1.1167 H.spc      1 <1>        0.000
     23 H          -2.2937   -0.0861   -0.1816 H.spc      1 <1>        0.000
     24 H          -2.0065    0.3637   -2.5928 H.spc      1 <1>        0.000
     25 H           0.1515    1.8359   -4.4844 H.spc      1 <1>        0.000
     26 H          -0.6943   -0.9470   -4.2591 H.spc      1 <1>        0.000
     27 H           0.6003   -2.0070   -3.6670 H.spc      1 <1>        0.000
     28 H           1.9790    1.4466    1.8429 H.spc      1 <1>        0.000
     29 H           4.0012    2.3277    0.7614 H.spc      1 <1>        0.000
     30 H           5.0203    2.9397   -1.2217 H.spc      1 <1>        0.000
     31 H          -0.2498   -0.2891    0.8109 H.spc      1 <1>        0.000
     32 H          -0.7999    1.3504    1.4026 H.spc      1 <1>        0.000
     33 H          -1.1358   -1.7120   -1.9370 H.spc      1 <1>        0.000
     34 H           0.4051   -0.9675   -1.4130 H.spc      1 <1>        0.000
     35 H          -1.8070    2.9147   -3.0589 H.spc      1 <1>        0.000
     36 H          -0.3331    3.7803   -2.5072 H.spc      1 <1>        0.000
     37 H          -0.8693    3.3656   -0.2076 H.spc      1 <1>        0.000
     38 H          -2.3542    4.0189   -1.0076 H.spc      1 <1>        0.000
@<TRIPOS>BOND
     1    7    8 ar 
     2    2    3 1  
     3    7   13 ar 
     4    1    2 1  
     5    1   20 1  
     6    4    8 1  
     7    4   19 1  
     8    6    7 1  
     9    4    5 1  
    10    5   16 1  
    11    3    4 1  
    12    3   17 1  
    13    5    6 1  
    14    8   10 ar 
    15    2   15 1  
    16   19   20 1  
    17    9   17 1  
    18   16   18 2  
    19   16    9 1  
    20   13   14 1  
    21   12   13 ar 
    22   11   12 ar 
    23   10   15 1  
    24   10   11 ar 
    25    1   21 1  
    26    1   22 1  
    27    2   23 1  
    28    3   24 1  
    29    5   25 1  
    30    9   26 1  
    31    9   27 1  
    32   11   28 1  
    33   12   29 1  
    34   14   30 1  
    35   15   31 1  
    36   15   32 1  
    37   17   33 1  
    38   17   34 1  
    39   19   35 1  
    40   19   36 1  
    41   20   37 1  
    42   20   38 1  
