#      Rotatable Fragment
#      Build by yxyuan
#
# Name:          frag3-102-299/96164
# Creation time: Sat Jun  5 12:52:59 2010


@<TRIPOS>MOLECULE
frag3-102-299/96164
    8     7     1     1     1
SMALL
USER_CHARGES


@<TRIPOS>ATOM
      1 O2         -0.3784   -0.6579    0.5403 O.3        1 <1>        0.000
      2 P1         -1.7317   -0.4565   -0.2478 P.3        1 <1>        0.000
      3 O7         -1.2902   -0.2554   -1.7509 O.3        1 <1>        0.000
      4 O8         -2.4960   -1.8246   -0.1062 O.3        1 <1>        0.000
      5 O9         -2.4576    0.6738    0.2836 O.2        1 <1>        0.000
      6 H           0.0930   -1.4112    0.1772 H.spc      1 <1>        0.000
      7 H          -0.8142   -1.0335   -2.0503 H.spc      1 <1>        0.000
      8 H          -1.9600   -2.5292   -0.4774 H.spc      1 <1>        0.000
@<TRIPOS>BOND
     1    1    2 1  
     2    2    3 1  
     3    2    4 1  
     4    2    5 2  
     5    1    6 1  
     6    3    7 1  
     7    4    8 1  
# Name:          frag3-102-299/96164 -- energy: -0.383308
# Creation time: Sat Jun  5 12:52:59 2010


@<TRIPOS>MOLECULE
frag3-102-299/96164 -- energy: -0.383308
    8     7     1     1     1
SMALL
USER_CHARGES


@<TRIPOS>ATOM
      1 O2         -0.3784   -0.6579    0.5403 O.3        1 <1>        0.000
      2 P1         -1.7317   -0.4565   -0.2478 P.3        1 <1>        0.000
      3 O7         -1.2902   -0.2554   -1.7509 O.3        1 <1>        0.000
      4 O8         -2.4960   -1.8246   -0.1062 O.3        1 <1>        0.000
      5 O9         -2.4576    0.6738    0.2836 O.2        1 <1>        0.000
      6 H           0.0930   -1.4112    0.1772 H.spc      1 <1>        0.000
      7 H          -0.8142   -1.0335   -2.0503 H.spc      1 <1>        0.000
      8 H          -1.9600   -2.5292   -0.4774 H.spc      1 <1>        0.000
@<TRIPOS>BOND
     1    1    2 1  
     2    2    3 1  
     3    2    4 1  
     4    2    5 2  
     5    1    6 1  
     6    3    7 1  
     7    4    8 1  
