#      Rotatable Fragment
#      Build by yxyuan
#
# Name:          frag2-030-480/92655
# Creation time: Sat Jun  5 12:51:56 2010


@<TRIPOS>MOLECULE
frag2-030-480/92655
   17    18     1     1     1
SMALL
USER_CHARGES


@<TRIPOS>ATOM
      1 C1         -2.3493   -0.7749   -0.2210 C.ar       1 <1>        0.000
      2 C2         -1.1509   -1.4254   -0.4925 C.ar       1 <1>        0.000
      3 C3          0.0672   -0.7762   -0.2878 C.ar       1 <1>        0.000
      4 N1          1.2345   -1.4087   -0.5590 N.ar       1 <1>        0.000
      5 C4          2.4321   -0.8171   -0.3763 C.ar       1 <1>        0.000
      6 C5          2.4993    0.4823    0.1059 C.ar       1 <1>        0.000
      7 C6          1.3231    1.1648    0.3997 C.ar       1 <1>        0.000
      8 C7          0.0878    0.5362    0.1998 C.ar       1 <1>        0.000
      9 C8         -1.1238    1.1857    0.4732 C.ar       1 <1>        0.000
     10 C9         -2.3369    0.5294    0.2587 C.ar       1 <1>        0.000
     11 H          -3.2974   -1.2873   -0.3842 H.spc      1 <1>        0.000
     12 H          -1.1630   -2.4488   -0.8676 H.spc      1 <1>        0.000
     13 H           3.3485   -1.3601   -0.6076 H.spc      1 <1>        0.000
     14 H           3.4657    0.9644    0.2533 H.spc      1 <1>        0.000
     15 H           1.3629    2.1841    0.7837 H.spc      1 <1>        0.000
     16 H          -1.1187    2.2068    0.8546 H.spc      1 <1>        0.000
     17 H          -3.2764    1.0409    0.4679 H.spc      1 <1>        0.000
@<TRIPOS>BOND
     1    8    9 ar 
     2    6    7 ar 
     3    9   10 ar 
     4    7    8 ar 
     5    1    2 ar 
     6    1   10 ar 
     7    2    3 ar 
     8    3    4 ar 
     9    3    8 ar 
    10    4    5 ar 
    11    5    6 ar 
    12    1   11 1  
    13    2   12 1  
    14    5   13 1  
    15    6   14 1  
    16    7   15 1  
    17    9   16 1  
    18   10   17 1  
# Name:          frag2-030-480/92655 -- energy: -0.068342
# Creation time: Sat Jun  5 12:51:56 2010


@<TRIPOS>MOLECULE
frag2-030-480/92655 -- energy: -0.068342
   17    18     1     1     1
SMALL
USER_CHARGES


@<TRIPOS>ATOM
      1 C1         -2.3493   -0.7749   -0.2210 C.ar       1 <1>        0.000
      2 C2         -1.1509   -1.4254   -0.4925 C.ar       1 <1>        0.000
      3 C3          0.0672   -0.7762   -0.2878 C.ar       1 <1>        0.000
      4 N1          1.2345   -1.4087   -0.5590 N.ar       1 <1>        0.000
      5 C4          2.4321   -0.8171   -0.3763 C.ar       1 <1>        0.000
      6 C5          2.4993    0.4823    0.1059 C.ar       1 <1>        0.000
      7 C6          1.3231    1.1648    0.3997 C.ar       1 <1>        0.000
      8 C7          0.0878    0.5362    0.1998 C.ar       1 <1>        0.000
      9 C8         -1.1238    1.1857    0.4732 C.ar       1 <1>        0.000
     10 C9         -2.3369    0.5294    0.2587 C.ar       1 <1>        0.000
     11 H          -3.2974   -1.2873   -0.3842 H.spc      1 <1>        0.000
     12 H          -1.1630   -2.4488   -0.8676 H.spc      1 <1>        0.000
     13 H           3.3485   -1.3601   -0.6076 H.spc      1 <1>        0.000
     14 H           3.4657    0.9644    0.2533 H.spc      1 <1>        0.000
     15 H           1.3629    2.1841    0.7837 H.spc      1 <1>        0.000
     16 H          -1.1187    2.2068    0.8546 H.spc      1 <1>        0.000
     17 H          -3.2764    1.0409    0.4679 H.spc      1 <1>        0.000
@<TRIPOS>BOND
     1    8    9 ar 
     2    6    7 ar 
     3    9   10 ar 
     4    7    8 ar 
     5    1    2 ar 
     6    1   10 ar 
     7    2    3 ar 
     8    3    4 ar 
     9    3    8 ar 
    10    4    5 ar 
    11    5    6 ar 
    12    1   11 1  
    13    2   12 1  
    14    5   13 1  
    15    6   14 1  
    16    7   15 1  
    17    9   16 1  
    18   10   17 1  
