#      Rotatable Fragment
#      Build by yxyuan
#
# Name:          frag2-033-2265/319335
# Creation time: Sat Jun  5 12:53:31 2010


@<TRIPOS>MOLECULE
frag2-033-2265/319335
   10    10     1     1     1
SMALL
USER_CHARGES


@<TRIPOS>ATOM
      1 C20         1.5144   -0.4282   -0.0030 C.ar       1 <1>        0.000
      2 N4          1.2200    0.8957   -0.0069 N.ar       1 <1>        0.000
      3 N5          0.5750   -1.4046    0.0036 N.ar       1 <1>        0.000
      4 C21        -0.0906    1.2570   -0.0045 C.ar       1 <1>        0.000
      5 C22        -0.7361   -1.0224    0.0056 C.ar       1 <1>        0.000
      6 C23        -1.0854    0.3075    0.0029 C.ar       1 <1>        0.000
      7 H           2.5638   -0.7228   -0.0053 H.spc      1 <1>        0.000
      8 H          -0.3566    2.3140   -0.0085 H.spc      1 <1>        0.000
      9 H          -1.5171   -1.7827    0.0094 H.spc      1 <1>        0.000
     10 H          -2.1342    0.6045    0.0066 H.spc      1 <1>        0.000
@<TRIPOS>BOND
     1    1    2 ar 
     2    1    3 ar 
     3    2    4 ar 
     4    3    5 ar 
     5    4    6 ar 
     6    5    6 ar 
     7    1    7 1  
     8    4    8 1  
     9    5    9 1  
    10    6   10 1  
# Name:          frag2-033-2265/319335 -- energy: 0.335522
# Creation time: Sat Jun  5 12:53:31 2010


@<TRIPOS>MOLECULE
frag2-033-2265/319335 -- energy: 0.335522
   10    10     1     1     1
SMALL
USER_CHARGES


@<TRIPOS>ATOM
      1 C20         1.5144   -0.4282   -0.0030 C.ar       1 <1>        0.000
      2 N4          1.2200    0.8957   -0.0069 N.ar       1 <1>        0.000
      3 N5          0.5750   -1.4046    0.0036 N.ar       1 <1>        0.000
      4 C21        -0.0906    1.2570   -0.0045 C.ar       1 <1>        0.000
      5 C22        -0.7361   -1.0224    0.0056 C.ar       1 <1>        0.000
      6 C23        -1.0854    0.3075    0.0029 C.ar       1 <1>        0.000
      7 H           2.5638   -0.7228   -0.0053 H.spc      1 <1>        0.000
      8 H          -0.3566    2.3140   -0.0085 H.spc      1 <1>        0.000
      9 H          -1.5171   -1.7827    0.0094 H.spc      1 <1>        0.000
     10 H          -2.1342    0.6045    0.0066 H.spc      1 <1>        0.000
@<TRIPOS>BOND
     1    1    2 ar 
     2    1    3 ar 
     3    2    4 ar 
     4    3    5 ar 
     5    4    6 ar 
     6    5    6 ar 
     7    1    7 1  
     8    4    8 1  
     9    5    9 1  
    10    6   10 1  
