#      Rotatable Fragment
#      Build by yxyuan
#
# Name:          frag5-656-25/41815
# Creation time: Sat Jun  5 12:53:02 2010


@<TRIPOS>MOLECULE
frag5-656-25/41815
   30    32     1     1     1
SMALL
USER_CHARGES


@<TRIPOS>ATOM
      1 O1          1.0544   -0.2557   -1.3988 O.3        1 <1>        0.000
      2 C1          2.4090   -0.2500   -1.4958 C.ar       1 <1>        0.000
      3 C2          3.1714    0.6178   -0.6933 C.ar       1 <1>        0.000
      4 C3          4.6008    0.6290   -0.7552 C.ar       1 <1>        0.000
      5 C4          5.1757   -0.2499   -1.6840 C.ar       1 <1>        0.000
      6 C5          4.4791   -1.1193   -2.5332 C.ar       1 <1>        0.000
      7 C6          3.0778   -1.0876   -2.3824 C.ar       1 <1>        0.000
      8 O2          5.1095   -1.9138   -3.4066 O.3        1 <1>        0.000
      9 C14        -3.3272    1.4994   -0.5083 C.ar       1 <1>        0.000
     10 O3          5.3210    1.4490    0.0335 O.3        1 <1>        0.000
     11 C7          2.3884    1.5306    0.2457 C.ar       1 <1>        0.000
     12 C8          1.0303    1.4369    0.2326 C.ar       1 <1>        0.000
     13 C9          0.3251    0.5100   -0.6265 C.ar       1 <1>        0.000
     14 C10        -1.1660    0.4302   -0.6277 C.ar       1 <1>        0.000
     15 C11        -1.8152   -0.7984   -0.8164 C.ar       1 <1>        0.000
     16 C12        -3.2088   -0.8513   -0.8634 C.ar       1 <1>        0.000
     17 C13        -4.0243    0.2905   -0.7123 C.ar       1 <1>        0.000
     18 C15        -1.9393    1.5783   -0.4760 C.ar       1 <1>        0.000
     19 O4         -5.3634    0.2534   -0.7474 O.3        1 <1>        0.000
     20 O5          2.9751    2.2929    0.9516 O.2        1 <1>        0.000
     21 H           6.2636   -0.2574   -1.7514 H.spc      1 <1>        0.000
     22 H           2.4817   -1.7609   -2.9984 H.spc      1 <1>        0.000
     23 H           4.4624   -2.4300   -3.8928 H.spc      1 <1>        0.000
     24 H          -3.9031    2.4144   -0.3695 H.spc      1 <1>        0.000
     25 H           6.2559    1.3212   -0.1430 H.spc      1 <1>        0.000
     26 H           0.4530    2.0836    0.8933 H.spc      1 <1>        0.000
     27 H          -1.2312   -1.7121   -0.9264 H.spc      1 <1>        0.000
     28 H          -3.6885   -1.8168   -1.0238 H.spc      1 <1>        0.000
     29 H          -1.4542    2.5436   -0.3312 H.spc      1 <1>        0.000
     30 H          -5.6536   -0.6497   -0.8948 H.spc      1 <1>        0.000
@<TRIPOS>BOND
     1    5    6 ar 
     2    3    4 ar 
     3   15   16 ar 
     4    2    7 ar 
     5   17   19 1  
     6    4    5 ar 
     7   13   14 1  
     8    4   10 1  
     9   17    9 ar 
    10    2    3 ar 
    11    6    7 ar 
    12   16   17 ar 
    13   11   12 ar 
    14    6    8 1  
    15    3   11 ar 
    16   14   15 ar 
    17   12   13 ar 
    18   11   20 2  
    19    9   18 ar 
    20   14   18 ar 
    21    1    2 ar 
    22    1   13 ar 
    23    5   21 1  
    24    7   22 1  
    25    8   23 1  
    26    9   24 1  
    27   10   25 1  
    28   12   26 1  
    29   15   27 1  
    30   16   28 1  
    31   18   29 1  
    32   19   30 1  
# Name:          frag5-656-25/41815
# Creation time: Sat Jun  5 12:53:02 2010


@<TRIPOS>MOLECULE
frag5-656-25/41815
   30    32     1     1     1
SMALL
USER_CHARGES


@<TRIPOS>ATOM
      1 O1          1.0414   -0.2742   -1.3061 O.3        1 <1>        0.000
      2 C1          2.3960   -0.2910   -1.4172 C.ar       1 <1>        0.000
      3 C2          3.1739    0.6664   -0.7416 C.ar       1 <1>        0.000
      4 C3          4.5991    0.6618   -0.8248 C.ar       1 <1>        0.000
      5 C4          5.1604   -0.3342   -1.6401 C.ar       1 <1>        0.000
      6 C5          4.4467   -1.2990   -2.3630 C.ar       1 <1>        0.000
      7 C6          3.0476   -1.2398   -2.1996 C.ar       1 <1>        0.000
      8 O2          5.0620   -2.2021   -3.1373 O.3        1 <1>        0.000
      9 C14        -3.1635   -0.2278   -1.7478 C.ar       1 <1>        0.000
     10 O3          5.3328    1.5659   -0.1500 O.3        1 <1>        0.000
     11 C7          2.4104    1.6949    0.0834 C.ar       1 <1>        0.000
     12 C8          1.0478    1.6085    0.1027 C.ar       1 <1>        0.000
     13 C9          0.3279    0.5887   -0.6206 C.ar       1 <1>        0.000
     14 C10        -1.1637    0.5142   -0.6006 C.ar       1 <1>        0.000
     15 C11        -1.9674    0.9901    0.4352 C.ar       1 <1>        0.000
     16 C12        -3.3518    0.8344    0.3752 C.ar       1 <1>        0.000
     17 C13        -4.0096    0.2248   -0.7150 C.ar       1 <1>        0.000
     18 C15        -1.7792   -0.0998   -1.6996 C.ar       1 <1>        0.000
     19 O4         -5.3402    0.0721   -0.7808 O.3        1 <1>        0.000
     20 O5          3.0029    2.5381    0.6836 O.2        1 <1>        0.000
     21 H           6.2474   -0.3589   -1.7174 H.spc      1 <1>        0.000
     22 H           2.4396   -1.9818   -2.7172 H.spc      1 <1>        0.000
     23 H           4.4060   -2.7715   -3.5461 H.spc      1 <1>        0.000
     24 H          -3.6135   -0.6984   -2.6219 H.spc      1 <1>        0.000
     25 H           6.2647    1.4133   -0.3228 H.spc      1 <1>        0.000
     26 H           0.4835    2.3364    0.6857 H.spc      1 <1>        0.000
     27 H          -1.5124    1.4847    1.2933 H.spc      1 <1>        0.000
     28 H          -3.9532    1.1999    1.2076 H.spc      1 <1>        0.000
     29 H          -1.1704   -0.4788   -2.5205 H.spc      1 <1>        0.000
     30 H          -5.7429    0.4401    0.0091 H.spc      1 <1>        0.000
@<TRIPOS>BOND
     1    5    6 ar 
     2    3    4 ar 
     3   15   16 ar 
     4    2    7 ar 
     5   17   19 1  
     6    4    5 ar 
     7   13   14 1  
     8    4   10 1  
     9   17    9 ar 
    10    2    3 ar 
    11    6    7 ar 
    12   16   17 ar 
    13   11   12 ar 
    14    6    8 1  
    15    3   11 ar 
    16   14   15 ar 
    17   12   13 ar 
    18   11   20 2  
    19    9   18 ar 
    20   14   18 ar 
    21    1    2 ar 
    22    1   13 ar 
    23    5   21 1  
    24    7   22 1  
    25    8   23 1  
    26    9   24 1  
    27   10   25 1  
    28   12   26 1  
    29   15   27 1  
    30   16   28 1  
    31   18   29 1  
    32   19   30 1  
# Name:          frag5-656-25/41815 -- energy: -1.926155
# Creation time: Sat Jun  5 12:53:02 2010


@<TRIPOS>MOLECULE
frag5-656-25/41815 -- energy: -1.926155
   30    32     1     1     1
SMALL
USER_CHARGES


@<TRIPOS>ATOM
      1 O1          1.0544   -0.2557   -1.3988 O.3        1 <1>        0.000
      2 C1          2.4090   -0.2500   -1.4958 C.ar       1 <1>        0.000
      3 C2          3.1714    0.6178   -0.6933 C.ar       1 <1>        0.000
      4 C3          4.6008    0.6290   -0.7552 C.ar       1 <1>        0.000
      5 C4          5.1757   -0.2499   -1.6840 C.ar       1 <1>        0.000
      6 C5          4.4791   -1.1193   -2.5332 C.ar       1 <1>        0.000
      7 C6          3.0778   -1.0876   -2.3824 C.ar       1 <1>        0.000
      8 O2          5.1095   -1.9138   -3.4066 O.3        1 <1>        0.000
      9 C14        -3.3272    1.4994   -0.5083 C.ar       1 <1>        0.000
     10 O3          5.3210    1.4490    0.0335 O.3        1 <1>        0.000
     11 C7          2.3884    1.5306    0.2457 C.ar       1 <1>        0.000
     12 C8          1.0303    1.4369    0.2326 C.ar       1 <1>        0.000
     13 C9          0.3251    0.5100   -0.6265 C.ar       1 <1>        0.000
     14 C10        -1.1660    0.4302   -0.6277 C.ar       1 <1>        0.000
     15 C11        -1.8152   -0.7984   -0.8164 C.ar       1 <1>        0.000
     16 C12        -3.2088   -0.8513   -0.8634 C.ar       1 <1>        0.000
     17 C13        -4.0243    0.2905   -0.7123 C.ar       1 <1>        0.000
     18 C15        -1.9393    1.5783   -0.4760 C.ar       1 <1>        0.000
     19 O4         -5.3634    0.2534   -0.7474 O.3        1 <1>        0.000
     20 O5          2.9751    2.2929    0.9516 O.2        1 <1>        0.000
     21 H           6.2636   -0.2574   -1.7514 H.spc      1 <1>        0.000
     22 H           2.4817   -1.7609   -2.9984 H.spc      1 <1>        0.000
     23 H           4.4624   -2.4300   -3.8928 H.spc      1 <1>        0.000
     24 H          -3.9031    2.4144   -0.3695 H.spc      1 <1>        0.000
     25 H           6.2559    1.3212   -0.1430 H.spc      1 <1>        0.000
     26 H           0.4530    2.0836    0.8933 H.spc      1 <1>        0.000
     27 H          -1.2312   -1.7121   -0.9264 H.spc      1 <1>        0.000
     28 H          -3.6885   -1.8168   -1.0238 H.spc      1 <1>        0.000
     29 H          -1.4542    2.5436   -0.3312 H.spc      1 <1>        0.000
     30 H          -5.6536   -0.6497   -0.8948 H.spc      1 <1>        0.000
@<TRIPOS>BOND
     1    5    6 ar 
     2    3    4 ar 
     3   15   16 ar 
     4    2    7 ar 
     5   17   19 1  
     6    4    5 ar 
     7   13   14 1  
     8    4   10 1  
     9   17    9 ar 
    10    2    3 ar 
    11    6    7 ar 
    12   16   17 ar 
    13   11   12 ar 
    14    6    8 1  
    15    3   11 ar 
    16   14   15 ar 
    17   12   13 ar 
    18   11   20 2  
    19    9   18 ar 
    20   14   18 ar 
    21    1    2 ar 
    22    1   13 ar 
    23    5   21 1  
    24    7   22 1  
    25    8   23 1  
    26    9   24 1  
    27   10   25 1  
    28   12   26 1  
    29   15   27 1  
    30   16   28 1  
    31   18   29 1  
    32   19   30 1  
# Name:          frag5-656-25/41815 -- energy: -1.884583
# Creation time: Sat Jun  5 12:53:02 2010


@<TRIPOS>MOLECULE
frag5-656-25/41815 -- energy: -1.884583
   30    32     1     1     1
SMALL
USER_CHARGES


@<TRIPOS>ATOM
      1 O1          1.0414   -0.2742   -1.3061 O.3        1 <1>        0.000
      2 C1          2.3960   -0.2910   -1.4172 C.ar       1 <1>        0.000
      3 C2          3.1739    0.6664   -0.7416 C.ar       1 <1>        0.000
      4 C3          4.5991    0.6618   -0.8248 C.ar       1 <1>        0.000
      5 C4          5.1604   -0.3342   -1.6401 C.ar       1 <1>        0.000
      6 C5          4.4467   -1.2990   -2.3630 C.ar       1 <1>        0.000
      7 C6          3.0476   -1.2398   -2.1996 C.ar       1 <1>        0.000
      8 O2          5.0620   -2.2021   -3.1373 O.3        1 <1>        0.000
      9 C14        -3.1635   -0.2278   -1.7478 C.ar       1 <1>        0.000
     10 O3          5.3328    1.5659   -0.1500 O.3        1 <1>        0.000
     11 C7          2.4104    1.6949    0.0834 C.ar       1 <1>        0.000
     12 C8          1.0478    1.6085    0.1027 C.ar       1 <1>        0.000
     13 C9          0.3279    0.5887   -0.6206 C.ar       1 <1>        0.000
     14 C10        -1.1637    0.5142   -0.6006 C.ar       1 <1>        0.000
     15 C11        -1.9674    0.9901    0.4352 C.ar       1 <1>        0.000
     16 C12        -3.3518    0.8344    0.3752 C.ar       1 <1>        0.000
     17 C13        -4.0096    0.2248   -0.7150 C.ar       1 <1>        0.000
     18 C15        -1.7792   -0.0998   -1.6996 C.ar       1 <1>        0.000
     19 O4         -5.3402    0.0721   -0.7808 O.3        1 <1>        0.000
     20 O5          3.0029    2.5381    0.6836 O.2        1 <1>        0.000
     21 H           6.2474   -0.3589   -1.7174 H.spc      1 <1>        0.000
     22 H           2.4396   -1.9818   -2.7172 H.spc      1 <1>        0.000
     23 H           4.4060   -2.7715   -3.5461 H.spc      1 <1>        0.000
     24 H          -3.6135   -0.6984   -2.6219 H.spc      1 <1>        0.000
     25 H           6.2647    1.4133   -0.3228 H.spc      1 <1>        0.000
     26 H           0.4835    2.3364    0.6857 H.spc      1 <1>        0.000
     27 H          -1.5124    1.4847    1.2933 H.spc      1 <1>        0.000
     28 H          -3.9532    1.1999    1.2076 H.spc      1 <1>        0.000
     29 H          -1.1704   -0.4788   -2.5205 H.spc      1 <1>        0.000
     30 H          -5.7429    0.4401    0.0091 H.spc      1 <1>        0.000
@<TRIPOS>BOND
     1    5    6 ar 
     2    3    4 ar 
     3   15   16 ar 
     4    2    7 ar 
     5   17   19 1  
     6    4    5 ar 
     7   13   14 1  
     8    4   10 1  
     9   17    9 ar 
    10    2    3 ar 
    11    6    7 ar 
    12   16   17 ar 
    13   11   12 ar 
    14    6    8 1  
    15    3   11 ar 
    16   14   15 ar 
    17   12   13 ar 
    18   11   20 2  
    19    9   18 ar 
    20   14   18 ar 
    21    1    2 ar 
    22    1   13 ar 
    23    5   21 1  
    24    7   22 1  
    25    8   23 1  
    26    9   24 1  
    27   10   25 1  
    28   12   26 1  
    29   15   27 1  
    30   16   28 1  
    31   18   29 1  
    32   19   30 1  
