#      Rotatable Fragment
#      Build by yxyuan
#
# Name:          frag5-541-214/138278
# Creation time: Sat Jun  5 12:53:42 2010


@<TRIPOS>MOLECULE
frag5-541-214/138278
   16    17     1     1     1
SMALL
USER_CHARGES


@<TRIPOS>ATOM
      1 C1         -2.8724   -0.3211   -0.2391 C.ar       1 <1>        0.000
      2 C2         -2.8288   -1.6231    0.2635 C.ar       1 <1>        0.000
      3 C3         -1.7000    0.3165   -0.6559 C.ar       1 <1>        0.000
      4 C4         -4.2360    0.3275   -0.2982 C.ar       1 <1>        0.000
      5 C5         -1.6095   -2.3011    0.3419 C.ar       1 <1>        0.000
      6 N1         -3.9719   -2.2137    0.6694 N.ar       1 <1>        0.000
      7 C6         -0.4796   -0.3608   -0.5705 C.ar       1 <1>        0.000
      8 N2         -5.2901   -0.3906    0.1447 N.ar       1 <1>        0.000
      9 O1         -4.3467    1.4616   -0.7366 O.2        1 <1>        0.000
     10 C7         -0.4350   -1.6690   -0.0773 C.ar       1 <1>        0.000
     11 C8         -5.1116   -1.6468    0.6166 C.ar       1 <1>        0.000
     12 H          -1.7370    1.3342   -1.0446 H.spc      1 <1>        0.000
     13 H          -1.5741   -3.3196    0.7287 H.spc      1 <1>        0.000
     14 H           0.4391    0.1318   -0.8890 H.spc      1 <1>        0.000
     15 H           0.5171   -2.1965   -0.0197 H.spc      1 <1>        0.000
     16 H          -5.9834   -2.1989    0.9677 H.spc      1 <1>        0.000
@<TRIPOS>BOND
     1    5   10 ar 
     2    7   10 ar 
     3    8   11 ar 
     4    6   11 ar 
     5    1    2 ar 
     6    1    3 ar 
     7    1    4 ar 
     8    2    5 ar 
     9    2    6 ar 
    10    3    7 ar 
    11    4    8 ar 
    12    4    9 2  
    13    3   12 1  
    14    5   13 1  
    15    7   14 1  
    16   10   15 1  
    17   11   16 1  
# Name:          frag5-541-214/138278 -- energy: -0.165848
# Creation time: Sat Jun  5 12:53:42 2010


@<TRIPOS>MOLECULE
frag5-541-214/138278 -- energy: -0.165848
   16    17     1     1     1
SMALL
USER_CHARGES


@<TRIPOS>ATOM
      1 C1         -2.8724   -0.3211   -0.2391 C.ar       1 <1>        0.000
      2 C2         -2.8288   -1.6231    0.2635 C.ar       1 <1>        0.000
      3 C3         -1.7000    0.3165   -0.6559 C.ar       1 <1>        0.000
      4 C4         -4.2360    0.3275   -0.2982 C.ar       1 <1>        0.000
      5 C5         -1.6095   -2.3011    0.3419 C.ar       1 <1>        0.000
      6 N1         -3.9719   -2.2137    0.6694 N.ar       1 <1>        0.000
      7 C6         -0.4796   -0.3608   -0.5705 C.ar       1 <1>        0.000
      8 N2         -5.2901   -0.3906    0.1447 N.ar       1 <1>        0.000
      9 O1         -4.3467    1.4616   -0.7366 O.2        1 <1>        0.000
     10 C7         -0.4350   -1.6690   -0.0773 C.ar       1 <1>        0.000
     11 C8         -5.1116   -1.6468    0.6166 C.ar       1 <1>        0.000
     12 H          -1.7370    1.3342   -1.0446 H.spc      1 <1>        0.000
     13 H          -1.5741   -3.3196    0.7287 H.spc      1 <1>        0.000
     14 H           0.4391    0.1318   -0.8890 H.spc      1 <1>        0.000
     15 H           0.5171   -2.1965   -0.0197 H.spc      1 <1>        0.000
     16 H          -5.9834   -2.1989    0.9677 H.spc      1 <1>        0.000
@<TRIPOS>BOND
     1    5   10 ar 
     2    7   10 ar 
     3    8   11 ar 
     4    6   11 ar 
     5    1    2 ar 
     6    1    3 ar 
     7    1    4 ar 
     8    2    5 ar 
     9    2    6 ar 
    10    3    7 ar 
    11    4    8 ar 
    12    4    9 2  
    13    3   12 1  
    14    5   13 1  
    15    7   14 1  
    16   10   15 1  
    17   11   16 1  
