#      Rotatable Fragment
#      Build by yxyuan
#
# Name:          frag2-048-64/319335
# Creation time: Sat Jun  5 12:53:39 2010


@<TRIPOS>MOLECULE
frag2-048-64/319335
   15    16     1     1     1
SMALL
USER_CHARGES


@<TRIPOS>ATOM
      1 C1          0.3392    0.8868   -0.0899 C.ar       1 <1>        0.000
      2 C2          0.1633   -0.5003    0.0261 C.ar       1 <1>        0.000
      3 N1         -0.7371    1.7042   -0.0755 N.ar       1 <1>        0.000
      4 N2          1.5882    1.3818   -0.2136 N.ar       1 <1>        0.000
      5 C3         -1.1336   -1.0004    0.1535 C.ar       1 <1>        0.000
      6 C4          1.3004   -1.3093    0.0072 C.ar       1 <1>        0.000
      7 C5         -1.9937    1.2310    0.0473 C.ar       1 <1>        0.000
      8 C6          2.6647    0.5736   -0.2285 C.ar       1 <1>        0.000
      9 C7         -2.2157   -0.1305    0.1640 C.ar       1 <1>        0.000
     10 N3          2.5216   -0.7604   -0.1177 N.ar       1 <1>        0.000
     11 H          -1.2969   -2.0742    0.2448 H.spc      1 <1>        0.000
     12 H           1.1981   -2.3910    0.0941 H.spc      1 <1>        0.000
     13 H          -2.8367    1.9220    0.0547 H.spc      1 <1>        0.000
     14 H           3.6612    1.0032   -0.3312 H.spc      1 <1>        0.000
     15 H          -3.2304   -0.5159    0.2632 H.spc      1 <1>        0.000
@<TRIPOS>BOND
     1    8   10 ar 
     2    1    2 ar 
     3    1    3 ar 
     4    1    4 ar 
     5    2    5 ar 
     6    2    6 ar 
     7    3    7 ar 
     8    4    8 ar 
     9    5    9 ar 
    10    6   10 ar 
    11    7    9 ar 
    12    5   11 1  
    13    6   12 1  
    14    7   13 1  
    15    8   14 1  
    16    9   15 1  
# Name:          frag2-048-64/319335 -- energy: 0.186019
# Creation time: Sat Jun  5 12:53:39 2010


@<TRIPOS>MOLECULE
frag2-048-64/319335 -- energy: 0.186019
   15    16     1     1     1
SMALL
USER_CHARGES


@<TRIPOS>ATOM
      1 C1          0.3392    0.8868   -0.0899 C.ar       1 <1>        0.000
      2 C2          0.1633   -0.5003    0.0261 C.ar       1 <1>        0.000
      3 N1         -0.7371    1.7042   -0.0755 N.ar       1 <1>        0.000
      4 N2          1.5882    1.3818   -0.2136 N.ar       1 <1>        0.000
      5 C3         -1.1336   -1.0004    0.1535 C.ar       1 <1>        0.000
      6 C4          1.3004   -1.3093    0.0072 C.ar       1 <1>        0.000
      7 C5         -1.9937    1.2310    0.0473 C.ar       1 <1>        0.000
      8 C6          2.6647    0.5736   -0.2285 C.ar       1 <1>        0.000
      9 C7         -2.2157   -0.1305    0.1640 C.ar       1 <1>        0.000
     10 N3          2.5216   -0.7604   -0.1177 N.ar       1 <1>        0.000
     11 H          -1.2969   -2.0742    0.2448 H.spc      1 <1>        0.000
     12 H           1.1981   -2.3910    0.0941 H.spc      1 <1>        0.000
     13 H          -2.8367    1.9220    0.0547 H.spc      1 <1>        0.000
     14 H           3.6612    1.0032   -0.3312 H.spc      1 <1>        0.000
     15 H          -3.2304   -0.5159    0.2632 H.spc      1 <1>        0.000
@<TRIPOS>BOND
     1    8   10 ar 
     2    1    2 ar 
     3    1    3 ar 
     4    1    4 ar 
     5    2    5 ar 
     6    2    6 ar 
     7    3    7 ar 
     8    4    8 ar 
     9    5    9 ar 
    10    6   10 ar 
    11    7    9 ar 
    12    5   11 1  
    13    6   12 1  
    14    7   13 1  
    15    8   14 1  
    16    9   15 1  
