#      Rotatable Fragment
#      Build by yxyuan
#
# Name:          frag4-375-80/48856
# Creation time: Sat Jun  5 12:53:34 2010


@<TRIPOS>MOLECULE
frag4-375-80/48856
   25    27     1     1     1
SMALL
USER_CHARGES


@<TRIPOS>ATOM
      1 N1         -1.8489    2.5851   -0.3180 N.pl3      1 <1>        0.000
      2 C1         -2.1521    1.4632    0.5302 C.3        1 <1>        0.000
      3 N2         -3.4927    0.8727    0.2835 N.4        1 <1>        0.000
      4 C2         -3.2800   -0.5851    0.3463 C.3        1 <1>        0.000
      5 C3         -1.9547   -0.8071   -0.3611 C.3        1 <1>        0.000
      6 C4         -1.1024    0.3723    0.1370 C.3        1 <1>        0.000
      7 C5         -0.2922    1.0451   -0.9533 C.ar       1 <1>        0.000
      8 C6         -0.8093    2.3500   -1.1475 C.ar       1 <1>        0.000
      9 C7         -0.2387    3.1859   -2.0963 C.ar       1 <1>        0.000
     10 C8          0.8328    2.7357   -2.8510 C.ar       1 <1>        0.000
     11 C9          1.3358    1.4389   -2.6648 C.ar       1 <1>        0.000
     12 C10         0.7710    0.5909   -1.7169 C.ar       1 <1>        0.000
     13 H          -2.3645    3.4649   -0.2953 H.spc      1 <1>        0.000
     14 H          -2.1308    1.7887    1.5702 H.spc      1 <1>        0.000
     15 H          -4.1779    1.1863    0.9709 H.spc      1 <1>        0.000
     16 H          -3.8751    1.1621   -0.6167 H.spc      1 <1>        0.000
     17 H          -4.0926   -1.1371   -0.1260 H.spc      1 <1>        0.000
     18 H          -3.2615   -0.9513    1.3728 H.spc      1 <1>        0.000
     19 H          -1.5106   -1.7768   -0.1365 H.spc      1 <1>        0.000
     20 H          -2.0516   -0.8326   -1.4465 H.spc      1 <1>        0.000
     21 H          -0.4274    0.0064    0.9107 H.spc      1 <1>        0.000
     22 H          -0.6311    4.1915   -2.2474 H.spc      1 <1>        0.000
     23 H           1.2872    3.3922   -3.5930 H.spc      1 <1>        0.000
     24 H           2.1756    1.0931   -3.2675 H.spc      1 <1>        0.000
     25 H           1.1600   -0.4177   -1.5770 H.spc      1 <1>        0.000
@<TRIPOS>BOND
     1    1    2 1  
     2    1    8 1  
     3    5    6 1  
     4    7   12 ar 
     5    6    7 1  
     6   11   12 ar 
     7    2    6 1  
     8    7    8 ar 
     9    3    4 1  
    10    9   10 ar 
    11    2    3 1  
    12   10   11 ar 
    13    8    9 ar 
    14    4    5 1  
    15    1   13 1  
    16    2   14 1  
    17    3   15 1  
    18    3   16 1  
    19    4   17 1  
    20    4   18 1  
    21    5   19 1  
    22    5   20 1  
    23    6   21 1  
    24    9   22 1  
    25   10   23 1  
    26   11   24 1  
    27   12   25 1  
# Name:          frag4-375-80/48856 -- energy: -2.563457
# Creation time: Sat Jun  5 12:53:34 2010


@<TRIPOS>MOLECULE
frag4-375-80/48856 -- energy: -2.563457
   25    27     1     1     1
SMALL
USER_CHARGES


@<TRIPOS>ATOM
      1 N1         -1.8489    2.5851   -0.3180 N.pl3      1 <1>        0.000
      2 C1         -2.1521    1.4632    0.5302 C.3        1 <1>        0.000
      3 N2         -3.4927    0.8727    0.2835 N.4        1 <1>        0.000
      4 C2         -3.2800   -0.5851    0.3463 C.3        1 <1>        0.000
      5 C3         -1.9547   -0.8071   -0.3611 C.3        1 <1>        0.000
      6 C4         -1.1024    0.3723    0.1370 C.3        1 <1>        0.000
      7 C5         -0.2922    1.0451   -0.9533 C.ar       1 <1>        0.000
      8 C6         -0.8093    2.3500   -1.1475 C.ar       1 <1>        0.000
      9 C7         -0.2387    3.1859   -2.0963 C.ar       1 <1>        0.000
     10 C8          0.8328    2.7357   -2.8510 C.ar       1 <1>        0.000
     11 C9          1.3358    1.4389   -2.6648 C.ar       1 <1>        0.000
     12 C10         0.7710    0.5909   -1.7169 C.ar       1 <1>        0.000
     13 H          -2.3645    3.4649   -0.2953 H.spc      1 <1>        0.000
     14 H          -2.1308    1.7887    1.5702 H.spc      1 <1>        0.000
     15 H          -4.1779    1.1863    0.9709 H.spc      1 <1>        0.000
     16 H          -3.8751    1.1621   -0.6167 H.spc      1 <1>        0.000
     17 H          -4.0926   -1.1371   -0.1260 H.spc      1 <1>        0.000
     18 H          -3.2615   -0.9513    1.3728 H.spc      1 <1>        0.000
     19 H          -1.5106   -1.7768   -0.1365 H.spc      1 <1>        0.000
     20 H          -2.0516   -0.8326   -1.4465 H.spc      1 <1>        0.000
     21 H          -0.4274    0.0064    0.9107 H.spc      1 <1>        0.000
     22 H          -0.6311    4.1915   -2.2474 H.spc      1 <1>        0.000
     23 H           1.2872    3.3922   -3.5930 H.spc      1 <1>        0.000
     24 H           2.1756    1.0931   -3.2675 H.spc      1 <1>        0.000
     25 H           1.1600   -0.4177   -1.5770 H.spc      1 <1>        0.000
@<TRIPOS>BOND
     1    1    2 1  
     2    1    8 1  
     3    5    6 1  
     4    7   12 ar 
     5    6    7 1  
     6   11   12 ar 
     7    2    6 1  
     8    7    8 ar 
     9    3    4 1  
    10    9   10 ar 
    11    2    3 1  
    12   10   11 ar 
    13    8    9 ar 
    14    4    5 1  
    15    1   13 1  
    16    2   14 1  
    17    3   15 1  
    18    3   16 1  
    19    4   17 1  
    20    4   18 1  
    21    5   19 1  
    22    5   20 1  
    23    6   21 1  
    24    9   22 1  
    25   10   23 1  
    26   11   24 1  
    27   12   25 1  
