#      Rotatable Fragment
#      Build by yxyuan
#
# Name:          frag5-663-24/41815
# Creation time: Sat Jun  5 12:53:02 2010


@<TRIPOS>MOLECULE
frag5-663-24/41815
   13    14     1     1     1
SMALL
USER_CHARGES


@<TRIPOS>ATOM
      1 N1         -1.8431    0.7702    0.0197 N.ar       1 <1>        0.000
      2 C1         -0.5665    0.7930    0.0456 C.ar       1 <1>        0.000
      3 N2          0.3169    1.8427    0.0380 N.ar       1 <1>        0.000
      4 C2          1.5580    1.4943   -0.1207 C.ar       1 <1>        0.000
      5 N3          1.9820    0.2345    0.0903 N.ar       1 <1>        0.000
      6 C3          1.1631   -0.8382    0.1656 C.ar       1 <1>        0.000
      7 C4         -0.1543   -0.6411    0.0860 C.ar       1 <1>        0.000
      8 N4         -1.2417   -1.4585   -0.0116 N.ar       1 <1>        0.000
      9 C5         -2.2871   -0.6890   -0.0018 C.ar       1 <1>        0.000
     10 O1          1.7389   -2.0558    0.2000 O.3        1 <1>        0.000
     11 H           2.2804    2.2475   -0.4353 H.spc      1 <1>        0.000
     12 H          -3.3216   -1.0323   -0.0080 H.spc      1 <1>        0.000
     13 H           1.0571   -2.7296    0.2530 H.spc      1 <1>        0.000
@<TRIPOS>BOND
     1    1    2 ar 
     2    1    9 ar 
     3    2    3 ar 
     4    2    7 ar 
     5    3    4 ar 
     6    4    5 ar 
     7    5    6 ar 
     8    6    7 ar 
     9    6   10 1  
    10    7    8 ar 
    11    8    9 ar 
    12    4   11 1  
    13    9   12 1  
    14   10   13 1  
# Name:          frag5-663-24/41815 -- energy: -0.162925
# Creation time: Sat Jun  5 12:53:02 2010


@<TRIPOS>MOLECULE
frag5-663-24/41815 -- energy: -0.162925
   13    14     1     1     1
SMALL
USER_CHARGES


@<TRIPOS>ATOM
      1 N1         -1.8431    0.7702    0.0197 N.ar       1 <1>        0.000
      2 C1         -0.5665    0.7930    0.0456 C.ar       1 <1>        0.000
      3 N2          0.3169    1.8427    0.0380 N.ar       1 <1>        0.000
      4 C2          1.5580    1.4943   -0.1207 C.ar       1 <1>        0.000
      5 N3          1.9820    0.2345    0.0903 N.ar       1 <1>        0.000
      6 C3          1.1631   -0.8382    0.1656 C.ar       1 <1>        0.000
      7 C4         -0.1543   -0.6411    0.0860 C.ar       1 <1>        0.000
      8 N4         -1.2417   -1.4585   -0.0116 N.ar       1 <1>        0.000
      9 C5         -2.2871   -0.6890   -0.0018 C.ar       1 <1>        0.000
     10 O1          1.7389   -2.0558    0.2000 O.3        1 <1>        0.000
     11 H           2.2804    2.2475   -0.4353 H.spc      1 <1>        0.000
     12 H          -3.3216   -1.0323   -0.0080 H.spc      1 <1>        0.000
     13 H           1.0571   -2.7296    0.2530 H.spc      1 <1>        0.000
@<TRIPOS>BOND
     1    1    2 ar 
     2    1    9 ar 
     3    2    3 ar 
     4    2    7 ar 
     5    3    4 ar 
     6    4    5 ar 
     7    5    6 ar 
     8    6    7 ar 
     9    6   10 1  
    10    7    8 ar 
    11    8    9 ar 
    12    4   11 1  
    13    9   12 1  
    14   10   13 1  
