#      Rotatable Fragment
#      Build by yxyuan
#
# Name:          frag3-114-128/96164
# Creation time: Sat Jun  5 12:52:48 2010


@<TRIPOS>MOLECULE
frag3-114-128/96164
   10     9     1     1     1
SMALL
USER_CHARGES


@<TRIPOS>ATOM
      1 N1          1.8103    0.2322    0.1313 N.am       1 <1>        0.000
      2 C5          0.6305   -0.4200    0.0831 C.2        1 <1>        0.000
      3 C8          0.6140   -1.7613    0.6903 C.2        1 <1>        0.000
      4 O2         -0.3526    0.0808   -0.4382 O.2        1 <1>        0.000
      5 C11        -0.4625   -2.5488    0.5989 C.2        1 <1>        0.000
      6 H           1.8945    1.1647   -0.2734 H.spc      1 <1>        0.000
      7 H           2.6182   -0.2071    0.5725 H.spc      1 <1>        0.000
      8 H           1.4949   -2.1184    1.2237 H.spc      1 <1>        0.000
      9 H          -1.3486   -2.2012    0.0677 H.spc      1 <1>        0.000
     10 H          -0.4541   -3.5385    1.0556 H.spc      1 <1>        0.000
@<TRIPOS>BOND
     1    2    4 2  
     2    1    2 am 
     3    2    3 1  
     4    3    5 2  
     5    1    6 1  
     6    1    7 1  
     7    3    8 1  
     8    5    9 1  
     9    5   10 1  
# Name:          frag3-114-128/96164
# Creation time: Sat Jun  5 12:52:48 2010


@<TRIPOS>MOLECULE
frag3-114-128/96164
   10     9     1     1     1
SMALL
USER_CHARGES


@<TRIPOS>ATOM
      1 N1          1.7553   -0.2470    0.2708 N.am       1 <1>        0.000
      2 C5          0.4370   -0.3791    0.0071 C.2        1 <1>        0.000
      3 C8         -0.2175   -1.6400    0.3985 C.2        1 <1>        0.000
      4 O2         -0.2187    0.5036   -0.5221 O.2        1 <1>        0.000
      5 C11         0.4835   -2.6545    0.9111 C.2        1 <1>        0.000
      6 H           2.2404    0.6162    0.0259 H.spc      1 <1>        0.000
      7 H           2.2656   -1.0105    0.7148 H.spc      1 <1>        0.000
      8 H          -1.2943   -1.7467    0.2671 H.spc      1 <1>        0.000
      9 H           1.5608   -2.5589    1.0469 H.spc      1 <1>        0.000
     10 H          -0.0216   -3.5781    1.1937 H.spc      1 <1>        0.000
@<TRIPOS>BOND
     1    2    4 2  
     2    1    2 am 
     3    2    3 1  
     4    3    5 2  
     5    1    6 1  
     6    1    7 1  
     7    3    8 1  
     8    5    9 1  
     9    5   10 1  
# Name:          frag3-114-128/96164 -- energy: -0.348678
# Creation time: Sat Jun  5 12:52:48 2010


@<TRIPOS>MOLECULE
frag3-114-128/96164 -- energy: -0.348678
   10     9     1     1     1
SMALL
USER_CHARGES


@<TRIPOS>ATOM
      1 N1          1.8103    0.2322    0.1313 N.am       1 <1>        0.000
      2 C5          0.6305   -0.4200    0.0831 C.2        1 <1>        0.000
      3 C8          0.6140   -1.7613    0.6903 C.2        1 <1>        0.000
      4 O2         -0.3526    0.0808   -0.4382 O.2        1 <1>        0.000
      5 C11        -0.4625   -2.5488    0.5989 C.2        1 <1>        0.000
      6 H           1.8945    1.1647   -0.2734 H.spc      1 <1>        0.000
      7 H           2.6182   -0.2071    0.5725 H.spc      1 <1>        0.000
      8 H           1.4949   -2.1184    1.2237 H.spc      1 <1>        0.000
      9 H          -1.3486   -2.2012    0.0677 H.spc      1 <1>        0.000
     10 H          -0.4541   -3.5385    1.0556 H.spc      1 <1>        0.000
@<TRIPOS>BOND
     1    2    4 2  
     2    1    2 am 
     3    2    3 1  
     4    3    5 2  
     5    1    6 1  
     6    1    7 1  
     7    3    8 1  
     8    5    9 1  
     9    5   10 1  
# Name:          frag3-114-128/96164 -- energy: 1.402315
# Creation time: Sat Jun  5 12:52:48 2010


@<TRIPOS>MOLECULE
frag3-114-128/96164 -- energy: 1.402315
   10     9     1     1     1
SMALL
USER_CHARGES


@<TRIPOS>ATOM
      1 N1          1.7553   -0.2470    0.2708 N.am       1 <1>        0.000
      2 C5          0.4370   -0.3791    0.0071 C.2        1 <1>        0.000
      3 C8         -0.2175   -1.6400    0.3985 C.2        1 <1>        0.000
      4 O2         -0.2187    0.5036   -0.5221 O.2        1 <1>        0.000
      5 C11         0.4835   -2.6545    0.9111 C.2        1 <1>        0.000
      6 H           2.2404    0.6162    0.0259 H.spc      1 <1>        0.000
      7 H           2.2656   -1.0105    0.7148 H.spc      1 <1>        0.000
      8 H          -1.2943   -1.7467    0.2671 H.spc      1 <1>        0.000
      9 H           1.5608   -2.5589    1.0469 H.spc      1 <1>        0.000
     10 H          -0.0216   -3.5781    1.1937 H.spc      1 <1>        0.000
@<TRIPOS>BOND
     1    2    4 2  
     2    1    2 am 
     3    2    3 1  
     4    3    5 2  
     5    1    6 1  
     6    1    7 1  
     7    3    8 1  
     8    5    9 1  
     9    5   10 1  
