#      Rotatable Fragment
#      Build by yxyuan
#
# Name:          frag5-594-113/138278
# Creation time: Sat Jun  5 12:53:46 2010


@<TRIPOS>MOLECULE
frag5-594-113/138278
   17    17     1     1     1
SMALL
USER_CHARGES


@<TRIPOS>ATOM
      1 N3         -0.0481    0.1631    1.3378 N.am       1 <1>        0.000
      2 C18        -0.9819   -0.5139    0.6381 C.2        1 <1>        0.000
      3 C20        -2.3203    0.1077    0.2982 C.ar       1 <1>        0.000
      4 O7         -0.7724   -1.6522    0.2452 O.2        1 <1>        0.000
      5 C22        -2.4608    1.4817    0.0533 C.ar       1 <1>        0.000
      6 C23        -3.4558   -0.7099    0.2300 C.ar       1 <1>        0.000
      7 C25        -3.7034    2.0100   -0.2985 C.ar       1 <1>        0.000
      8 C26        -4.6955   -0.1774   -0.1155 C.ar       1 <1>        0.000
      9 C27        -4.8406    1.1899   -0.3808 C.ar       1 <1>        0.000
     10 O8         -6.0738    1.7072   -0.7129 O.3        1 <1>        0.000
     11 H           0.8494   -0.2743    1.5465 H.spc      1 <1>        0.000
     12 H          -0.2395    1.1124    1.6581 H.spc      1 <1>        0.000
     13 H          -1.5957    2.1394    0.1382 H.spc      1 <1>        0.000
     14 H          -3.3682   -1.7739    0.4496 H.spc      1 <1>        0.000
     15 H          -3.7929    3.0750   -0.5126 H.spc      1 <1>        0.000
     16 H          -5.5637   -0.8332   -0.1802 H.spc      1 <1>        0.000
     17 H          -6.7245    1.0014   -0.7191 H.spc      1 <1>        0.000
@<TRIPOS>BOND
     1    7    9 ar 
     2    8    9 ar 
     3    9   10 1  
     4    1    2 am 
     5    2    3 1  
     6    2    4 2  
     7    3    5 ar 
     8    3    6 ar 
     9    5    7 ar 
    10    6    8 ar 
    11    1   11 1  
    12    1   12 1  
    13    5   13 1  
    14    6   14 1  
    15    7   15 1  
    16    8   16 1  
    17   10   17 1  
# Name:          frag5-594-113/138278
# Creation time: Sat Jun  5 12:53:46 2010


@<TRIPOS>MOLECULE
frag5-594-113/138278
   17    17     1     1     1
SMALL
USER_CHARGES


@<TRIPOS>ATOM
      1 N3          0.1727    0.1149    0.3670 N.am       1 <1>        0.000
      2 C18        -0.9862   -0.5102    0.6606 C.2        1 <1>        0.000
      3 C20        -2.3260    0.1059    0.3163 C.ar       1 <1>        0.000
      4 O7         -0.9914   -1.6040    1.2061 O.2        1 <1>        0.000
      5 C22        -2.5742    1.4778    0.4673 C.ar       1 <1>        0.000
      6 C23        -3.3534   -0.7178   -0.1624 C.ar       1 <1>        0.000
      7 C25        -3.8090    2.0139    0.1000 C.ar       1 <1>        0.000
      8 C26        -4.5864   -0.1793   -0.5227 C.ar       1 <1>        0.000
      9 C27        -4.8361    1.1927   -0.3928 C.ar       1 <1>        0.000
     10 O8         -6.0626    1.7126   -0.7445 O.3        1 <1>        0.000
     11 H           1.0628   -0.3251    0.6004 H.spc      1 <1>        0.000
     12 H           0.1588    1.0275   -0.0884 H.spc      1 <1>        0.000
     13 H          -1.7993    2.1281    0.8733 H.spc      1 <1>        0.000
     14 H          -3.1860   -1.7910   -0.2538 H.spc      1 <1>        0.000
     15 H          -3.9789    3.0862    0.1970 H.spc      1 <1>        0.000
     16 H          -5.3668   -0.8339   -0.9107 H.spc      1 <1>        0.000
     17 H          -6.6311    1.0050   -1.0572 H.spc      1 <1>        0.000
@<TRIPOS>BOND
     1    7    9 ar 
     2    8    9 ar 
     3    9   10 1  
     4    1    2 am 
     5    2    3 1  
     6    2    4 2  
     7    3    5 ar 
     8    3    6 ar 
     9    5    7 ar 
    10    6    8 ar 
    11    1   11 1  
    12    1   12 1  
    13    5   13 1  
    14    6   14 1  
    15    7   15 1  
    16    8   16 1  
    17   10   17 1  
# Name:          frag5-594-113/138278 -- energy: -0.766393
# Creation time: Sat Jun  5 12:53:46 2010


@<TRIPOS>MOLECULE
frag5-594-113/138278 -- energy: -0.766393
   17    17     1     1     1
SMALL
USER_CHARGES


@<TRIPOS>ATOM
      1 N3         -0.0481    0.1631    1.3378 N.am       1 <1>        0.000
      2 C18        -0.9819   -0.5139    0.6381 C.2        1 <1>        0.000
      3 C20        -2.3203    0.1077    0.2982 C.ar       1 <1>        0.000
      4 O7         -0.7724   -1.6522    0.2452 O.2        1 <1>        0.000
      5 C22        -2.4608    1.4817    0.0533 C.ar       1 <1>        0.000
      6 C23        -3.4558   -0.7099    0.2300 C.ar       1 <1>        0.000
      7 C25        -3.7034    2.0100   -0.2985 C.ar       1 <1>        0.000
      8 C26        -4.6955   -0.1774   -0.1155 C.ar       1 <1>        0.000
      9 C27        -4.8406    1.1899   -0.3808 C.ar       1 <1>        0.000
     10 O8         -6.0738    1.7072   -0.7129 O.3        1 <1>        0.000
     11 H           0.8494   -0.2743    1.5465 H.spc      1 <1>        0.000
     12 H          -0.2395    1.1124    1.6581 H.spc      1 <1>        0.000
     13 H          -1.5957    2.1394    0.1382 H.spc      1 <1>        0.000
     14 H          -3.3682   -1.7739    0.4496 H.spc      1 <1>        0.000
     15 H          -3.7929    3.0750   -0.5126 H.spc      1 <1>        0.000
     16 H          -5.5637   -0.8332   -0.1802 H.spc      1 <1>        0.000
     17 H          -6.7245    1.0014   -0.7191 H.spc      1 <1>        0.000
@<TRIPOS>BOND
     1    7    9 ar 
     2    8    9 ar 
     3    9   10 1  
     4    1    2 am 
     5    2    3 1  
     6    2    4 2  
     7    3    5 ar 
     8    3    6 ar 
     9    5    7 ar 
    10    6    8 ar 
    11    1   11 1  
    12    1   12 1  
    13    5   13 1  
    14    6   14 1  
    15    7   15 1  
    16    8   16 1  
    17   10   17 1  
# Name:          frag5-594-113/138278 -- energy: -0.797916
# Creation time: Sat Jun  5 12:53:46 2010


@<TRIPOS>MOLECULE
frag5-594-113/138278 -- energy: -0.797916
   17    17     1     1     1
SMALL
USER_CHARGES


@<TRIPOS>ATOM
      1 N3          0.1727    0.1149    0.3670 N.am       1 <1>        0.000
      2 C18        -0.9862   -0.5102    0.6606 C.2        1 <1>        0.000
      3 C20        -2.3260    0.1059    0.3163 C.ar       1 <1>        0.000
      4 O7         -0.9914   -1.6040    1.2061 O.2        1 <1>        0.000
      5 C22        -2.5742    1.4778    0.4673 C.ar       1 <1>        0.000
      6 C23        -3.3534   -0.7178   -0.1624 C.ar       1 <1>        0.000
      7 C25        -3.8090    2.0139    0.1000 C.ar       1 <1>        0.000
      8 C26        -4.5864   -0.1793   -0.5227 C.ar       1 <1>        0.000
      9 C27        -4.8361    1.1927   -0.3928 C.ar       1 <1>        0.000
     10 O8         -6.0626    1.7126   -0.7445 O.3        1 <1>        0.000
     11 H           1.0628   -0.3251    0.6004 H.spc      1 <1>        0.000
     12 H           0.1588    1.0275   -0.0884 H.spc      1 <1>        0.000
     13 H          -1.7993    2.1281    0.8733 H.spc      1 <1>        0.000
     14 H          -3.1860   -1.7910   -0.2538 H.spc      1 <1>        0.000
     15 H          -3.9789    3.0862    0.1970 H.spc      1 <1>        0.000
     16 H          -5.3668   -0.8339   -0.9107 H.spc      1 <1>        0.000
     17 H          -6.6311    1.0050   -1.0572 H.spc      1 <1>        0.000
@<TRIPOS>BOND
     1    7    9 ar 
     2    8    9 ar 
     3    9   10 1  
     4    1    2 am 
     5    2    3 1  
     6    2    4 2  
     7    3    5 ar 
     8    3    6 ar 
     9    5    7 ar 
    10    6    8 ar 
    11    1   11 1  
    12    1   12 1  
    13    5   13 1  
    14    6   14 1  
    15    7   15 1  
    16    8   16 1  
    17   10   17 1  
