#      Rotatable Fragment
#      Build by yxyuan
#
# Name:          frag4-458-38/48856
# Creation time: Sat Jun  5 12:52:48 2010


@<TRIPOS>MOLECULE
frag4-458-38/48856
   21    22     1     1     1
SMALL
USER_CHARGES


@<TRIPOS>ATOM
      1 N5         10.2183   -0.8560    3.5287 N.3        1 <1>        0.000
      2 C18         9.6078   -0.7277    4.8098 C.3        1 <1>        0.000
      3 C19        10.3638   -1.3078    6.0272 C.3        1 <1>        0.000
      4 C20        10.8976   -2.6273    5.6273 C.ar       1 <1>        0.000
      5 C21        11.4020   -2.8056    4.3002 C.ar       1 <1>        0.000
      6 C22        11.8179   -4.0838    3.9290 C.ar       1 <1>        0.000
      7 C23        11.7562   -5.1710    4.7925 C.ar       1 <1>        0.000
      8 C24        11.2796   -5.0004    6.0574 C.ar       1 <1>        0.000
      9 C25        10.8583   -3.7444    6.4672 C.ar       1 <1>        0.000
     10 C26        11.3937   -1.6511    3.3750 C.3        1 <1>        0.000
     11 H          10.5177    0.0901    3.2929 H.spc      1 <1>        0.000
     12 H           9.5379    0.3444    4.9936 H.spc      1 <1>        0.000
     13 H           8.6777   -1.2927    4.7477 H.spc      1 <1>        0.000
     14 H          11.1736   -0.6426    6.3268 H.spc      1 <1>        0.000
     15 H           9.6935   -1.4092    6.8807 H.spc      1 <1>        0.000
     16 H          12.2066   -4.2362    2.9221 H.spc      1 <1>        0.000
     17 H          12.0873   -6.1547    4.4596 H.spc      1 <1>        0.000
     18 H          11.2298   -5.8462    6.7432 H.spc      1 <1>        0.000
     19 H          10.4821   -3.6234    7.4830 H.spc      1 <1>        0.000
     20 H          11.4189   -2.0308    2.3536 H.spc      1 <1>        0.000
     21 H          12.2599   -1.0280    3.5974 H.spc      1 <1>        0.000
@<TRIPOS>BOND
     1    3    4 1  
     2    5   10 1  
     3    5    6 ar 
     4    6    7 ar 
     5    4    9 ar 
     6    8    9 ar 
     7    2    3 1  
     8    4    5 ar 
     9    1    2 1  
    10    1   10 1  
    11    7    8 ar 
    12    1   11 1  
    13    2   12 1  
    14    2   13 1  
    15    3   14 1  
    16    3   15 1  
    17    6   16 1  
    18    7   17 1  
    19    8   18 1  
    20    9   19 1  
    21   10   20 1  
    22   10   21 1  
# Name:          frag4-458-38/48856
# Creation time: Sat Jun  5 12:52:48 2010


@<TRIPOS>MOLECULE
frag4-458-38/48856
   21    22     1     1     1
SMALL
USER_CHARGES


@<TRIPOS>ATOM
      1 N5         10.9030   -0.6556    3.8093 N.3        1 <1>        0.000
      2 C18        10.1792   -0.3035    4.9825 C.3        1 <1>        0.000
      3 C19         9.7925   -1.5214    5.8410 C.3        1 <1>        0.000
      4 C20        10.5521   -2.7647    5.5123 C.ar       1 <1>        0.000
      5 C21        11.0254   -2.9718    4.1730 C.ar       1 <1>        0.000
      6 C22        11.8055   -4.1102    3.9364 C.ar       1 <1>        0.000
      7 C23        12.1041   -5.0624    4.8944 C.ar       1 <1>        0.000
      8 C24        11.6231   -4.8944    6.1570 C.ar       1 <1>        0.000
      9 C25        10.8466   -3.7772    6.4364 C.ar       1 <1>        0.000
     10 C26        10.7637   -1.9138    3.1720 C.3        1 <1>        0.000
     11 H          11.8731   -0.6587    4.1245 H.spc      1 <1>        0.000
     12 H          10.8200    0.3382    5.5872 H.spc      1 <1>        0.000
     13 H           9.2577    0.1869    4.6687 H.spc      1 <1>        0.000
     14 H          10.0179   -1.2702    6.8774 H.spc      1 <1>        0.000
     15 H           8.7390   -1.7276    5.6523 H.spc      1 <1>        0.000
     16 H          12.2034   -4.2556    2.9321 H.spc      1 <1>        0.000
     17 H          12.7130   -5.9309    4.6432 H.spc      1 <1>        0.000
     18 H          11.8437   -5.6246    6.9356 H.spc      1 <1>        0.000
     19 H          10.4384   -3.6810    7.4425 H.spc      1 <1>        0.000
     20 H           9.7563   -2.0201    2.7696 H.spc      1 <1>        0.000
     21 H          11.4712   -1.9959    2.3469 H.spc      1 <1>        0.000
@<TRIPOS>BOND
     1    3    4 1  
     2    5   10 1  
     3    5    6 ar 
     4    6    7 ar 
     5    4    9 ar 
     6    8    9 ar 
     7    2    3 1  
     8    4    5 ar 
     9    1    2 1  
    10    1   10 1  
    11    7    8 ar 
    12    1   11 1  
    13    2   12 1  
    14    2   13 1  
    15    3   14 1  
    16    3   15 1  
    17    6   16 1  
    18    7   17 1  
    19    8   18 1  
    20    9   19 1  
    21   10   20 1  
    22   10   21 1  
# Name:          frag4-458-38/48856 -- energy: -1.071124
# Creation time: Sat Jun  5 12:52:48 2010


@<TRIPOS>MOLECULE
frag4-458-38/48856 -- energy: -1.071124
   21    22     1     1     1
SMALL
USER_CHARGES


@<TRIPOS>ATOM
      1 N5         10.2183   -0.8560    3.5287 N.3        1 <1>        0.000
      2 C18         9.6078   -0.7277    4.8098 C.3        1 <1>        0.000
      3 C19        10.3638   -1.3078    6.0272 C.3        1 <1>        0.000
      4 C20        10.8976   -2.6273    5.6273 C.ar       1 <1>        0.000
      5 C21        11.4020   -2.8056    4.3002 C.ar       1 <1>        0.000
      6 C22        11.8179   -4.0838    3.9290 C.ar       1 <1>        0.000
      7 C23        11.7562   -5.1710    4.7925 C.ar       1 <1>        0.000
      8 C24        11.2796   -5.0004    6.0574 C.ar       1 <1>        0.000
      9 C25        10.8583   -3.7444    6.4672 C.ar       1 <1>        0.000
     10 C26        11.3937   -1.6511    3.3750 C.3        1 <1>        0.000
     11 H          10.5177    0.0901    3.2929 H.spc      1 <1>        0.000
     12 H           9.5379    0.3444    4.9936 H.spc      1 <1>        0.000
     13 H           8.6777   -1.2927    4.7477 H.spc      1 <1>        0.000
     14 H          11.1736   -0.6426    6.3268 H.spc      1 <1>        0.000
     15 H           9.6935   -1.4092    6.8807 H.spc      1 <1>        0.000
     16 H          12.2066   -4.2362    2.9221 H.spc      1 <1>        0.000
     17 H          12.0873   -6.1547    4.4596 H.spc      1 <1>        0.000
     18 H          11.2298   -5.8462    6.7432 H.spc      1 <1>        0.000
     19 H          10.4821   -3.6234    7.4830 H.spc      1 <1>        0.000
     20 H          11.4189   -2.0308    2.3536 H.spc      1 <1>        0.000
     21 H          12.2599   -1.0280    3.5974 H.spc      1 <1>        0.000
@<TRIPOS>BOND
     1    3    4 1  
     2    5   10 1  
     3    5    6 ar 
     4    6    7 ar 
     5    4    9 ar 
     6    8    9 ar 
     7    2    3 1  
     8    4    5 ar 
     9    1    2 1  
    10    1   10 1  
    11    7    8 ar 
    12    1   11 1  
    13    2   12 1  
    14    2   13 1  
    15    3   14 1  
    16    3   15 1  
    17    6   16 1  
    18    7   17 1  
    19    8   18 1  
    20    9   19 1  
    21   10   20 1  
    22   10   21 1  
# Name:          frag4-458-38/48856 -- energy: -1.105353
# Creation time: Sat Jun  5 12:52:48 2010


@<TRIPOS>MOLECULE
frag4-458-38/48856 -- energy: -1.105353
   21    22     1     1     1
SMALL
USER_CHARGES


@<TRIPOS>ATOM
      1 N5         10.9030   -0.6556    3.8093 N.3        1 <1>        0.000
      2 C18        10.1792   -0.3035    4.9825 C.3        1 <1>        0.000
      3 C19         9.7925   -1.5214    5.8410 C.3        1 <1>        0.000
      4 C20        10.5521   -2.7647    5.5123 C.ar       1 <1>        0.000
      5 C21        11.0254   -2.9718    4.1730 C.ar       1 <1>        0.000
      6 C22        11.8055   -4.1102    3.9364 C.ar       1 <1>        0.000
      7 C23        12.1041   -5.0624    4.8944 C.ar       1 <1>        0.000
      8 C24        11.6231   -4.8944    6.1570 C.ar       1 <1>        0.000
      9 C25        10.8466   -3.7772    6.4364 C.ar       1 <1>        0.000
     10 C26        10.7637   -1.9138    3.1720 C.3        1 <1>        0.000
     11 H          11.8731   -0.6587    4.1245 H.spc      1 <1>        0.000
     12 H          10.8200    0.3382    5.5872 H.spc      1 <1>        0.000
     13 H           9.2577    0.1869    4.6687 H.spc      1 <1>        0.000
     14 H          10.0179   -1.2702    6.8774 H.spc      1 <1>        0.000
     15 H           8.7390   -1.7276    5.6523 H.spc      1 <1>        0.000
     16 H          12.2034   -4.2556    2.9321 H.spc      1 <1>        0.000
     17 H          12.7130   -5.9309    4.6432 H.spc      1 <1>        0.000
     18 H          11.8437   -5.6246    6.9356 H.spc      1 <1>        0.000
     19 H          10.4384   -3.6810    7.4425 H.spc      1 <1>        0.000
     20 H           9.7563   -2.0201    2.7696 H.spc      1 <1>        0.000
     21 H          11.4712   -1.9959    2.3469 H.spc      1 <1>        0.000
@<TRIPOS>BOND
     1    3    4 1  
     2    5   10 1  
     3    5    6 ar 
     4    6    7 ar 
     5    4    9 ar 
     6    8    9 ar 
     7    2    3 1  
     8    4    5 ar 
     9    1    2 1  
    10    1   10 1  
    11    7    8 ar 
    12    1   11 1  
    13    2   12 1  
    14    2   13 1  
    15    3   14 1  
    16    3   15 1  
    17    6   16 1  
    18    7   17 1  
    19    8   18 1  
    20    9   19 1  
    21   10   20 1  
    22   10   21 1  
