#      Rotatable Fragment
#      Build by yxyuan
#
# Name:          frag3-262-2/31924
# Creation time: Sat Jun  5 12:52:41 2010


@<TRIPOS>MOLECULE
frag3-262-2/31924
    3     2     1     1     1
SMALL
USER_CHARGES


@<TRIPOS>ATOM
      1 Cl1         1.2435    0.1151    0.0000 Cl         1 <1>        0.000
      2 O1         -0.3221   -0.4317    0.0000 O.3        1 <1>        0.000
      3 H          -0.4669   -0.9843   -0.7715 H.spc      1 <1>        0.000
@<TRIPOS>BOND
     1    1    2 1  
     2    2    3 1  
# Name:          frag3-262-2/31924 -- energy: 0.000000
# Creation time: Sat Jun  5 12:52:41 2010


@<TRIPOS>MOLECULE
frag3-262-2/31924 -- energy: 0.000000
    3     2     1     1     1
SMALL
USER_CHARGES


@<TRIPOS>ATOM
      1 Cl1         1.2435    0.1151    0.0000 Cl         1 <1>        0.000
      2 O1         -0.3221   -0.4317    0.0000 O.3        1 <1>        0.000
      3 H          -0.4669   -0.9843   -0.7715 H.spc      1 <1>        0.000
@<TRIPOS>BOND
     1    1    2 1  
     2    2    3 1  
