#      Rotatable Fragment
#      Build by yxyuan
#
# Name:          frag3-151-24/96164
# Creation time: Sat Jun  5 12:53:06 2010


@<TRIPOS>MOLECULE
frag3-151-24/96164
    7     6     1     1     1
SMALL
USER_CHARGES


@<TRIPOS>ATOM
      1 N2         -1.7595    0.0520   -0.0288 N.am       1 <1>        0.000
      2 C26        -0.4670   -0.4411   -0.0237 C.2        1 <1>        0.000
      3 S2         -0.3571   -2.1640   -0.0427 S.3        1 <1>        0.000
      4 S3          0.8290    0.6062   -0.0791 S.2        1 <1>        0.000
      5 H          -1.9213    1.0584   -0.0665 H.spc      1 <1>        0.000
      6 H          -2.5507   -0.5908    0.0052 H.spc      1 <1>        0.000
      7 H          -1.5794   -2.6853    0.0132 H.spc      1 <1>        0.000
@<TRIPOS>BOND
     1    1    2 am 
     2    2    3 1  
     3    2    4 2  
     4    1    5 1  
     5    1    6 1  
     6    3    7 1  
# Name:          frag3-151-24/96164 -- energy: -0.210770
# Creation time: Sat Jun  5 12:53:06 2010


@<TRIPOS>MOLECULE
frag3-151-24/96164 -- energy: -0.210770
    7     6     1     1     1
SMALL
USER_CHARGES


@<TRIPOS>ATOM
      1 N2         -1.7595    0.0520   -0.0288 N.am       1 <1>        0.000
      2 C26        -0.4670   -0.4411   -0.0237 C.2        1 <1>        0.000
      3 S2         -0.3571   -2.1640   -0.0427 S.3        1 <1>        0.000
      4 S3          0.8290    0.6062   -0.0791 S.2        1 <1>        0.000
      5 H          -1.9213    1.0584   -0.0665 H.spc      1 <1>        0.000
      6 H          -2.5507   -0.5908    0.0052 H.spc      1 <1>        0.000
      7 H          -1.5794   -2.6853    0.0132 H.spc      1 <1>        0.000
@<TRIPOS>BOND
     1    1    2 am 
     2    2    3 1  
     3    2    4 2  
     4    1    5 1  
     5    1    6 1  
     6    3    7 1  
