#      Rotatable Fragment
#      Build by yxyuan
#
# Name:          frag5-639-82/138278
# Creation time: Sat Jun  5 12:53:49 2010


@<TRIPOS>MOLECULE
frag5-639-82/138278
   15    16     1     1     1
SMALL
USER_CHARGES


@<TRIPOS>ATOM
      1 C1          0.9669   -0.2000    0.4251 C.3        1 <1>        0.000
      2 N1          1.0593   -1.5931    0.0640 N.am       1 <1>        0.000
      3 C2         -0.4862   -0.4919   -0.0615 C.3        1 <1>        0.000
      4 S1          2.6104    0.0858   -0.1908 S.3        1 <1>        0.000
      5 C3         -0.1295   -1.8949   -0.4603 C.2        1 <1>        0.000
      6 C4          2.2198   -2.4163   -0.0263 C.3        1 <1>        0.000
      7 C5          2.9645   -1.4997   -0.9796 C.3        1 <1>        0.000
      8 O1         -0.6643   -2.8405   -0.9720 O.2        1 <1>        0.000
      9 H           0.9209    0.6032    1.1605 H.spc      1 <1>        0.000
     10 H          -0.9335    0.1678   -0.8050 H.spc      1 <1>        0.000
     11 H          -1.3132   -0.3371    0.6315 H.spc      1 <1>        0.000
     12 H           2.0720   -3.4482   -0.3448 H.spc      1 <1>        0.000
     13 H           2.7200   -2.6720    0.9078 H.spc      1 <1>        0.000
     14 H           4.0242   -1.7257   -1.0982 H.spc      1 <1>        0.000
     15 H           2.6533   -1.5724   -2.0217 H.spc      1 <1>        0.000
@<TRIPOS>BOND
     1    1    2 1  
     2    1    3 1  
     3    1    4 1  
     4    2    5 am 
     5    2    6 1  
     6    3    5 1  
     7    4    7 1  
     8    5    8 2  
     9    6    7 1  
    10    1    9 1  
    11    3   10 1  
    12    3   11 1  
    13    6   12 1  
    14    6   13 1  
    15    7   14 1  
    16    7   15 1  
# Name:          frag5-639-82/138278 -- energy: -1.359627
# Creation time: Sat Jun  5 12:53:49 2010


@<TRIPOS>MOLECULE
frag5-639-82/138278 -- energy: -1.359627
   15    16     1     1     1
SMALL
USER_CHARGES


@<TRIPOS>ATOM
      1 C1          0.9669   -0.2000    0.4251 C.3        1 <1>        0.000
      2 N1          1.0593   -1.5931    0.0640 N.am       1 <1>        0.000
      3 C2         -0.4862   -0.4919   -0.0615 C.3        1 <1>        0.000
      4 S1          2.6104    0.0858   -0.1908 S.3        1 <1>        0.000
      5 C3         -0.1295   -1.8949   -0.4603 C.2        1 <1>        0.000
      6 C4          2.2198   -2.4163   -0.0263 C.3        1 <1>        0.000
      7 C5          2.9645   -1.4997   -0.9796 C.3        1 <1>        0.000
      8 O1         -0.6643   -2.8405   -0.9720 O.2        1 <1>        0.000
      9 H           0.9209    0.6032    1.1605 H.spc      1 <1>        0.000
     10 H          -0.9335    0.1678   -0.8050 H.spc      1 <1>        0.000
     11 H          -1.3132   -0.3371    0.6315 H.spc      1 <1>        0.000
     12 H           2.0720   -3.4482   -0.3448 H.spc      1 <1>        0.000
     13 H           2.7200   -2.6720    0.9078 H.spc      1 <1>        0.000
     14 H           4.0242   -1.7257   -1.0982 H.spc      1 <1>        0.000
     15 H           2.6533   -1.5724   -2.0217 H.spc      1 <1>        0.000
@<TRIPOS>BOND
     1    1    2 1  
     2    1    3 1  
     3    1    4 1  
     4    2    5 am 
     5    2    6 1  
     6    3    5 1  
     7    4    7 1  
     8    5    8 2  
     9    6    7 1  
    10    1    9 1  
    11    3   10 1  
    12    3   11 1  
    13    6   12 1  
    14    6   13 1  
    15    7   14 1  
    16    7   15 1  
