#      Rotatable Fragment
#      Build by yxyuan
#
# Name:          frag5-623-31/41815
# Creation time: Sat Jun  5 12:52:59 2010


@<TRIPOS>MOLECULE
frag5-623-31/41815
   19    20     1     1     1
SMALL
USER_CHARGES


@<TRIPOS>ATOM
      1 C14        -2.1514   -1.1299   -0.0599 C.2        1 <1>        0.000
      2 C15        -2.4051    0.1773   -0.0044 C.2        1 <1>        0.000
      3 C16        -1.2465    1.1202    0.0129 C.2        1 <1>        0.000
      4 C17         0.1561    0.6166   -0.0099 C.ar       1 <1>        0.000
      5 C18         0.3740   -0.7839   -0.0503 C.ar       1 <1>        0.000
      6 C19         1.7007   -1.2804   -0.0687 C.ar       1 <1>        0.000
      7 C20         2.7922   -0.3951   -0.0508 C.ar       1 <1>        0.000
      8 C21         2.5767    0.9861   -0.0117 C.ar       1 <1>        0.000
      9 C22         1.2695    1.4942    0.0094 C.ar       1 <1>        0.000
     10 C23        -0.8034   -1.6933   -0.0737 C.2        1 <1>        0.000
     11 O1         -0.5989   -2.8942   -0.1046 O.2        1 <1>        0.000
     12 O2         -1.4044    2.3345    0.0434 O.2        1 <1>        0.000
     13 O3         -3.6706    0.6750    0.0440 O.3        1 <1>        0.000
     14 H          -2.9967   -1.8170   -0.0971 H.spc      1 <1>        0.000
     15 H           1.8761   -2.3558   -0.0969 H.spc      1 <1>        0.000
     16 H           3.8095   -0.7862   -0.0674 H.spc      1 <1>        0.000
     17 H           3.4261    1.6690    0.0024 H.spc      1 <1>        0.000
     18 H           1.1084    2.5718    0.0409 H.spc      1 <1>        0.000
     19 H          -3.6351    1.6337    0.0795 H.spc      1 <1>        0.000
@<TRIPOS>BOND
     1    5    6 ar 
     2    6    7 ar 
     3    4    5 ar 
     4    5   10 1  
     5    8    9 ar 
     6    3   12 2  
     7    4    9 ar 
     8    7    8 ar 
     9    1    2 2  
    10    1   10 1  
    11    2    3 1  
    12    2   13 1  
    13    3    4 1  
    14   10   11 2  
    15    1   14 1  
    16    6   15 1  
    17    7   16 1  
    18    8   17 1  
    19    9   18 1  
    20   13   19 1  
# Name:          frag5-623-31/41815 -- energy: -0.863042
# Creation time: Sat Jun  5 12:52:59 2010


@<TRIPOS>MOLECULE
frag5-623-31/41815 -- energy: -0.863042
   19    20     1     1     1
SMALL
USER_CHARGES


@<TRIPOS>ATOM
      1 C14        -2.1514   -1.1299   -0.0599 C.2        1 <1>        0.000
      2 C15        -2.4051    0.1773   -0.0044 C.2        1 <1>        0.000
      3 C16        -1.2465    1.1202    0.0129 C.2        1 <1>        0.000
      4 C17         0.1561    0.6166   -0.0099 C.ar       1 <1>        0.000
      5 C18         0.3740   -0.7839   -0.0503 C.ar       1 <1>        0.000
      6 C19         1.7007   -1.2804   -0.0687 C.ar       1 <1>        0.000
      7 C20         2.7922   -0.3951   -0.0508 C.ar       1 <1>        0.000
      8 C21         2.5767    0.9861   -0.0117 C.ar       1 <1>        0.000
      9 C22         1.2695    1.4942    0.0094 C.ar       1 <1>        0.000
     10 C23        -0.8034   -1.6933   -0.0737 C.2        1 <1>        0.000
     11 O1         -0.5989   -2.8942   -0.1046 O.2        1 <1>        0.000
     12 O2         -1.4044    2.3345    0.0434 O.2        1 <1>        0.000
     13 O3         -3.6706    0.6750    0.0440 O.3        1 <1>        0.000
     14 H          -2.9967   -1.8170   -0.0971 H.spc      1 <1>        0.000
     15 H           1.8761   -2.3558   -0.0969 H.spc      1 <1>        0.000
     16 H           3.8095   -0.7862   -0.0674 H.spc      1 <1>        0.000
     17 H           3.4261    1.6690    0.0024 H.spc      1 <1>        0.000
     18 H           1.1084    2.5718    0.0409 H.spc      1 <1>        0.000
     19 H          -3.6351    1.6337    0.0795 H.spc      1 <1>        0.000
@<TRIPOS>BOND
     1    5    6 ar 
     2    6    7 ar 
     3    4    5 ar 
     4    5   10 1  
     5    8    9 ar 
     6    3   12 2  
     7    4    9 ar 
     8    7    8 ar 
     9    1    2 2  
    10    1   10 1  
    11    2    3 1  
    12    2   13 1  
    13    3    4 1  
    14   10   11 2  
    15    1   14 1  
    16    6   15 1  
    17    7   16 1  
    18    8   17 1  
    19    9   18 1  
    20   13   19 1  
