#      Rotatable Fragment
#      Build by yxyuan
#
# Name:          frag4-343-137/48856
# Creation time: Sat Jun  5 12:53:00 2010


@<TRIPOS>MOLECULE
frag4-343-137/48856
   20    21     1     1     1
SMALL
USER_CHARGES


@<TRIPOS>ATOM
      1 C14         2.5404   -0.6428    0.0844 C.2        1 <1>        0.000
      2 C15         2.5245    0.6954    0.1328 C.2        1 <1>        0.000
      3 C16         1.2357    1.4139    0.1022 C.3        1 <1>        0.000
      4 C17        -0.0594    0.7106    0.0219 C.ar       1 <1>        0.000
      5 C18        -0.0424   -0.7110   -0.0301 C.ar       1 <1>        0.000
      6 C19        -1.2504   -1.4127   -0.1115 C.ar       1 <1>        0.000
      7 C20        -2.4732   -0.7271   -0.1296 C.ar       1 <1>        0.000
      8 C21        -2.4902    0.6749   -0.0755 C.ar       1 <1>        0.000
      9 C22        -1.2845    1.3868   -0.0021 C.ar       1 <1>        0.000
     10 C23         1.2690   -1.3874    0.0015 C.3        1 <1>        0.000
     11 H           3.4886   -1.1799    0.1062 H.spc      1 <1>        0.000
     12 H           3.4598    1.2518    0.1946 H.spc      1 <1>        0.000
     13 H           1.2791    1.9721   -0.8330 H.spc      1 <1>        0.000
     14 H           1.1969    1.9058    1.0741 H.spc      1 <1>        0.000
     15 H          -1.2406   -2.5015   -0.1613 H.spc      1 <1>        0.000
     16 H          -3.4094   -1.2825   -0.1856 H.spc      1 <1>        0.000
     17 H          -3.4397    1.2100   -0.0905 H.spc      1 <1>        0.000
     18 H          -1.3015    2.4760    0.0366 H.spc      1 <1>        0.000
     19 H           1.3250   -1.8766   -0.9710 H.spc      1 <1>        0.000
     20 H           1.2424   -1.9477    0.9361 H.spc      1 <1>        0.000
@<TRIPOS>BOND
     1    5    6 ar 
     2    8    9 ar 
     3    7    8 ar 
     4    5   10 1  
     5    4    9 ar 
     6    6    7 ar 
     7    1   10 1  
     8    1    2 2  
     9    2    3 1  
    10    3    4 1  
    11    4    5 ar 
    12    1   11 1  
    13    2   12 1  
    14    3   13 1  
    15    3   14 1  
    16    6   15 1  
    17    7   16 1  
    18    8   17 1  
    19    9   18 1  
    20   10   19 1  
    21   10   20 1  
# Name:          frag4-343-137/48856 -- energy: -1.105288
# Creation time: Sat Jun  5 12:53:00 2010


@<TRIPOS>MOLECULE
frag4-343-137/48856 -- energy: -1.105288
   20    21     1     1     1
SMALL
USER_CHARGES


@<TRIPOS>ATOM
      1 C14         2.5404   -0.6428    0.0844 C.2        1 <1>        0.000
      2 C15         2.5245    0.6954    0.1328 C.2        1 <1>        0.000
      3 C16         1.2357    1.4139    0.1022 C.3        1 <1>        0.000
      4 C17        -0.0594    0.7106    0.0219 C.ar       1 <1>        0.000
      5 C18        -0.0424   -0.7110   -0.0301 C.ar       1 <1>        0.000
      6 C19        -1.2504   -1.4127   -0.1115 C.ar       1 <1>        0.000
      7 C20        -2.4732   -0.7271   -0.1296 C.ar       1 <1>        0.000
      8 C21        -2.4902    0.6749   -0.0755 C.ar       1 <1>        0.000
      9 C22        -1.2845    1.3868   -0.0021 C.ar       1 <1>        0.000
     10 C23         1.2690   -1.3874    0.0015 C.3        1 <1>        0.000
     11 H           3.4886   -1.1799    0.1062 H.spc      1 <1>        0.000
     12 H           3.4598    1.2518    0.1946 H.spc      1 <1>        0.000
     13 H           1.2791    1.9721   -0.8330 H.spc      1 <1>        0.000
     14 H           1.1969    1.9058    1.0741 H.spc      1 <1>        0.000
     15 H          -1.2406   -2.5015   -0.1613 H.spc      1 <1>        0.000
     16 H          -3.4094   -1.2825   -0.1856 H.spc      1 <1>        0.000
     17 H          -3.4397    1.2100   -0.0905 H.spc      1 <1>        0.000
     18 H          -1.3015    2.4760    0.0366 H.spc      1 <1>        0.000
     19 H           1.3250   -1.8766   -0.9710 H.spc      1 <1>        0.000
     20 H           1.2424   -1.9477    0.9361 H.spc      1 <1>        0.000
@<TRIPOS>BOND
     1    5    6 ar 
     2    8    9 ar 
     3    7    8 ar 
     4    5   10 1  
     5    4    9 ar 
     6    6    7 ar 
     7    1   10 1  
     8    1    2 2  
     9    2    3 1  
    10    3    4 1  
    11    4    5 ar 
    12    1   11 1  
    13    2   12 1  
    14    3   13 1  
    15    3   14 1  
    16    6   15 1  
    17    7   16 1  
    18    8   17 1  
    19    9   18 1  
    20   10   19 1  
    21   10   20 1  
