#      Rotatable Fragment
#      Build by yxyuan
#
# Name:          frag3-164-11/31924
# Creation time: Sat Jun  5 12:52:05 2010


@<TRIPOS>MOLECULE
frag3-164-11/31924
    7     6     1     1     1
SMALL
USER_CHARGES


@<TRIPOS>ATOM
      1 N4         -1.0157   -0.1581   -0.0055 N.am       1 <1>        0.000
      2 C7          0.2257    0.3319    0.0026 C.2        1 <1>        0.000
      3 S1          0.8054    1.8679   -0.1678 S.2        1 <1>        0.000
      4 O3          1.0320   -0.7171    0.1775 O.3        1 <1>        0.000
      5 H          -1.8103    0.4680   -0.1359 H.spc      1 <1>        0.000
      6 H          -1.1699   -1.1587    0.1187 H.spc      1 <1>        0.000
      7 H           0.5044   -1.5154    0.2550 H.spc      1 <1>        0.000
@<TRIPOS>BOND
     1    1    2 am 
     2    2    3 2  
     3    2    4 1  
     4    1    5 1  
     5    1    6 1  
     6    4    7 1  
# Name:          frag3-164-11/31924 -- energy: 2.343773
# Creation time: Sat Jun  5 12:52:05 2010


@<TRIPOS>MOLECULE
frag3-164-11/31924 -- energy: 2.343773
    7     6     1     1     1
SMALL
USER_CHARGES


@<TRIPOS>ATOM
      1 N4         -1.0157   -0.1581   -0.0055 N.am       1 <1>        0.000
      2 C7          0.2257    0.3319    0.0026 C.2        1 <1>        0.000
      3 S1          0.8054    1.8679   -0.1678 S.2        1 <1>        0.000
      4 O3          1.0320   -0.7171    0.1775 O.3        1 <1>        0.000
      5 H          -1.8103    0.4680   -0.1359 H.spc      1 <1>        0.000
      6 H          -1.1699   -1.1587    0.1187 H.spc      1 <1>        0.000
      7 H           0.5044   -1.5154    0.2550 H.spc      1 <1>        0.000
@<TRIPOS>BOND
     1    1    2 am 
     2    2    3 2  
     3    2    4 1  
     4    1    5 1  
     5    1    6 1  
     6    4    7 1  
