#      Rotatable Fragment
#      Build by yxyuan
#
# Name:          frag3-240-3/31924
# Creation time: Sat Jun  5 12:52:36 2010


@<TRIPOS>MOLECULE
frag3-240-3/31924
    9     8     1     1     1
SMALL
USER_CHARGES


@<TRIPOS>ATOM
      1 S1          6.4323   -2.4150    1.6708 S.o2       1 <1>        0.000
      2 O1          7.1571   -3.4593    0.9987 O.2        1 <1>        0.000
      3 O2          6.7308   -1.9504    2.9984 O.2        1 <1>        0.000
      4 N1          5.8919   -1.2335    0.6653 N.am       1 <1>        0.000
      5 C1          4.6030   -0.9766    0.2528 C.2        1 <1>        0.000
      6 O3          4.2899   -0.1013   -0.5355 O.2        1 <1>        0.000
      7 H           5.4540   -3.2228    2.0699 H.spc      1 <1>        0.000
      8 H           6.6067   -0.6060    0.2971 H.spc      1 <1>        0.000
      9 H           3.8070   -1.6000    0.6600 H.spc      1 <1>        0.000
@<TRIPOS>BOND
     1    1    2 2  
     2    1    3 2  
     3    1    4 1  
     4    4    5 am 
     5    5    6 2  
     6    1    7 1  
     7    4    8 1  
     8    5    9 1  
# Name:          frag3-240-3/31924
# Creation time: Sat Jun  5 12:52:36 2010


@<TRIPOS>MOLECULE
frag3-240-3/31924
    9     8     1     1     1
SMALL
USER_CHARGES


@<TRIPOS>ATOM
      1 S1          6.5688   -2.0274    1.5843 S.o2       1 <1>        0.000
      2 O1          6.9915   -2.2733    2.9313 O.2        1 <1>        0.000
      3 O2          6.5777   -3.0184    0.5439 O.2        1 <1>        0.000
      4 N1          5.3034   -0.9742    1.4605 N.am       1 <1>        0.000
      5 C1          4.6136   -0.7109    0.2983 C.2        1 <1>        0.000
      6 O3          5.0501   -1.1319   -0.7678 O.2        1 <1>        0.000
      7 H           7.7255   -1.4721    1.2340 H.spc      1 <1>        0.000
      8 H           5.0117   -0.4833    2.3057 H.spc      1 <1>        0.000
      9 H           3.6891   -0.1342    0.3254 H.spc      1 <1>        0.000
@<TRIPOS>BOND
     1    1    2 2  
     2    1    3 2  
     3    1    4 1  
     4    4    5 am 
     5    5    6 2  
     6    1    7 1  
     7    4    8 1  
     8    5    9 1  
# Name:          frag3-240-3/31924 -- energy: -0.427929
# Creation time: Sat Jun  5 12:52:36 2010


@<TRIPOS>MOLECULE
frag3-240-3/31924 -- energy: -0.427929
    9     8     1     1     1
SMALL
USER_CHARGES


@<TRIPOS>ATOM
      1 S1          6.4323   -2.4150    1.6708 S.o2       1 <1>        0.000
      2 O1          7.1571   -3.4593    0.9987 O.2        1 <1>        0.000
      3 O2          6.7308   -1.9504    2.9984 O.2        1 <1>        0.000
      4 N1          5.8919   -1.2335    0.6653 N.am       1 <1>        0.000
      5 C1          4.6030   -0.9766    0.2528 C.2        1 <1>        0.000
      6 O3          4.2899   -0.1013   -0.5355 O.2        1 <1>        0.000
      7 H           5.4540   -3.2228    2.0699 H.spc      1 <1>        0.000
      8 H           6.6067   -0.6060    0.2971 H.spc      1 <1>        0.000
      9 H           3.8070   -1.6000    0.6600 H.spc      1 <1>        0.000
@<TRIPOS>BOND
     1    1    2 2  
     2    1    3 2  
     3    1    4 1  
     4    4    5 am 
     5    5    6 2  
     6    1    7 1  
     7    4    8 1  
     8    5    9 1  
# Name:          frag3-240-3/31924 -- energy: -0.393517
# Creation time: Sat Jun  5 12:52:36 2010


@<TRIPOS>MOLECULE
frag3-240-3/31924 -- energy: -0.393517
    9     8     1     1     1
SMALL
USER_CHARGES


@<TRIPOS>ATOM
      1 S1          6.5688   -2.0274    1.5843 S.o2       1 <1>        0.000
      2 O1          6.9915   -2.2733    2.9313 O.2        1 <1>        0.000
      3 O2          6.5777   -3.0184    0.5439 O.2        1 <1>        0.000
      4 N1          5.3034   -0.9742    1.4605 N.am       1 <1>        0.000
      5 C1          4.6136   -0.7109    0.2983 C.2        1 <1>        0.000
      6 O3          5.0501   -1.1319   -0.7678 O.2        1 <1>        0.000
      7 H           7.7255   -1.4721    1.2340 H.spc      1 <1>        0.000
      8 H           5.0117   -0.4833    2.3057 H.spc      1 <1>        0.000
      9 H           3.6891   -0.1342    0.3254 H.spc      1 <1>        0.000
@<TRIPOS>BOND
     1    1    2 2  
     2    1    3 2  
     3    1    4 1  
     4    4    5 am 
     5    5    6 2  
     6    1    7 1  
     7    4    8 1  
     8    5    9 1  
