#      Rotatable Fragment
#      Build by yxyuan
#
# Name:          frag3-106-238/96164
# Creation time: Sat Jun  5 12:53:37 2010


@<TRIPOS>MOLECULE
frag3-106-238/96164
   10     9     1     1     1
SMALL
USER_CHARGES


@<TRIPOS>ATOM
      1 C10         1.8821    0.0583   -0.1319 C.2        1 <1>        0.000
      2 C16         0.5855   -0.2043   -0.2824 C.2        1 <1>        0.000
      3 C20        -0.5988    0.2905    0.3242 C.2        1 <1>        0.000
      4 C26        -1.8652    0.1078   -0.0514 C.2        1 <1>        0.000
      5 H           2.2065    0.8037    0.5942 H.spc      1 <1>        0.000
      6 H           2.6192   -0.4721   -0.7348 H.spc      1 <1>        0.000
      7 H           0.3906   -0.9664   -1.0369 H.spc      1 <1>        0.000
      8 H          -0.4537    0.9009    1.2155 H.spc      1 <1>        0.000
      9 H          -2.0910   -0.4913   -0.9336 H.spc      1 <1>        0.000
     10 H          -2.6745    0.5575    0.5237 H.spc      1 <1>        0.000
@<TRIPOS>BOND
     1    1    2 2  
     2    2    3 1  
     3    3    4 2  
     4    1    5 1  
     5    1    6 1  
     6    2    7 1  
     7    3    8 1  
     8    4    9 1  
     9    4   10 1  
# Name:          frag3-106-238/96164
# Creation time: Sat Jun  5 12:53:37 2010


@<TRIPOS>MOLECULE
frag3-106-238/96164
   10     9     1     1     1
SMALL
USER_CHARGES


@<TRIPOS>ATOM
      1 C10         1.5686    0.0966   -0.6359 C.2        1 <1>        0.000
      2 C16         0.7250   -0.1141    0.3738 C.2        1 <1>        0.000
      3 C20        -0.6866   -0.0323    0.5143 C.2        1 <1>        0.000
      4 C26        -1.6035    0.3021   -0.3936 C.2        1 <1>        0.000
      5 H           1.1871    0.4025   -1.6100 H.spc      1 <1>        0.000
      6 H           2.6402   -0.0370   -0.4877 H.spc      1 <1>        0.000
      7 H           1.2277   -0.4150    1.2930 H.spc      1 <1>        0.000
      8 H          -1.0740   -0.2774    1.5032 H.spc      1 <1>        0.000
      9 H          -1.2977    0.5611   -1.4072 H.spc      1 <1>        0.000
     10 H          -2.6591    0.3165   -0.1224 H.spc      1 <1>        0.000
@<TRIPOS>BOND
     1    1    2 2  
     2    2    3 1  
     3    3    4 2  
     4    1    5 1  
     5    1    6 1  
     6    2    7 1  
     7    3    8 1  
     8    4    9 1  
     9    4   10 1  
# Name:          frag3-106-238/96164 -- energy: -0.396198
# Creation time: Sat Jun  5 12:53:37 2010


@<TRIPOS>MOLECULE
frag3-106-238/96164 -- energy: -0.396198
   10     9     1     1     1
SMALL
USER_CHARGES


@<TRIPOS>ATOM
      1 C10         1.8821    0.0583   -0.1319 C.2        1 <1>        0.000
      2 C16         0.5855   -0.2043   -0.2824 C.2        1 <1>        0.000
      3 C20        -0.5988    0.2905    0.3242 C.2        1 <1>        0.000
      4 C26        -1.8652    0.1078   -0.0514 C.2        1 <1>        0.000
      5 H           2.2065    0.8037    0.5942 H.spc      1 <1>        0.000
      6 H           2.6192   -0.4721   -0.7348 H.spc      1 <1>        0.000
      7 H           0.3906   -0.9664   -1.0369 H.spc      1 <1>        0.000
      8 H          -0.4537    0.9009    1.2155 H.spc      1 <1>        0.000
      9 H          -2.0910   -0.4913   -0.9336 H.spc      1 <1>        0.000
     10 H          -2.6745    0.5575    0.5237 H.spc      1 <1>        0.000
@<TRIPOS>BOND
     1    1    2 2  
     2    2    3 1  
     3    3    4 2  
     4    1    5 1  
     5    1    6 1  
     6    2    7 1  
     7    3    8 1  
     8    4    9 1  
     9    4   10 1  
# Name:          frag3-106-238/96164 -- energy: -0.478846
# Creation time: Sat Jun  5 12:53:37 2010


@<TRIPOS>MOLECULE
frag3-106-238/96164 -- energy: -0.478846
   10     9     1     1     1
SMALL
USER_CHARGES


@<TRIPOS>ATOM
      1 C10         1.5686    0.0966   -0.6359 C.2        1 <1>        0.000
      2 C16         0.7250   -0.1141    0.3738 C.2        1 <1>        0.000
      3 C20        -0.6866   -0.0323    0.5143 C.2        1 <1>        0.000
      4 C26        -1.6035    0.3021   -0.3936 C.2        1 <1>        0.000
      5 H           1.1871    0.4025   -1.6100 H.spc      1 <1>        0.000
      6 H           2.6402   -0.0370   -0.4877 H.spc      1 <1>        0.000
      7 H           1.2277   -0.4150    1.2930 H.spc      1 <1>        0.000
      8 H          -1.0740   -0.2774    1.5032 H.spc      1 <1>        0.000
      9 H          -1.2977    0.5611   -1.4072 H.spc      1 <1>        0.000
     10 H          -2.6591    0.3165   -0.1224 H.spc      1 <1>        0.000
@<TRIPOS>BOND
     1    1    2 2  
     2    2    3 1  
     3    3    4 2  
     4    1    5 1  
     5    1    6 1  
     6    2    7 1  
     7    3    8 1  
     8    4    9 1  
     9    4   10 1  
