#      Rotatable Fragment
#      Build by yxyuan
#
# Name:          frag5-633-30/41815
# Creation time: Sat Jun  5 12:53:00 2010


@<TRIPOS>MOLECULE
frag5-633-30/41815
   31    33     1     1     1
SMALL
USER_CHARGES


@<TRIPOS>ATOM
      1 O6         -1.5781    0.6278   -0.5305 O.3        1 <1>        0.000
      2 C7         -0.2535    0.2935   -0.4458 C.ar       1 <1>        0.000
      3 C8          0.5383    1.0138    0.5388 C.ar       1 <1>        0.000
      4 O7          1.7922    0.6980    0.6531 O.3        1 <1>        0.000
      5 C9          2.4562   -0.2214   -0.0794 C.ar       1 <1>        0.000
      6 C10         1.7802   -0.9644   -1.0651 C.ar       1 <1>        0.000
      7 C11         2.4549   -1.9501   -1.8533 C.ar       1 <1>        0.000
      8 C17         0.5760    3.2716    1.6196 C.ar       1 <1>        0.000
      9 C12         3.8317   -2.0797   -1.5981 C.ar       1 <1>        0.000
     10 C13         4.5783   -1.3728   -0.6466 C.ar       1 <1>        0.000
     11 C14         3.8148   -0.4595    0.1067 C.ar       1 <1>        0.000
     12 O8          5.8837   -1.5652   -0.4778 O.3        1 <1>        0.000
     13 O9          1.8008   -2.6757   -2.7673 O.3        1 <1>        0.000
     14 C15         0.3014   -0.6636   -1.2342 C.ar       1 <1>        0.000
     15 O10        -0.3338   -1.2623   -2.0424 O.2        1 <1>        0.000
     16 C16        -0.1092    2.0787    1.3685 C.ar       1 <1>        0.000
     17 C18        -0.0225    4.2626    2.3965 C.ar       1 <1>        0.000
     18 C19        -1.2887    4.1201    3.0003 C.ar       1 <1>        0.000
     19 C20        -1.9069    2.8712    2.7747 C.ar       1 <1>        0.000
     20 C21        -1.3448    1.8743    1.9818 C.ar       1 <1>        0.000
     21 O11        -1.8252    5.0929    3.7348 O.3        1 <1>        0.000
     22 H          -1.7736    1.3200    0.1053 H.spc      1 <1>        0.000
     23 H           1.5741    3.4260    1.2096 H.spc      1 <1>        0.000
     24 H           4.3744   -2.8056   -2.2036 H.spc      1 <1>        0.000
     25 H           4.3242    0.1004    0.8910 H.spc      1 <1>        0.000
     26 H           6.2039   -0.9868    0.2183 H.spc      1 <1>        0.000
     27 H           0.8747   -2.4228   -2.7721 H.spc      1 <1>        0.000
     28 H           0.5174    5.1977    2.5451 H.spc      1 <1>        0.000
     29 H          -2.8714    2.6779    3.2442 H.spc      1 <1>        0.000
     30 H          -1.8722    0.9310    1.8400 H.spc      1 <1>        0.000
     31 H          -1.2306    5.8464    3.7493 H.spc      1 <1>        0.000
@<TRIPOS>BOND
     1   19   20 ar 
     2   18   19 ar 
     3    6   14 ar 
     4    3    4 ar 
     5    2   14 ar 
     6    3   16 1  
     7    8   17 ar 
     8    4    5 ar 
     9   17   18 ar 
    10    7    9 ar 
    11    7   13 1  
    12   10   12 1  
    13    6    7 ar 
    14    5   11 ar 
    15    9   10 ar 
    16   10   11 ar 
    17    5    6 ar 
    18   16   20 ar 
    19    2    3 ar 
    20   14   15 2  
    21   18   21 1  
    22   16    8 ar 
    23    1    2 1  
    24    1   22 1  
    25    8   23 1  
    26    9   24 1  
    27   11   25 1  
    28   12   26 1  
    29   13   27 1  
    30   17   28 1  
    31   19   29 1  
    32   20   30 1  
    33   21   31 1  
# Name:          frag5-633-30/41815
# Creation time: Sat Jun  5 12:53:00 2010


@<TRIPOS>MOLECULE
frag5-633-30/41815
   31    33     1     1     1
SMALL
USER_CHARGES


@<TRIPOS>ATOM
      1 O6         -1.5055    0.8479   -0.7633 O.3        1 <1>        0.000
      2 C7         -0.2106    0.4314   -0.5895 C.ar       1 <1>        0.000
      3 C8          0.5255    1.0396    0.4944 C.ar       1 <1>        0.000
      4 O7          1.7431    0.6317    0.7132 O.3        1 <1>        0.000
      5 C9          2.4192   -0.2854   -0.0180 C.ar       1 <1>        0.000
      6 C10         1.7941   -0.9313   -1.1011 C.ar       1 <1>        0.000
      7 C11         2.4749   -1.9136   -1.8838 C.ar       1 <1>        0.000
      8 C17        -0.6250    3.2885    0.8202 C.ar       1 <1>        0.000
      9 C12         3.8113   -2.1541   -1.5213 C.ar       1 <1>        0.000
     10 C13         4.5052   -1.5409   -0.4660 C.ar       1 <1>        0.000
     11 C14         3.7397   -0.6204    0.2726 C.ar       1 <1>        0.000
     12 O8          5.7798   -1.8326   -0.1929 O.3        1 <1>        0.000
     13 O9          1.8570   -2.5458   -2.8928 O.3        1 <1>        0.000
     14 C15         0.3531   -0.5236   -1.3835 C.ar       1 <1>        0.000
     15 O10        -0.2389   -1.0412   -2.2792 O.2        1 <1>        0.000
     16 C16        -0.1208    2.0956    1.3432 C.ar       1 <1>        0.000
     17 C18        -1.2024    4.2269    1.6735 C.ar       1 <1>        0.000
     18 C19        -1.2771    4.0606    3.0704 C.ar       1 <1>        0.000
     19 C20        -0.6982    2.8681    3.5603 C.ar       1 <1>        0.000
     20 C21        -0.1357    1.9032    2.7252 C.ar       1 <1>        0.000
     21 O11        -1.8428    4.9853    3.8526 O.3        1 <1>        0.000
     22 H          -1.7144    1.5205   -0.1109 H.spc      1 <1>        0.000
     23 H          -0.5671    3.4846   -0.2505 H.spc      1 <1>        0.000
     24 H           4.3604   -2.8850   -2.1149 H.spc      1 <1>        0.000
     25 H           4.2109   -0.1375    1.1287 H.spc      1 <1>        0.000
     26 H           6.0719   -1.3123    0.5592 H.spc      1 <1>        0.000
     27 H           0.9537   -2.2283   -2.9625 H.spc      1 <1>        0.000
     28 H          -1.6173    5.1358    1.2379 H.spc      1 <1>        0.000
     29 H          -0.6910    2.6952    4.6365 H.spc      1 <1>        0.000
     30 H           0.2932    0.9970    3.1529 H.spc      1 <1>        0.000
     31 H          -2.1682    5.7068    3.3093 H.spc      1 <1>        0.000
@<TRIPOS>BOND
     1   19   20 ar 
     2   18   19 ar 
     3    6   14 ar 
     4    3    4 ar 
     5    2   14 ar 
     6    3   16 1  
     7    8   17 ar 
     8    4    5 ar 
     9   17   18 ar 
    10    7    9 ar 
    11    7   13 1  
    12   10   12 1  
    13    6    7 ar 
    14    5   11 ar 
    15    9   10 ar 
    16   10   11 ar 
    17    5    6 ar 
    18   16   20 ar 
    19    2    3 ar 
    20   14   15 2  
    21   18   21 1  
    22   16    8 ar 
    23    1    2 1  
    24    1   22 1  
    25    8   23 1  
    26    9   24 1  
    27   11   25 1  
    28   12   26 1  
    29   13   27 1  
    30   17   28 1  
    31   19   29 1  
    32   20   30 1  
    33   21   31 1  
