#      Rotatable Fragment
#      Build by yxyuan
#
# Name:          frag4-377-78/48856
# Creation time: Sat Jun  5 12:53:34 2010


@<TRIPOS>MOLECULE
frag4-377-78/48856
   16    16     1     1     1
SMALL
USER_CHARGES


@<TRIPOS>ATOM
      1 N1          2.7130    1.3060    0.8134 N.3        1 <1>        0.000
      2 C1          1.7394    1.4592   -0.2208 C.3        1 <1>        0.000
      3 C2          0.3418    1.5077    0.3663 C.3        1 <1>        0.000
      4 N2          0.1667    2.5920    1.2783 N.3        1 <1>        0.000
      5 C3          1.3258    2.8712    2.0945 C.3        1 <1>        0.000
      6 C4          2.3720    1.7397    2.1528 C.3        1 <1>        0.000
      7 H           3.4956    1.8969    0.5327 H.spc      1 <1>        0.000
      8 H           1.8083    0.6095   -0.9000 H.spc      1 <1>        0.000
      9 H           1.9321    2.3910   -0.7526 H.spc      1 <1>        0.000
     10 H           0.1752    0.5795    0.9129 H.spc      1 <1>        0.000
     11 H          -0.3624    1.6429   -0.4547 H.spc      1 <1>        0.000
     12 H          -0.5918    2.3349    1.9100 H.spc      1 <1>        0.000
     13 H           1.8215    3.7347    1.6510 H.spc      1 <1>        0.000
     14 H           0.9650    3.0181    3.1125 H.spc      1 <1>        0.000
     15 H           1.9569    0.8974    2.7063 H.spc      1 <1>        0.000
     16 H           3.2700    2.1086    2.6484 H.spc      1 <1>        0.000
@<TRIPOS>BOND
     1    5    6 1  
     2    1    2 1  
     3    1    6 1  
     4    2    3 1  
     5    3    4 1  
     6    4    5 1  
     7    1    7 1  
     8    2    8 1  
     9    2    9 1  
    10    3   10 1  
    11    3   11 1  
    12    4   12 1  
    13    5   13 1  
    14    5   14 1  
    15    6   15 1  
    16    6   16 1  
# Name:          frag4-377-78/48856
# Creation time: Sat Jun  5 12:53:34 2010


@<TRIPOS>MOLECULE
frag4-377-78/48856
   16    16     1     1     1
SMALL
USER_CHARGES


@<TRIPOS>ATOM
      1 N1          0.2708    2.6742    1.2976 N.3        1 <1>        0.000
      2 C1          0.3932    1.9521    0.0673 C.3        1 <1>        0.000
      3 C2          1.6130    0.9565    0.0184 C.3        1 <1>        0.000
      4 N2          2.7251    1.3214    0.8360 N.3        1 <1>        0.000
      5 C3          2.5574    2.2845    1.8777 C.3        1 <1>        0.000
      6 C4          1.0993    2.2870    2.3876 C.3        1 <1>        0.000
      7 H          -0.6849    2.5090    1.6133 H.spc      1 <1>        0.000
      8 H           0.5477    2.6876   -0.7222 H.spc      1 <1>        0.000
      9 H          -0.5122    1.3558   -0.0460 H.spc      1 <1>        0.000
     10 H           1.9699    0.9476   -1.0115 H.spc      1 <1>        0.000
     11 H           1.2510   -0.0021    0.3902 H.spc      1 <1>        0.000
     12 H           3.3856    1.7548    0.1908 H.spc      1 <1>        0.000
     13 H           3.2199    2.0288    2.7046 H.spc      1 <1>        0.000
     14 H           2.7958    3.2733    1.4858 H.spc      1 <1>        0.000
     15 H           0.9859    2.9811    3.2203 H.spc      1 <1>        0.000
     16 H           0.8185    1.2980    2.7497 H.spc      1 <1>        0.000
@<TRIPOS>BOND
     1    5    6 1  
     2    1    2 1  
     3    1    6 1  
     4    2    3 1  
     5    3    4 1  
     6    4    5 1  
     7    1    7 1  
     8    2    8 1  
     9    2    9 1  
    10    3   10 1  
    11    3   11 1  
    12    4   12 1  
    13    5   13 1  
    14    5   14 1  
    15    6   15 1  
    16    6   16 1  
# Name:          frag4-377-78/48856 -- energy: -0.666179
# Creation time: Sat Jun  5 12:53:34 2010


@<TRIPOS>MOLECULE
frag4-377-78/48856 -- energy: -0.666179
   16    16     1     1     1
SMALL
USER_CHARGES


@<TRIPOS>ATOM
      1 N1          2.7130    1.3060    0.8134 N.3        1 <1>        0.000
      2 C1          1.7394    1.4592   -0.2208 C.3        1 <1>        0.000
      3 C2          0.3418    1.5077    0.3663 C.3        1 <1>        0.000
      4 N2          0.1667    2.5920    1.2783 N.3        1 <1>        0.000
      5 C3          1.3258    2.8712    2.0945 C.3        1 <1>        0.000
      6 C4          2.3720    1.7397    2.1528 C.3        1 <1>        0.000
      7 H           3.4956    1.8969    0.5327 H.spc      1 <1>        0.000
      8 H           1.8083    0.6095   -0.9000 H.spc      1 <1>        0.000
      9 H           1.9321    2.3910   -0.7526 H.spc      1 <1>        0.000
     10 H           0.1752    0.5795    0.9129 H.spc      1 <1>        0.000
     11 H          -0.3624    1.6429   -0.4547 H.spc      1 <1>        0.000
     12 H          -0.5918    2.3349    1.9100 H.spc      1 <1>        0.000
     13 H           1.8215    3.7347    1.6510 H.spc      1 <1>        0.000
     14 H           0.9650    3.0181    3.1125 H.spc      1 <1>        0.000
     15 H           1.9569    0.8974    2.7063 H.spc      1 <1>        0.000
     16 H           3.2700    2.1086    2.6484 H.spc      1 <1>        0.000
@<TRIPOS>BOND
     1    5    6 1  
     2    1    2 1  
     3    1    6 1  
     4    2    3 1  
     5    3    4 1  
     6    4    5 1  
     7    1    7 1  
     8    2    8 1  
     9    2    9 1  
    10    3   10 1  
    11    3   11 1  
    12    4   12 1  
    13    5   13 1  
    14    5   14 1  
    15    6   15 1  
    16    6   16 1  
# Name:          frag4-377-78/48856 -- energy: -0.779755
# Creation time: Sat Jun  5 12:53:34 2010


@<TRIPOS>MOLECULE
frag4-377-78/48856 -- energy: -0.779755
   16    16     1     1     1
SMALL
USER_CHARGES


@<TRIPOS>ATOM
      1 N1          0.2708    2.6742    1.2976 N.3        1 <1>        0.000
      2 C1          0.3932    1.9521    0.0673 C.3        1 <1>        0.000
      3 C2          1.6130    0.9565    0.0184 C.3        1 <1>        0.000
      4 N2          2.7251    1.3214    0.8360 N.3        1 <1>        0.000
      5 C3          2.5574    2.2845    1.8777 C.3        1 <1>        0.000
      6 C4          1.0993    2.2870    2.3876 C.3        1 <1>        0.000
      7 H          -0.6849    2.5090    1.6133 H.spc      1 <1>        0.000
      8 H           0.5477    2.6876   -0.7222 H.spc      1 <1>        0.000
      9 H          -0.5122    1.3558   -0.0460 H.spc      1 <1>        0.000
     10 H           1.9699    0.9476   -1.0115 H.spc      1 <1>        0.000
     11 H           1.2510   -0.0021    0.3902 H.spc      1 <1>        0.000
     12 H           3.3856    1.7548    0.1908 H.spc      1 <1>        0.000
     13 H           3.2199    2.0288    2.7046 H.spc      1 <1>        0.000
     14 H           2.7958    3.2733    1.4858 H.spc      1 <1>        0.000
     15 H           0.9859    2.9811    3.2203 H.spc      1 <1>        0.000
     16 H           0.8185    1.2980    2.7497 H.spc      1 <1>        0.000
@<TRIPOS>BOND
     1    5    6 1  
     2    1    2 1  
     3    1    6 1  
     4    2    3 1  
     5    3    4 1  
     6    4    5 1  
     7    1    7 1  
     8    2    8 1  
     9    2    9 1  
    10    3   10 1  
    11    3   11 1  
    12    4   12 1  
    13    5   13 1  
    14    5   14 1  
    15    6   15 1  
    16    6   16 1  
