#      Rotatable Fragment
#      Build by yxyuan
#
# Name:          frag5-667-24/41815
# Creation time: Sat Jun  5 12:53:03 2010


@<TRIPOS>MOLECULE
frag5-667-24/41815
   18    19     1     1     1
SMALL
USER_CHARGES


@<TRIPOS>ATOM
      1 C2          2.5424   -0.5597   -0.2046 C.2        1 <1>        0.000
      2 C3          2.4898    0.7800   -0.1116 C.2        1 <1>        0.000
      3 C4          1.2140    1.4807    0.0475 C.2        1 <1>        0.000
      4 C5         -0.0593    0.7068    0.0634 C.ar       1 <1>        0.000
      5 C6         -0.0044   -0.7101   -0.0471 C.ar       1 <1>        0.000
      6 C7         -1.2075   -1.4561   -0.0321 C.ar       1 <1>        0.000
      7 C8         -2.4536   -0.8062    0.0867 C.ar       1 <1>        0.000
      8 C9         -2.5082    0.5920    0.1946 C.ar       1 <1>        0.000
      9 C10        -1.3167    1.3460    0.1839 C.ar       1 <1>        0.000
     10 C11         1.3244   -1.3715   -0.1763 C.2        1 <1>        0.000
     11 O1          1.3602   -2.5924   -0.2601 O.2        1 <1>        0.000
     12 O2          1.1559    2.6972    0.1721 O.2        1 <1>        0.000
     13 H           3.5103   -1.0512   -0.3030 H.spc      1 <1>        0.000
     14 H           3.4143    1.3558   -0.1554 H.spc      1 <1>        0.000
     15 H          -1.1705   -2.5425   -0.1131 H.spc      1 <1>        0.000
     16 H          -3.3741   -1.3898    0.0947 H.spc      1 <1>        0.000
     17 H          -3.4710    1.0947    0.2866 H.spc      1 <1>        0.000
     18 H          -1.3643    2.4316    0.2692 H.spc      1 <1>        0.000
@<TRIPOS>BOND
     1    7    8 ar 
     2    5   10 1  
     3   10   11 2  
     4    5    6 ar 
     5    6    7 ar 
     6    4    9 ar 
     7    8    9 ar 
     8    1    2 2  
     9    1   10 1  
    10    2    3 1  
    11    3    4 1  
    12    3   12 2  
    13    4    5 ar 
    14    1   13 1  
    15    2   14 1  
    16    6   15 1  
    17    7   16 1  
    18    8   17 1  
    19    9   18 1  
# Name:          frag5-667-24/41815 -- energy: -0.876018
# Creation time: Sat Jun  5 12:53:03 2010


@<TRIPOS>MOLECULE
frag5-667-24/41815 -- energy: -0.876018
   18    19     1     1     1
SMALL
USER_CHARGES


@<TRIPOS>ATOM
      1 C2          2.5424   -0.5597   -0.2046 C.2        1 <1>        0.000
      2 C3          2.4898    0.7800   -0.1116 C.2        1 <1>        0.000
      3 C4          1.2140    1.4807    0.0475 C.2        1 <1>        0.000
      4 C5         -0.0593    0.7068    0.0634 C.ar       1 <1>        0.000
      5 C6         -0.0044   -0.7101   -0.0471 C.ar       1 <1>        0.000
      6 C7         -1.2075   -1.4561   -0.0321 C.ar       1 <1>        0.000
      7 C8         -2.4536   -0.8062    0.0867 C.ar       1 <1>        0.000
      8 C9         -2.5082    0.5920    0.1946 C.ar       1 <1>        0.000
      9 C10        -1.3167    1.3460    0.1839 C.ar       1 <1>        0.000
     10 C11         1.3244   -1.3715   -0.1763 C.2        1 <1>        0.000
     11 O1          1.3602   -2.5924   -0.2601 O.2        1 <1>        0.000
     12 O2          1.1559    2.6972    0.1721 O.2        1 <1>        0.000
     13 H           3.5103   -1.0512   -0.3030 H.spc      1 <1>        0.000
     14 H           3.4143    1.3558   -0.1554 H.spc      1 <1>        0.000
     15 H          -1.1705   -2.5425   -0.1131 H.spc      1 <1>        0.000
     16 H          -3.3741   -1.3898    0.0947 H.spc      1 <1>        0.000
     17 H          -3.4710    1.0947    0.2866 H.spc      1 <1>        0.000
     18 H          -1.3643    2.4316    0.2692 H.spc      1 <1>        0.000
@<TRIPOS>BOND
     1    7    8 ar 
     2    5   10 1  
     3   10   11 2  
     4    5    6 ar 
     5    6    7 ar 
     6    4    9 ar 
     7    8    9 ar 
     8    1    2 2  
     9    1   10 1  
    10    2    3 1  
    11    3    4 1  
    12    3   12 2  
    13    4    5 ar 
    14    1   13 1  
    15    2   14 1  
    16    6   15 1  
    17    7   16 1  
    18    8   17 1  
    19    9   18 1  
