#      Rotatable Fragment
#      Build by yxyuan
#
# Name:          frag5-652-73/138278
# Creation time: Sat Jun  5 12:53:50 2010


@<TRIPOS>MOLECULE
frag5-652-73/138278
   24    25     1     1     1
SMALL
USER_CHARGES


@<TRIPOS>ATOM
      1 C1         -1.3995   -0.6344    0.0213 C.ar       1 <1>        0.000
      2 C2         -1.3285    0.7616    0.0097 C.ar       1 <1>        0.000
      3 C3         -0.1647   -1.4210   -0.1080 C.3        1 <1>        0.000
      4 C4         -2.6663   -1.1568    0.1937 C.ar       1 <1>        0.000
      5 C5         -2.5649    1.3896    0.0115 C.ar       1 <1>        0.000
      6 C6          0.0043    1.4178   -0.0838 C.3        1 <1>        0.000
      7 N1          0.7647   -0.8019   -1.0395 N.4        1 <1>        0.000
      8 C7         -3.9009   -0.5293    0.1198 C.ar       1 <1>        0.000
      9 C8         -3.8472    0.8498    0.0122 C.ar       1 <1>        0.000
     10 C9          0.8734    0.6604   -1.0581 C.3        1 <1>        0.000
     11 O1         -5.0568   -1.2005    0.1550 O.3        1 <1>        0.000
     12 O2         -4.9697    1.5814   -0.0704 O.3        1 <1>        0.000
     13 H          -0.4231   -2.4110   -0.4839 H.spc      1 <1>        0.000
     14 H           0.3128   -1.4784    0.8702 H.spc      1 <1>        0.000
     15 H          -2.7010   -2.2220    0.4221 H.spc      1 <1>        0.000
     16 H          -2.5259    2.4789    0.0125 H.spc      1 <1>        0.000
     17 H           0.4772    1.4195    0.8983 H.spc      1 <1>        0.000
     18 H          -0.1202    2.4436   -0.4308 H.spc      1 <1>        0.000
     19 H           1.6863   -1.1327   -0.7538 H.spc      1 <1>        0.000
     20 H           0.4194   -1.0540   -1.9656 H.spc      1 <1>        0.000
     21 H           0.5524    0.9725   -2.0519 H.spc      1 <1>        0.000
     22 H           1.9029    0.8883   -0.7817 H.spc      1 <1>        0.000
     23 H          -5.7873   -0.5810    0.0907 H.spc      1 <1>        0.000
     24 H          -5.7323    0.9985   -0.0519 H.spc      1 <1>        0.000
@<TRIPOS>BOND
     1    9   12 1  
     2    1    4 ar 
     3    2    6 1  
     4    1    3 1  
     5    2    5 ar 
     6    7   10 1  
     7    5    9 ar 
     8    4    8 ar 
     9    8    9 ar 
    10    8   11 1  
    11    3    7 1  
    12    6   10 1  
    13    1    2 ar 
    14    3   13 1  
    15    3   14 1  
    16    4   15 1  
    17    5   16 1  
    18    6   17 1  
    19    6   18 1  
    20    7   19 1  
    21    7   20 1  
    22   10   21 1  
    23   10   22 1  
    24   11   23 1  
    25   12   24 1  
