#      Rotatable Fragment
#      Build by yxyuan
#
# Name:          frag5-684-60/138278
# Creation time: Sat Jun  5 12:51:56 2010


@<TRIPOS>MOLECULE
frag5-684-60/138278
   18    18     1     1     1
SMALL
USER_CHARGES


@<TRIPOS>ATOM
      1 C2         -1.6927   -0.6029    0.4648 C.ar       1 <1>        0.000
      2 C5         -0.6114   -1.0678   -0.2867 C.ar       1 <1>        0.000
      3 C6         -3.0629   -0.3406    0.0849 C.ar       1 <1>        0.000
      4 C11        -0.6150    0.0266   -1.1104 C.ar       1 <1>        0.000
      5 O1          0.4036   -1.8692    0.0386 O.3        1 <1>        0.000
      6 C12        -2.9905    0.9541   -0.4217 C.ar       1 <1>        0.000
      7 C15        -1.7580    0.9852   -1.1912 C.ar       1 <1>        0.000
      8 S1         -4.1202    2.2710   -0.3890 S.o2       1 <1>        0.000
      9 N2         -5.1005    1.9812    0.8686 N.am       1 <1>        0.000
     10 O6         -3.4033    3.5009   -0.1113 O.2        1 <1>        0.000
     11 O7         -4.9377    2.1950   -1.5802 O.2        1 <1>        0.000
     12 H          -1.4660   -0.4047    1.5124 H.spc      1 <1>        0.000
     13 H          -3.9325   -0.9918    0.1729 H.spc      1 <1>        0.000
     14 H           0.2583    0.2068   -1.7372 H.spc      1 <1>        0.000
     15 H           0.9751   -1.9855   -0.7239 H.spc      1 <1>        0.000
     16 H          -1.6561    1.7998   -1.9082 H.spc      1 <1>        0.000
     17 H          -6.0907    1.7941    0.7109 H.spc      1 <1>        0.000
     18 H          -4.7273    1.9859    1.8179 H.spc      1 <1>        0.000
@<TRIPOS>BOND
     1    6    7 ar 
     2    6    8 1  
     3    8   11 2  
     4    8   10 2  
     5    8    9 1  
     6    1    2 ar 
     7    1    3 ar 
     8    2    4 ar 
     9    2    5 1  
    10    3    6 ar 
    11    4    7 ar 
    12    1   12 1  
    13    3   13 1  
    14    4   14 1  
    15    5   15 1  
    16    7   16 1  
    17    9   17 1  
    18    9   18 1  
# Name:          frag5-684-60/138278
# Creation time: Sat Jun  5 12:51:56 2010


@<TRIPOS>MOLECULE
frag5-684-60/138278
   18    18     1     1     1
SMALL
USER_CHARGES


@<TRIPOS>ATOM
      1 C2         -0.7806    0.2718   -0.6228 C.ar       1 <1>        0.000
      2 C5         -0.6293   -1.0860   -0.2561 C.ar       1 <1>        0.000
      3 C6         -1.5278    1.3412    0.0538 C.ar       1 <1>        0.000
      4 C11        -1.9449   -1.3578   -0.1076 C.ar       1 <1>        0.000
      5 O1          0.4056   -1.8804   -0.4805 O.3        1 <1>        0.000
      6 C12        -2.8299    1.1354   -0.3001 C.ar       1 <1>        0.000
      7 C15        -2.9855   -0.2774    0.0365 C.ar       1 <1>        0.000
      8 S1         -4.1178    2.2679   -0.5563 S.o2       1 <1>        0.000
      9 N2         -4.7583    2.3406    0.9289 N.am       1 <1>        0.000
     10 O6         -3.5874    3.5741   -0.8975 O.2        1 <1>        0.000
     11 O7         -5.1330    1.7041   -1.4318 O.2        1 <1>        0.000
     12 H          -0.2695    0.5674   -1.5390 H.spc      1 <1>        0.000
     13 H          -1.1297    2.1261    0.6969 H.spc      1 <1>        0.000
     14 H          -2.2658   -2.3994   -0.0914 H.spc      1 <1>        0.000
     15 H           0.2247   -2.7502   -0.1167 H.spc      1 <1>        0.000
     16 H          -3.9543   -0.5816    0.4328 H.spc      1 <1>        0.000
     17 H          -5.7124    2.0174    1.0892 H.spc      1 <1>        0.000
     18 H          -4.2077    2.7096    1.7042 H.spc      1 <1>        0.000
@<TRIPOS>BOND
     1    6    7 ar 
     2    6    8 1  
     3    8   11 2  
     4    8   10 2  
     5    8    9 1  
     6    1    2 ar 
     7    1    3 ar 
     8    2    4 ar 
     9    2    5 1  
    10    3    6 ar 
    11    4    7 ar 
    12    1   12 1  
    13    3   13 1  
    14    4   14 1  
    15    5   15 1  
    16    7   16 1  
    17    9   17 1  
    18    9   18 1  
# Name:          frag5-684-60/138278 -- energy: 1.607937
# Creation time: Sat Jun  5 12:51:56 2010


@<TRIPOS>MOLECULE
frag5-684-60/138278 -- energy: 1.607937
   18    18     1     1     1
SMALL
USER_CHARGES


@<TRIPOS>ATOM
      1 C2         -0.7806    0.2718   -0.6228 C.ar       1 <1>        0.000
      2 C5         -0.6293   -1.0860   -0.2561 C.ar       1 <1>        0.000
      3 C6         -1.5278    1.3412    0.0538 C.ar       1 <1>        0.000
      4 C11        -1.9449   -1.3578   -0.1076 C.ar       1 <1>        0.000
      5 O1          0.4056   -1.8804   -0.4805 O.3        1 <1>        0.000
      6 C12        -2.8299    1.1354   -0.3001 C.ar       1 <1>        0.000
      7 C15        -2.9855   -0.2774    0.0365 C.ar       1 <1>        0.000
      8 S1         -4.1178    2.2679   -0.5563 S.o2       1 <1>        0.000
      9 N2         -4.7583    2.3406    0.9289 N.am       1 <1>        0.000
     10 O6         -3.5874    3.5741   -0.8975 O.2        1 <1>        0.000
     11 O7         -5.1330    1.7041   -1.4318 O.2        1 <1>        0.000
     12 H          -0.2695    0.5674   -1.5390 H.spc      1 <1>        0.000
     13 H          -1.1297    2.1261    0.6969 H.spc      1 <1>        0.000
     14 H          -2.2658   -2.3994   -0.0914 H.spc      1 <1>        0.000
     15 H           0.2247   -2.7502   -0.1167 H.spc      1 <1>        0.000
     16 H          -3.9543   -0.5816    0.4328 H.spc      1 <1>        0.000
     17 H          -5.7124    2.0174    1.0892 H.spc      1 <1>        0.000
     18 H          -4.2077    2.7096    1.7042 H.spc      1 <1>        0.000
@<TRIPOS>BOND
     1    6    7 ar 
     2    6    8 1  
     3    8   11 2  
     4    8   10 2  
     5    8    9 1  
     6    1    2 ar 
     7    1    3 ar 
     8    2    4 ar 
     9    2    5 1  
    10    3    6 ar 
    11    4    7 ar 
    12    1   12 1  
    13    3   13 1  
    14    4   14 1  
    15    5   15 1  
    16    7   16 1  
    17    9   17 1  
    18    9   18 1  
