#      Rotatable Fragment
#      Build by yxyuan
#
# Name:          frag4-449-115/150395
# Creation time: Sat Jun  5 12:53:36 2010


@<TRIPOS>MOLECULE
frag4-449-115/150395
   16    16     1     1     1
SMALL
USER_CHARGES


@<TRIPOS>ATOM
      1 C1         -0.4872    0.1523    1.3105 C.3        1 <1>        0.000
      2 N1         -1.5935    0.1311    0.4388 N.3        1 <1>        0.000
      3 C2          0.1034   -1.2223    1.5335 C.3        1 <1>        0.000
      4 C3         -2.5385   -0.9004    0.3834 C.3        1 <1>        0.000
      5 C4         -0.8697   -2.3779    1.3130 C.3        1 <1>        0.000
      6 N2         -1.8514   -2.1164    0.3116 N.3        1 <1>        0.000
      7 H          -0.8265    0.5322    2.2742 H.spc      1 <1>        0.000
      8 H           0.2826    0.7794    0.8607 H.spc      1 <1>        0.000
      9 H          -1.1515    0.0760   -0.4788 H.spc      1 <1>        0.000
     10 H           0.4183   -1.2671    2.5761 H.spc      1 <1>        0.000
     11 H           0.9088   -1.3430    0.8091 H.spc      1 <1>        0.000
     12 H          -3.1773   -0.7778   -0.4913 H.spc      1 <1>        0.000
     13 H          -3.1709   -0.8783    1.2709 H.spc      1 <1>        0.000
     14 H          -1.3976   -2.5436    2.2521 H.spc      1 <1>        0.000
     15 H          -0.2864   -3.2370    0.9816 H.spc      1 <1>        0.000
     16 H          -1.3427   -2.0927   -0.5722 H.spc      1 <1>        0.000
@<TRIPOS>BOND
     1    1    2 1  
     2    1    3 1  
     3    2    4 1  
     4    3    5 1  
     5    4    6 1  
     6    5    6 1  
     7    1    7 1  
     8    1    8 1  
     9    2    9 1  
    10    3   10 1  
    11    3   11 1  
    12    4   12 1  
    13    4   13 1  
    14    5   14 1  
    15    5   15 1  
    16    6   16 1  
# Name:          frag4-449-115/150395 -- energy: -1.022904
# Creation time: Sat Jun  5 12:53:36 2010


@<TRIPOS>MOLECULE
frag4-449-115/150395 -- energy: -1.022904
   16    16     1     1     1
SMALL
USER_CHARGES


@<TRIPOS>ATOM
      1 C1         -0.4872    0.1523    1.3105 C.3        1 <1>        0.000
      2 N1         -1.5935    0.1311    0.4388 N.3        1 <1>        0.000
      3 C2          0.1034   -1.2223    1.5335 C.3        1 <1>        0.000
      4 C3         -2.5385   -0.9004    0.3834 C.3        1 <1>        0.000
      5 C4         -0.8697   -2.3779    1.3130 C.3        1 <1>        0.000
      6 N2         -1.8514   -2.1164    0.3116 N.3        1 <1>        0.000
      7 H          -0.8265    0.5322    2.2742 H.spc      1 <1>        0.000
      8 H           0.2826    0.7794    0.8607 H.spc      1 <1>        0.000
      9 H          -1.1515    0.0760   -0.4788 H.spc      1 <1>        0.000
     10 H           0.4183   -1.2671    2.5761 H.spc      1 <1>        0.000
     11 H           0.9088   -1.3430    0.8091 H.spc      1 <1>        0.000
     12 H          -3.1773   -0.7778   -0.4913 H.spc      1 <1>        0.000
     13 H          -3.1709   -0.8783    1.2709 H.spc      1 <1>        0.000
     14 H          -1.3976   -2.5436    2.2521 H.spc      1 <1>        0.000
     15 H          -0.2864   -3.2370    0.9816 H.spc      1 <1>        0.000
     16 H          -1.3427   -2.0927   -0.5722 H.spc      1 <1>        0.000
@<TRIPOS>BOND
     1    1    2 1  
     2    1    3 1  
     3    2    4 1  
     4    3    5 1  
     5    4    6 1  
     6    5    6 1  
     7    1    7 1  
     8    1    8 1  
     9    2    9 1  
    10    3   10 1  
    11    3   11 1  
    12    4   12 1  
    13    4   13 1  
    14    5   14 1  
    15    5   15 1  
    16    6   16 1  
