#      Rotatable Fragment
#      Build by yxyuan
#
# Name:          frag3-132-40/96164
# Creation time: Sat Jun  5 12:53:00 2010


@<TRIPOS>MOLECULE
frag3-132-40/96164
    4     3     1     1     1
SMALL
USER_CHARGES


@<TRIPOS>ATOM
      1 S1          0.8654    0.6140   -0.0062 S.3        1 <1>        0.000
      2 N2         -0.8329    0.5900    0.0087 N.2        1 <1>        0.000
      3 O4         -1.3056    0.4188   -1.1152 O.2        1 <1>        0.000
      4 H           1.3154    0.8014    1.2312 H.spc      1 <1>        0.000
@<TRIPOS>BOND
     1    1    2 1  
     2    2    3 2  
     3    1    4 1  
# Name:          frag3-132-40/96164 -- energy: -0.012913
# Creation time: Sat Jun  5 12:53:00 2010


@<TRIPOS>MOLECULE
frag3-132-40/96164 -- energy: -0.012913
    4     3     1     1     1
SMALL
USER_CHARGES


@<TRIPOS>ATOM
      1 S1          0.8654    0.6140   -0.0062 S.3        1 <1>        0.000
      2 N2         -0.8329    0.5900    0.0087 N.2        1 <1>        0.000
      3 O4         -1.3056    0.4188   -1.1152 O.2        1 <1>        0.000
      4 H           1.3154    0.8014    1.2312 H.spc      1 <1>        0.000
@<TRIPOS>BOND
     1    1    2 1  
     2    2    3 2  
     3    1    4 1  
