#      Rotatable Fragment
#      Build by yxyuan
#
# Name:          frag4-469-34/48856
# Creation time: Sat Jun  5 12:52:49 2010


@<TRIPOS>MOLECULE
frag4-469-34/48856
    9     9     1     1     1
SMALL
USER_CHARGES


@<TRIPOS>ATOM
      1 N1         -2.3527   -0.4411    1.3925 N.4        1 <1>        0.000
      2 C1         -3.7877   -0.7111    1.1360 C.3        1 <1>        0.000
      3 C2         -2.9808   -1.5956    2.0783 C.3        1 <1>        0.000
      4 H          -1.7732    0.3587    1.6471 H.spc      1 <1>        0.000
      5 H          -1.5128   -0.2608    0.8426 H.spc      1 <1>        0.000
      6 H          -4.4704   -0.8116    0.2922 H.spc      1 <1>        0.000
      7 H          -4.7373   -0.1764    1.1171 H.spc      1 <1>        0.000
      8 H          -3.0566   -2.0188    3.0799 H.spc      1 <1>        0.000
      9 H          -2.7896   -2.6540    2.2550 H.spc      1 <1>        0.000
@<TRIPOS>BOND
     1    1    2 1  
     2    1    3 1  
     3    2    3 1  
     4    1    4 1  
     5    1    5 1  
     6    2    6 1  
     7    2    7 1  
     8    3    8 1  
     9    3    9 1  
# Name:          frag4-469-34/48856 -- energy: -0.085056
# Creation time: Sat Jun  5 12:52:49 2010


@<TRIPOS>MOLECULE
frag4-469-34/48856 -- energy: -0.085056
    9     9     1     1     1
SMALL
USER_CHARGES


@<TRIPOS>ATOM
      1 N1         -2.3527   -0.4411    1.3925 N.4        1 <1>        0.000
      2 C1         -3.7877   -0.7111    1.1360 C.3        1 <1>        0.000
      3 C2         -2.9808   -1.5956    2.0783 C.3        1 <1>        0.000
      4 H          -1.7732    0.3587    1.6471 H.spc      1 <1>        0.000
      5 H          -1.5128   -0.2608    0.8426 H.spc      1 <1>        0.000
      6 H          -4.4704   -0.8116    0.2922 H.spc      1 <1>        0.000
      7 H          -4.7373   -0.1764    1.1171 H.spc      1 <1>        0.000
      8 H          -3.0566   -2.0188    3.0799 H.spc      1 <1>        0.000
      9 H          -2.7896   -2.6540    2.2550 H.spc      1 <1>        0.000
@<TRIPOS>BOND
     1    1    2 1  
     2    1    3 1  
     3    2    3 1  
     4    1    4 1  
     5    1    5 1  
     6    2    6 1  
     7    2    7 1  
     8    3    8 1  
     9    3    9 1  
