#      Rotatable Fragment
#      Build by yxyuan
#
# Name:          frag3-258-3/31924
# Creation time: Sat Jun  5 12:52:40 2010


@<TRIPOS>MOLECULE
frag3-258-3/31924
   14    13     1     1     1
SMALL
USER_CHARGES


@<TRIPOS>ATOM
      1 N1         -5.1668    3.0170   -1.2504 N.am       1 <1>        0.000
      2 C1         -6.4243    3.4803   -1.4030 C.2        1 <1>        0.000
      3 O1         -6.9823    3.6613   -2.4698 O.2        1 <1>        0.000
      4 C5         -4.6230    2.6445   -0.0713 C.2        1 <1>        0.000
      5 C6         -3.4041    2.1236    0.1042 C.2        1 <1>        0.000
      6 C7         -2.3757    1.8360   -0.9043 C.2        1 <1>        0.000
      7 C8         -1.2163    1.2369   -0.6174 C.2        1 <1>        0.000
      8 H          -4.5849    2.9426   -2.0849 H.spc      1 <1>        0.000
      9 H          -6.9863    3.7113   -0.4981 H.spc      1 <1>        0.000
     10 H          -5.2350    2.7813    0.8203 H.spc      1 <1>        0.000
     11 H          -3.1382    1.8799    1.1328 H.spc      1 <1>        0.000
     12 H          -2.5677    2.1255   -1.9375 H.spc      1 <1>        0.000
     13 H          -0.9970    0.9363    0.4071 H.spc      1 <1>        0.000
     14 H          -0.4898    1.0488   -1.4079 H.spc      1 <1>        0.000
@<TRIPOS>BOND
     1    1    2 am 
     2    1    4 1  
     3    2    3 2  
     4    4    5 2  
     5    5    6 1  
     6    6    7 2  
     7    1    8 1  
     8    2    9 1  
     9    4   10 1  
    10    5   11 1  
    11    6   12 1  
    12    7   13 1  
    13    7   14 1  
# Name:          frag3-258-3/31924
# Creation time: Sat Jun  5 12:52:40 2010


@<TRIPOS>MOLECULE
frag3-258-3/31924
   14    13     1     1     1
SMALL
USER_CHARGES


@<TRIPOS>ATOM
      1 N1         -4.9609    3.1636   -1.6248 N.am       1 <1>        0.000
      2 C1         -6.1835    3.5527   -2.0455 C.2        1 <1>        0.000
      3 O1         -7.2127    3.5546   -1.3790 O.2        1 <1>        0.000
      4 C5         -4.6820    2.6107   -0.4203 C.2        1 <1>        0.000
      5 C6         -3.5620    2.0020   -0.0588 C.2        1 <1>        0.000
      6 C7         -2.3723    1.7610   -0.8003 C.2        1 <1>        0.000
      7 C8         -1.2192    1.3549   -0.2833 C.2        1 <1>        0.000
      8 H          -4.1813    3.2974   -2.2687 H.spc      1 <1>        0.000
      9 H          -6.2632    3.8982   -3.0762 H.spc      1 <1>        0.000
     10 H          -5.4653    2.6734    0.3350 H.spc      1 <1>        0.000
     11 H          -3.5505    1.6282    0.9650 H.spc      1 <1>        0.000
     12 H          -2.4105    1.9225   -1.8776 H.spc      1 <1>        0.000
     13 H          -1.1342    1.1805    0.7893 H.spc      1 <1>        0.000
     14 H          -0.3573    1.1958   -0.9313 H.spc      1 <1>        0.000
@<TRIPOS>BOND
     1    1    2 am 
     2    1    4 1  
     3    2    3 2  
     4    4    5 2  
     5    5    6 1  
     6    6    7 2  
     7    1    8 1  
     8    2    9 1  
     9    4   10 1  
    10    5   11 1  
    11    6   12 1  
    12    7   13 1  
    13    7   14 1  
# Name:          frag3-258-3/31924
# Creation time: Sat Jun  5 12:52:40 2010


@<TRIPOS>MOLECULE
frag3-258-3/31924
   14    13     1     1     1
SMALL
USER_CHARGES


@<TRIPOS>ATOM
      1 N1         -4.9866    2.9350   -1.1663 N.am       1 <1>        0.000
      2 C1         -6.1995    3.4256   -1.4885 C.2        1 <1>        0.000
      3 O1         -6.6336    3.5531   -2.6185 O.2        1 <1>        0.000
      4 C5         -4.5434    2.7327    0.0929 C.2        1 <1>        0.000
      5 C6         -3.4535    2.0401    0.4462 C.2        1 <1>        0.000
      6 C7         -2.4887    1.3569   -0.4217 C.2        1 <1>        0.000
      7 C8         -1.8872    1.9563   -1.4560 C.2        1 <1>        0.000
      8 H          -4.3554    2.6985   -1.9318 H.spc      1 <1>        0.000
      9 H          -6.8468    3.7345   -0.6677 H.spc      1 <1>        0.000
     10 H          -5.1288    3.1755    0.8987 H.spc      1 <1>        0.000
     11 H          -3.2581    1.9757    1.5166 H.spc      1 <1>        0.000
     12 H          -2.2507    0.3135   -0.2149 H.spc      1 <1>        0.000
     13 H          -2.1072    2.9991   -1.6848 H.spc      1 <1>        0.000
     14 H          -1.1773    1.4017   -2.0697 H.spc      1 <1>        0.000
@<TRIPOS>BOND
     1    1    2 am 
     2    1    4 1  
     3    2    3 2  
     4    4    5 2  
     5    5    6 1  
     6    6    7 2  
     7    1    8 1  
     8    2    9 1  
     9    4   10 1  
    10    5   11 1  
    11    6   12 1  
    12    7   13 1  
    13    7   14 1  
# Name:          frag3-258-3/31924
# Creation time: Sat Jun  5 12:52:40 2010


@<TRIPOS>MOLECULE
frag3-258-3/31924
   14    13     1     1     1
SMALL
USER_CHARGES


@<TRIPOS>ATOM
      1 N1         -4.8526    3.4599   -1.2099 N.am       1 <1>        0.000
      2 C1         -5.9489    3.6713   -1.9780 C.2        1 <1>        0.000
      3 O1         -7.0131    3.0783   -1.8982 O.2        1 <1>        0.000
      4 C5         -4.7450    2.5201   -0.2394 C.2        1 <1>        0.000
      5 C6         -3.6336    1.9196    0.1772 C.2        1 <1>        0.000
      6 C7         -2.2982    2.0650   -0.2821 C.2        1 <1>        0.000
      7 C8         -1.7011    1.2854   -1.1816 C.2        1 <1>        0.000
      8 H          -4.0423    4.0568   -1.3757 H.spc      1 <1>        0.000
      9 H          -5.8732    4.4459   -2.7411 H.spc      1 <1>        0.000
     10 H          -5.6707    2.2238    0.2539 H.spc      1 <1>        0.000
     11 H          -3.7683    1.2097    0.9933 H.spc      1 <1>        0.000
     12 H          -1.7125    2.8834    0.1366 H.spc      1 <1>        0.000
     13 H          -2.2455    0.4538   -1.6291 H.spc      1 <1>        0.000
     14 H          -0.6680    1.4789   -1.4704 H.spc      1 <1>        0.000
@<TRIPOS>BOND
     1    1    2 am 
     2    1    4 1  
     3    2    3 2  
     4    4    5 2  
     5    5    6 1  
     6    6    7 2  
     7    1    8 1  
     8    2    9 1  
     9    4   10 1  
    10    5   11 1  
    11    6   12 1  
    12    7   13 1  
    13    7   14 1  
# Name:          frag3-258-3/31924
# Creation time: Sat Jun  5 12:52:40 2010


@<TRIPOS>MOLECULE
frag3-258-3/31924
   14    13     1     1     1
SMALL
USER_CHARGES


@<TRIPOS>ATOM
      1 N1         -5.5254    2.8283   -0.5524 N.am       1 <1>        0.000
      2 C1         -5.3623    3.2168   -1.8323 C.2        1 <1>        0.000
      3 O1         -6.2162    3.3253   -2.7005 O.2        1 <1>        0.000
      4 C5         -4.6874    2.5534    0.4643 C.2        1 <1>        0.000
      5 C6         -3.3695    2.3034    0.4286 C.2        1 <1>        0.000
      6 C7         -2.4318    2.2368   -0.6504 C.2        1 <1>        0.000
      7 C8         -2.6000    1.5357   -1.7693 C.2        1 <1>        0.000
      8 H          -6.5064    2.7174   -0.2959 H.spc      1 <1>        0.000
      9 H          -4.3436    3.4649   -2.1303 H.spc      1 <1>        0.000
     10 H          -5.1426    2.5307    1.4544 H.spc      1 <1>        0.000
     11 H          -2.9294    2.1152    1.4079 H.spc      1 <1>        0.000
     12 H          -1.5072    2.8048   -0.5479 H.spc      1 <1>        0.000
     13 H          -3.5091    0.9525   -1.9155 H.spc      1 <1>        0.000
     14 H          -1.8286    1.5448   -2.5393 H.spc      1 <1>        0.000
@<TRIPOS>BOND
     1    1    2 am 
     2    1    4 1  
     3    2    3 2  
     4    4    5 2  
     5    5    6 1  
     6    6    7 2  
     7    1    8 1  
     8    2    9 1  
     9    4   10 1  
    10    5   11 1  
    11    6   12 1  
    12    7   13 1  
    13    7   14 1  
# Name:          frag3-258-3/31924 -- energy: -0.937921
# Creation time: Sat Jun  5 12:52:40 2010


@<TRIPOS>MOLECULE
frag3-258-3/31924 -- energy: -0.937921
   14    13     1     1     1
SMALL
USER_CHARGES


@<TRIPOS>ATOM
      1 N1         -5.1668    3.0170   -1.2504 N.am       1 <1>        0.000
      2 C1         -6.4243    3.4803   -1.4030 C.2        1 <1>        0.000
      3 O1         -6.9823    3.6613   -2.4698 O.2        1 <1>        0.000
      4 C5         -4.6230    2.6445   -0.0713 C.2        1 <1>        0.000
      5 C6         -3.4041    2.1236    0.1042 C.2        1 <1>        0.000
      6 C7         -2.3757    1.8360   -0.9043 C.2        1 <1>        0.000
      7 C8         -1.2163    1.2369   -0.6174 C.2        1 <1>        0.000
      8 H          -4.5849    2.9426   -2.0849 H.spc      1 <1>        0.000
      9 H          -6.9863    3.7113   -0.4981 H.spc      1 <1>        0.000
     10 H          -5.2350    2.7813    0.8203 H.spc      1 <1>        0.000
     11 H          -3.1382    1.8799    1.1328 H.spc      1 <1>        0.000
     12 H          -2.5677    2.1255   -1.9375 H.spc      1 <1>        0.000
     13 H          -0.9970    0.9363    0.4071 H.spc      1 <1>        0.000
     14 H          -0.4898    1.0488   -1.4079 H.spc      1 <1>        0.000
@<TRIPOS>BOND
     1    1    2 am 
     2    1    4 1  
     3    2    3 2  
     4    4    5 2  
     5    5    6 1  
     6    6    7 2  
     7    1    8 1  
     8    2    9 1  
     9    4   10 1  
    10    5   11 1  
    11    6   12 1  
    12    7   13 1  
    13    7   14 1  
# Name:          frag3-258-3/31924 -- energy: -0.965816
# Creation time: Sat Jun  5 12:52:40 2010


@<TRIPOS>MOLECULE
frag3-258-3/31924 -- energy: -0.965816
   14    13     1     1     1
SMALL
USER_CHARGES


@<TRIPOS>ATOM
      1 N1         -4.9609    3.1636   -1.6248 N.am       1 <1>        0.000
      2 C1         -6.1835    3.5527   -2.0455 C.2        1 <1>        0.000
      3 O1         -7.2127    3.5546   -1.3790 O.2        1 <1>        0.000
      4 C5         -4.6820    2.6107   -0.4203 C.2        1 <1>        0.000
      5 C6         -3.5620    2.0020   -0.0588 C.2        1 <1>        0.000
      6 C7         -2.3723    1.7610   -0.8003 C.2        1 <1>        0.000
      7 C8         -1.2192    1.3549   -0.2833 C.2        1 <1>        0.000
      8 H          -4.1813    3.2974   -2.2687 H.spc      1 <1>        0.000
      9 H          -6.2632    3.8982   -3.0762 H.spc      1 <1>        0.000
     10 H          -5.4653    2.6734    0.3350 H.spc      1 <1>        0.000
     11 H          -3.5505    1.6282    0.9650 H.spc      1 <1>        0.000
     12 H          -2.4105    1.9225   -1.8776 H.spc      1 <1>        0.000
     13 H          -1.1342    1.1805    0.7893 H.spc      1 <1>        0.000
     14 H          -0.3573    1.1958   -0.9313 H.spc      1 <1>        0.000
@<TRIPOS>BOND
     1    1    2 am 
     2    1    4 1  
     3    2    3 2  
     4    4    5 2  
     5    5    6 1  
     6    6    7 2  
     7    1    8 1  
     8    2    9 1  
     9    4   10 1  
    10    5   11 1  
    11    6   12 1  
    12    7   13 1  
    13    7   14 1  
# Name:          frag3-258-3/31924 -- energy: -1.126852
# Creation time: Sat Jun  5 12:52:40 2010


@<TRIPOS>MOLECULE
frag3-258-3/31924 -- energy: -1.126852
   14    13     1     1     1
SMALL
USER_CHARGES


@<TRIPOS>ATOM
      1 N1         -4.9866    2.9350   -1.1663 N.am       1 <1>        0.000
      2 C1         -6.1995    3.4256   -1.4885 C.2        1 <1>        0.000
      3 O1         -6.6336    3.5531   -2.6185 O.2        1 <1>        0.000
      4 C5         -4.5434    2.7327    0.0929 C.2        1 <1>        0.000
      5 C6         -3.4535    2.0401    0.4462 C.2        1 <1>        0.000
      6 C7         -2.4887    1.3569   -0.4217 C.2        1 <1>        0.000
      7 C8         -1.8872    1.9563   -1.4560 C.2        1 <1>        0.000
      8 H          -4.3554    2.6985   -1.9318 H.spc      1 <1>        0.000
      9 H          -6.8468    3.7345   -0.6677 H.spc      1 <1>        0.000
     10 H          -5.1288    3.1755    0.8987 H.spc      1 <1>        0.000
     11 H          -3.2581    1.9757    1.5166 H.spc      1 <1>        0.000
     12 H          -2.2507    0.3135   -0.2149 H.spc      1 <1>        0.000
     13 H          -2.1072    2.9991   -1.6848 H.spc      1 <1>        0.000
     14 H          -1.1773    1.4017   -2.0697 H.spc      1 <1>        0.000
@<TRIPOS>BOND
     1    1    2 am 
     2    1    4 1  
     3    2    3 2  
     4    4    5 2  
     5    5    6 1  
     6    6    7 2  
     7    1    8 1  
     8    2    9 1  
     9    4   10 1  
    10    5   11 1  
    11    6   12 1  
    12    7   13 1  
    13    7   14 1  
# Name:          frag3-258-3/31924 -- energy: -1.041112
# Creation time: Sat Jun  5 12:52:40 2010


@<TRIPOS>MOLECULE
frag3-258-3/31924 -- energy: -1.041112
   14    13     1     1     1
SMALL
USER_CHARGES


@<TRIPOS>ATOM
      1 N1         -4.8526    3.4599   -1.2099 N.am       1 <1>        0.000
      2 C1         -5.9489    3.6713   -1.9780 C.2        1 <1>        0.000
      3 O1         -7.0131    3.0783   -1.8982 O.2        1 <1>        0.000
      4 C5         -4.7450    2.5201   -0.2394 C.2        1 <1>        0.000
      5 C6         -3.6336    1.9196    0.1772 C.2        1 <1>        0.000
      6 C7         -2.2982    2.0650   -0.2821 C.2        1 <1>        0.000
      7 C8         -1.7011    1.2854   -1.1816 C.2        1 <1>        0.000
      8 H          -4.0423    4.0568   -1.3757 H.spc      1 <1>        0.000
      9 H          -5.8732    4.4459   -2.7411 H.spc      1 <1>        0.000
     10 H          -5.6707    2.2238    0.2539 H.spc      1 <1>        0.000
     11 H          -3.7683    1.2097    0.9933 H.spc      1 <1>        0.000
     12 H          -1.7125    2.8834    0.1366 H.spc      1 <1>        0.000
     13 H          -2.2455    0.4538   -1.6291 H.spc      1 <1>        0.000
     14 H          -0.6680    1.4789   -1.4704 H.spc      1 <1>        0.000
@<TRIPOS>BOND
     1    1    2 am 
     2    1    4 1  
     3    2    3 2  
     4    4    5 2  
     5    5    6 1  
     6    6    7 2  
     7    1    8 1  
     8    2    9 1  
     9    4   10 1  
    10    5   11 1  
    11    6   12 1  
    12    7   13 1  
    13    7   14 1  
# Name:          frag3-258-3/31924 -- energy: -1.455821
# Creation time: Sat Jun  5 12:52:40 2010


@<TRIPOS>MOLECULE
frag3-258-3/31924 -- energy: -1.455821
   14    13     1     1     1
SMALL
USER_CHARGES


@<TRIPOS>ATOM
      1 N1         -5.5254    2.8283   -0.5524 N.am       1 <1>        0.000
      2 C1         -5.3623    3.2168   -1.8323 C.2        1 <1>        0.000
      3 O1         -6.2162    3.3253   -2.7005 O.2        1 <1>        0.000
      4 C5         -4.6874    2.5534    0.4643 C.2        1 <1>        0.000
      5 C6         -3.3695    2.3034    0.4286 C.2        1 <1>        0.000
      6 C7         -2.4318    2.2368   -0.6504 C.2        1 <1>        0.000
      7 C8         -2.6000    1.5357   -1.7693 C.2        1 <1>        0.000
      8 H          -6.5064    2.7174   -0.2959 H.spc      1 <1>        0.000
      9 H          -4.3436    3.4649   -2.1303 H.spc      1 <1>        0.000
     10 H          -5.1426    2.5307    1.4544 H.spc      1 <1>        0.000
     11 H          -2.9294    2.1152    1.4079 H.spc      1 <1>        0.000
     12 H          -1.5072    2.8048   -0.5479 H.spc      1 <1>        0.000
     13 H          -3.5091    0.9525   -1.9155 H.spc      1 <1>        0.000
     14 H          -1.8286    1.5448   -2.5393 H.spc      1 <1>        0.000
@<TRIPOS>BOND
     1    1    2 am 
     2    1    4 1  
     3    2    3 2  
     4    4    5 2  
     5    5    6 1  
     6    6    7 2  
     7    1    8 1  
     8    2    9 1  
     9    4   10 1  
    10    5   11 1  
    11    6   12 1  
    12    7   13 1  
    13    7   14 1  
