#      Rotatable Fragment
#      Build by yxyuan
#
# Name:          frag4-387-249/150395
# Creation time: Sat Jun  5 12:53:33 2010


@<TRIPOS>MOLECULE
frag4-387-249/150395
    6     6     1     1     1
SMALL
USER_CHARGES


@<TRIPOS>ATOM
      1 C2          0.5020   -0.6115   -0.3918 C.ar       1 <1>        0.000
      2 N1          0.5021   -0.6116   -0.3920 N.ar       1 <1>        0.000
      3 N2         -0.0886    0.0290   -0.3318 N.ar       1 <1>        0.000
      4 N3         -0.6477    0.7712    0.1942 N.ar       1 <1>        0.000
      5 N4         -0.6418    1.3683   -0.5945 N.ar       1 <1>        0.000
      6 H           0.8424   -1.0244    0.5578 H.spc      1 <1>        0.000
@<TRIPOS>BOND
     1    1    2 ar 
     2    1    3 ar 
     3    2    4 ar 
     4    3    5 ar 
     5    4    5 ar 
     6    1    6 1  
# Name:          frag4-387-249/150395 -- energy: 0.013825
# Creation time: Sat Jun  5 12:53:33 2010


@<TRIPOS>MOLECULE
frag4-387-249/150395 -- energy: 0.013825
    6     6     1     1     1
SMALL
USER_CHARGES


@<TRIPOS>ATOM
      1 C2          0.5020   -0.6115   -0.3918 C.ar       1 <1>        0.000
      2 N1          0.5021   -0.6116   -0.3920 N.ar       1 <1>        0.000
      3 N2         -0.0886    0.0290   -0.3318 N.ar       1 <1>        0.000
      4 N3         -0.6477    0.7712    0.1942 N.ar       1 <1>        0.000
      5 N4         -0.6418    1.3683   -0.5945 N.ar       1 <1>        0.000
      6 H           0.8424   -1.0244    0.5578 H.spc      1 <1>        0.000
@<TRIPOS>BOND
     1    1    2 ar 
     2    1    3 ar 
     3    2    4 ar 
     4    3    5 ar 
     5    4    5 ar 
     6    1    6 1  
