#      Rotatable Fragment
#      Build by yxyuan
#
# Name:          frag3-216-7/96164
# Creation time: Sat Jun  5 12:53:13 2010


@<TRIPOS>MOLECULE
frag3-216-7/96164
   16    15     1     1     1
SMALL
USER_CHARGES


@<TRIPOS>ATOM
      1 C1         -4.2624   -0.7583   -0.1580 C.2        1 <1>        0.000
      2 C3         -3.4573   -1.3594    0.7060 C.2        1 <1>        0.000
      3 C6         -2.1953   -0.8529    1.0183 C.1        1 <1>        0.000
      4 C8         -1.1443   -0.3329    1.2048 C.1        1 <1>        0.000
      5 C10         0.1126    0.1514    1.5314 C.2        1 <1>        0.000
      6 C12         0.9375   -0.3837    2.4199 C.2        1 <1>        0.000
      7 C14         2.2249    0.0224    2.7981 C.2        1 <1>        0.000
      8 C15         2.9257   -0.3945    3.8443 C.2        1 <1>        0.000
      9 H          -3.9453    0.1614   -0.6495 H.spc      1 <1>        0.000
     10 H          -5.2418   -1.1836   -0.3772 H.spc      1 <1>        0.000
     11 H          -3.7914   -2.2783    1.1878 H.spc      1 <1>        0.000
     12 H           0.4514    1.0486    1.0134 H.spc      1 <1>        0.000
     13 H           0.5598   -1.2690    2.9314 H.spc      1 <1>        0.000
     14 H           2.7043    0.7649    2.1601 H.spc      1 <1>        0.000
     15 H           2.5038   -1.1364    4.5223 H.spc      1 <1>        0.000
     16 H           3.9235    0.0048    4.0260 H.spc      1 <1>        0.000
@<TRIPOS>BOND
     1    7    8 2  
     2    1    2 2  
     3    2    3 1  
     4    3    4 3  
     5    4    5 1  
     6    5    6 2  
     7    6    7 1  
     8    1    9 1  
     9    1   10 1  
    10    2   11 1  
    11    5   12 1  
    12    6   13 1  
    13    7   14 1  
    14    8   15 1  
    15    8   16 1  
# Name:          frag3-216-7/96164
# Creation time: Sat Jun  5 12:53:13 2010


@<TRIPOS>MOLECULE
frag3-216-7/96164
   16    15     1     1     1
SMALL
USER_CHARGES


@<TRIPOS>ATOM
      1 C1         -4.0093   -0.7652   -0.4622 C.2        1 <1>        0.000
      2 C3         -3.5544   -1.1142    0.7297 C.2        1 <1>        0.000
      3 C6         -2.2445   -0.8702    1.1458 C.1        1 <1>        0.000
      4 C8         -1.0998   -0.6145    1.3344 C.1        1 <1>        0.000
      5 C10         0.2384   -0.3851    1.6603 C.2        1 <1>        0.000
      6 C12         0.7249    0.1150    2.7921 C.2        1 <1>        0.000
      7 C14         2.0660    0.3223    3.1711 C.2        1 <1>        0.000
      8 C15         3.0201   -0.5959    2.9936 C.2        1 <1>        0.000
      9 H          -3.3512   -0.2625   -1.1710 H.spc      1 <1>        0.000
     10 H          -5.0423   -0.9802   -0.7357 H.spc      1 <1>        0.000
     11 H          -4.2338   -1.6156    1.4190 H.spc      1 <1>        0.000
     12 H           0.9707   -0.6469    0.8966 H.spc      1 <1>        0.000
     13 H          -0.0202    0.4062    3.5325 H.spc      1 <1>        0.000
     14 H           2.3370    1.2735    3.6292 H.spc      1 <1>        0.000
     15 H           2.7752   -1.5552    2.5378 H.spc      1 <1>        0.000
     16 H           4.0434   -0.3857    3.3046 H.spc      1 <1>        0.000
@<TRIPOS>BOND
     1    7    8 2  
     2    1    2 2  
     3    2    3 1  
     4    3    4 3  
     5    4    5 1  
     6    5    6 2  
     7    6    7 1  
     8    1    9 1  
     9    1   10 1  
    10    2   11 1  
    11    5   12 1  
    12    6   13 1  
    13    7   14 1  
    14    8   15 1  
    15    8   16 1  
# Name:          frag3-216-7/96164
# Creation time: Sat Jun  5 12:53:13 2010


@<TRIPOS>MOLECULE
frag3-216-7/96164
   16    15     1     1     1
SMALL
USER_CHARGES


@<TRIPOS>ATOM
      1 C1         -3.8645   -1.9465    0.8156 C.2        1 <1>        0.000
      2 C3         -3.4638   -0.7757    0.3332 C.2        1 <1>        0.000
      3 C6         -2.2172   -0.2170    0.6348 C.1        1 <1>        0.000
      4 C8         -1.1261    0.0722    1.0075 C.1        1 <1>        0.000
      5 C10         0.1563    0.2998    1.4921 C.2        1 <1>        0.000
      6 C12         0.8680   -0.4725    2.3012 C.2        1 <1>        0.000
      7 C14         2.1677   -0.2669    2.7907 C.2        1 <1>        0.000
      8 C15         2.6211   -0.6013    3.9896 C.2        1 <1>        0.000
      9 H          -3.2115   -2.5156    1.4773 H.spc      1 <1>        0.000
     10 H          -4.8463   -2.3382    0.5498 H.spc      1 <1>        0.000
     11 H          -4.1355   -0.2262   -0.3264 H.spc      1 <1>        0.000
     12 H           0.6344    1.2242    1.1681 H.spc      1 <1>        0.000
     13 H           0.3789   -1.3893    2.6303 H.spc      1 <1>        0.000
     14 H           2.8747    0.2165    2.1165 H.spc      1 <1>        0.000
     15 H           1.9594   -1.0876    4.7064 H.spc      1 <1>        0.000
     16 H           3.6559   -0.3902    4.2593 H.spc      1 <1>        0.000
@<TRIPOS>BOND
     1    7    8 2  
     2    1    2 2  
     3    2    3 1  
     4    3    4 3  
     5    4    5 1  
     6    5    6 2  
     7    6    7 1  
     8    1    9 1  
     9    1   10 1  
    10    2   11 1  
    11    5   12 1  
    12    6   13 1  
    13    7   14 1  
    14    8   15 1  
    15    8   16 1  
# Name:          frag3-216-7/96164
# Creation time: Sat Jun  5 12:53:13 2010


@<TRIPOS>MOLECULE
frag3-216-7/96164
   16    15     1     1     1
SMALL
USER_CHARGES


@<TRIPOS>ATOM
      1 C1         -4.2112   -0.1528    0.1781 C.2        1 <1>        0.000
      2 C3         -3.3538   -1.1756    0.2302 C.2        1 <1>        0.000
      3 C6         -2.1405   -1.1214    0.9062 C.1        1 <1>        0.000
      4 C8         -1.1642   -0.8649    1.5390 C.1        1 <1>        0.000
      5 C10        -0.0289   -0.4984    2.2544 C.2        1 <1>        0.000
      6 C12         1.2216   -0.3713    1.8438 C.2        1 <1>        0.000
      7 C14         2.3963   -0.0270    2.5639 C.2        1 <1>        0.000
      8 C15         2.4220    0.3035    3.8492 C.2        1 <1>        0.000
      9 H          -3.9734    0.7840    0.6821 H.spc      1 <1>        0.000
     10 H          -5.1488   -0.2549   -0.3684 H.spc      1 <1>        0.000
     11 H          -3.6190   -2.0997   -0.2835 H.spc      1 <1>        0.000
     12 H          -0.1947   -0.2842    3.3102 H.spc      1 <1>        0.000
     13 H           1.3756   -0.5614    0.7816 H.spc      1 <1>        0.000
     14 H           3.3428   -0.0347    2.0234 H.spc      1 <1>        0.000
     15 H           1.4970    0.3232    4.4255 H.spc      1 <1>        0.000
     16 H           3.3681    0.5552    4.3284 H.spc      1 <1>        0.000
@<TRIPOS>BOND
     1    7    8 2  
     2    1    2 2  
     3    2    3 1  
     4    3    4 3  
     5    4    5 1  
     6    5    6 2  
     7    6    7 1  
     8    1    9 1  
     9    1   10 1  
    10    2   11 1  
    11    5   12 1  
    12    6   13 1  
    13    7   14 1  
    14    8   15 1  
    15    8   16 1  
# Name:          frag3-216-7/96164
# Creation time: Sat Jun  5 12:53:13 2010


@<TRIPOS>MOLECULE
frag3-216-7/96164
   16    15     1     1     1
SMALL
USER_CHARGES


@<TRIPOS>ATOM
      1 C1         -3.7230   -0.1254   -0.3384 C.2        1 <1>        0.000
      2 C3         -3.4540   -1.1204    0.5010 C.2        1 <1>        0.000
      3 C6         -2.2769   -1.1924    1.2292 C.1        1 <1>        0.000
      4 C8         -1.2102   -1.0453    1.7258 C.1        1 <1>        0.000
      5 C10         0.0332   -0.7741    2.2589 C.2        1 <1>        0.000
      6 C12         0.9074    0.1725    1.9404 C.2        1 <1>        0.000
      7 C14         2.1798    0.4345    2.5168 C.2        1 <1>        0.000
      8 C15         2.6851   -0.2574    3.5311 C.2        1 <1>        0.000
      9 H          -3.0023    0.6805   -0.4771 H.spc      1 <1>        0.000
     10 H          -4.6643   -0.1154   -0.8880 H.spc      1 <1>        0.000
     11 H          -4.1912   -1.9142    0.6219 H.spc      1 <1>        0.000
     12 H           0.3452   -1.4387    3.0646 H.spc      1 <1>        0.000
     13 H           0.6100    0.8370    1.1292 H.spc      1 <1>        0.000
     14 H           2.7741    1.2491    2.1030 H.spc      1 <1>        0.000
     15 H           2.1163   -1.0783    3.9679 H.spc      1 <1>        0.000
     16 H           3.6687   -0.0045    3.9270 H.spc      1 <1>        0.000
@<TRIPOS>BOND
     1    7    8 2  
     2    1    2 2  
     3    2    3 1  
     4    3    4 3  
     5    4    5 1  
     6    5    6 2  
     7    6    7 1  
     8    1    9 1  
     9    1   10 1  
    10    2   11 1  
    11    5   12 1  
    12    6   13 1  
    13    7   14 1  
    14    8   15 1  
    15    8   16 1  
# Name:          frag3-216-7/96164 -- energy: -0.949585
# Creation time: Sat Jun  5 12:53:13 2010


@<TRIPOS>MOLECULE
frag3-216-7/96164 -- energy: -0.949585
   16    15     1     1     1
SMALL
USER_CHARGES


@<TRIPOS>ATOM
      1 C1         -4.2624   -0.7583   -0.1580 C.2        1 <1>        0.000
      2 C3         -3.4573   -1.3594    0.7060 C.2        1 <1>        0.000
      3 C6         -2.1953   -0.8529    1.0183 C.1        1 <1>        0.000
      4 C8         -1.1443   -0.3329    1.2048 C.1        1 <1>        0.000
      5 C10         0.1126    0.1514    1.5314 C.2        1 <1>        0.000
      6 C12         0.9375   -0.3837    2.4199 C.2        1 <1>        0.000
      7 C14         2.2249    0.0224    2.7981 C.2        1 <1>        0.000
      8 C15         2.9257   -0.3945    3.8443 C.2        1 <1>        0.000
      9 H          -3.9453    0.1614   -0.6495 H.spc      1 <1>        0.000
     10 H          -5.2418   -1.1836   -0.3772 H.spc      1 <1>        0.000
     11 H          -3.7914   -2.2783    1.1878 H.spc      1 <1>        0.000
     12 H           0.4514    1.0486    1.0134 H.spc      1 <1>        0.000
     13 H           0.5598   -1.2690    2.9314 H.spc      1 <1>        0.000
     14 H           2.7043    0.7649    2.1601 H.spc      1 <1>        0.000
     15 H           2.5038   -1.1364    4.5223 H.spc      1 <1>        0.000
     16 H           3.9235    0.0048    4.0260 H.spc      1 <1>        0.000
@<TRIPOS>BOND
     1    7    8 2  
     2    1    2 2  
     3    2    3 1  
     4    3    4 3  
     5    4    5 1  
     6    5    6 2  
     7    6    7 1  
     8    1    9 1  
     9    1   10 1  
    10    2   11 1  
    11    5   12 1  
    12    6   13 1  
    13    7   14 1  
    14    8   15 1  
    15    8   16 1  
# Name:          frag3-216-7/96164 -- energy: -1.027506
# Creation time: Sat Jun  5 12:53:13 2010


@<TRIPOS>MOLECULE
frag3-216-7/96164 -- energy: -1.027506
   16    15     1     1     1
SMALL
USER_CHARGES


@<TRIPOS>ATOM
      1 C1         -4.0093   -0.7652   -0.4622 C.2        1 <1>        0.000
      2 C3         -3.5544   -1.1142    0.7297 C.2        1 <1>        0.000
      3 C6         -2.2445   -0.8702    1.1458 C.1        1 <1>        0.000
      4 C8         -1.0998   -0.6145    1.3344 C.1        1 <1>        0.000
      5 C10         0.2384   -0.3851    1.6603 C.2        1 <1>        0.000
      6 C12         0.7249    0.1150    2.7921 C.2        1 <1>        0.000
      7 C14         2.0660    0.3223    3.1711 C.2        1 <1>        0.000
      8 C15         3.0201   -0.5959    2.9936 C.2        1 <1>        0.000
      9 H          -3.3512   -0.2625   -1.1710 H.spc      1 <1>        0.000
     10 H          -5.0423   -0.9802   -0.7357 H.spc      1 <1>        0.000
     11 H          -4.2338   -1.6156    1.4190 H.spc      1 <1>        0.000
     12 H           0.9707   -0.6469    0.8966 H.spc      1 <1>        0.000
     13 H          -0.0202    0.4062    3.5325 H.spc      1 <1>        0.000
     14 H           2.3370    1.2735    3.6292 H.spc      1 <1>        0.000
     15 H           2.7752   -1.5552    2.5378 H.spc      1 <1>        0.000
     16 H           4.0434   -0.3857    3.3046 H.spc      1 <1>        0.000
@<TRIPOS>BOND
     1    7    8 2  
     2    1    2 2  
     3    2    3 1  
     4    3    4 3  
     5    4    5 1  
     6    5    6 2  
     7    6    7 1  
     8    1    9 1  
     9    1   10 1  
    10    2   11 1  
    11    5   12 1  
    12    6   13 1  
    13    7   14 1  
    14    8   15 1  
    15    8   16 1  
# Name:          frag3-216-7/96164 -- energy: -1.000163
# Creation time: Sat Jun  5 12:53:13 2010


@<TRIPOS>MOLECULE
frag3-216-7/96164 -- energy: -1.000163
   16    15     1     1     1
SMALL
USER_CHARGES


@<TRIPOS>ATOM
      1 C1         -3.8645   -1.9465    0.8156 C.2        1 <1>        0.000
      2 C3         -3.4638   -0.7757    0.3332 C.2        1 <1>        0.000
      3 C6         -2.2172   -0.2170    0.6348 C.1        1 <1>        0.000
      4 C8         -1.1261    0.0722    1.0075 C.1        1 <1>        0.000
      5 C10         0.1563    0.2998    1.4921 C.2        1 <1>        0.000
      6 C12         0.8680   -0.4725    2.3012 C.2        1 <1>        0.000
      7 C14         2.1677   -0.2669    2.7907 C.2        1 <1>        0.000
      8 C15         2.6211   -0.6013    3.9896 C.2        1 <1>        0.000
      9 H          -3.2115   -2.5156    1.4773 H.spc      1 <1>        0.000
     10 H          -4.8463   -2.3382    0.5498 H.spc      1 <1>        0.000
     11 H          -4.1355   -0.2262   -0.3264 H.spc      1 <1>        0.000
     12 H           0.6344    1.2242    1.1681 H.spc      1 <1>        0.000
     13 H           0.3789   -1.3893    2.6303 H.spc      1 <1>        0.000
     14 H           2.8747    0.2165    2.1165 H.spc      1 <1>        0.000
     15 H           1.9594   -1.0876    4.7064 H.spc      1 <1>        0.000
     16 H           3.6559   -0.3902    4.2593 H.spc      1 <1>        0.000
@<TRIPOS>BOND
     1    7    8 2  
     2    1    2 2  
     3    2    3 1  
     4    3    4 3  
     5    4    5 1  
     6    5    6 2  
     7    6    7 1  
     8    1    9 1  
     9    1   10 1  
    10    2   11 1  
    11    5   12 1  
    12    6   13 1  
    13    7   14 1  
    14    8   15 1  
    15    8   16 1  
# Name:          frag3-216-7/96164 -- energy: -0.950385
# Creation time: Sat Jun  5 12:53:13 2010


@<TRIPOS>MOLECULE
frag3-216-7/96164 -- energy: -0.950385
   16    15     1     1     1
SMALL
USER_CHARGES


@<TRIPOS>ATOM
      1 C1         -4.2112   -0.1528    0.1781 C.2        1 <1>        0.000
      2 C3         -3.3538   -1.1756    0.2302 C.2        1 <1>        0.000
      3 C6         -2.1405   -1.1214    0.9062 C.1        1 <1>        0.000
      4 C8         -1.1642   -0.8649    1.5390 C.1        1 <1>        0.000
      5 C10        -0.0289   -0.4984    2.2544 C.2        1 <1>        0.000
      6 C12         1.2216   -0.3713    1.8438 C.2        1 <1>        0.000
      7 C14         2.3963   -0.0270    2.5639 C.2        1 <1>        0.000
      8 C15         2.4220    0.3035    3.8492 C.2        1 <1>        0.000
      9 H          -3.9734    0.7840    0.6821 H.spc      1 <1>        0.000
     10 H          -5.1488   -0.2549   -0.3684 H.spc      1 <1>        0.000
     11 H          -3.6190   -2.0997   -0.2835 H.spc      1 <1>        0.000
     12 H          -0.1947   -0.2842    3.3102 H.spc      1 <1>        0.000
     13 H           1.3756   -0.5614    0.7816 H.spc      1 <1>        0.000
     14 H           3.3428   -0.0347    2.0234 H.spc      1 <1>        0.000
     15 H           1.4970    0.3232    4.4255 H.spc      1 <1>        0.000
     16 H           3.3681    0.5552    4.3284 H.spc      1 <1>        0.000
@<TRIPOS>BOND
     1    7    8 2  
     2    1    2 2  
     3    2    3 1  
     4    3    4 3  
     5    4    5 1  
     6    5    6 2  
     7    6    7 1  
     8    1    9 1  
     9    1   10 1  
    10    2   11 1  
    11    5   12 1  
    12    6   13 1  
    13    7   14 1  
    14    8   15 1  
    15    8   16 1  
# Name:          frag3-216-7/96164 -- energy: -0.857799
# Creation time: Sat Jun  5 12:53:13 2010


@<TRIPOS>MOLECULE
frag3-216-7/96164 -- energy: -0.857799
   16    15     1     1     1
SMALL
USER_CHARGES


@<TRIPOS>ATOM
      1 C1         -3.7230   -0.1254   -0.3384 C.2        1 <1>        0.000
      2 C3         -3.4540   -1.1204    0.5010 C.2        1 <1>        0.000
      3 C6         -2.2769   -1.1924    1.2292 C.1        1 <1>        0.000
      4 C8         -1.2102   -1.0453    1.7258 C.1        1 <1>        0.000
      5 C10         0.0332   -0.7741    2.2589 C.2        1 <1>        0.000
      6 C12         0.9074    0.1725    1.9404 C.2        1 <1>        0.000
      7 C14         2.1798    0.4345    2.5168 C.2        1 <1>        0.000
      8 C15         2.6851   -0.2574    3.5311 C.2        1 <1>        0.000
      9 H          -3.0023    0.6805   -0.4771 H.spc      1 <1>        0.000
     10 H          -4.6643   -0.1154   -0.8880 H.spc      1 <1>        0.000
     11 H          -4.1912   -1.9142    0.6219 H.spc      1 <1>        0.000
     12 H           0.3452   -1.4387    3.0646 H.spc      1 <1>        0.000
     13 H           0.6100    0.8370    1.1292 H.spc      1 <1>        0.000
     14 H           2.7741    1.2491    2.1030 H.spc      1 <1>        0.000
     15 H           2.1163   -1.0783    3.9679 H.spc      1 <1>        0.000
     16 H           3.6687   -0.0045    3.9270 H.spc      1 <1>        0.000
@<TRIPOS>BOND
     1    7    8 2  
     2    1    2 2  
     3    2    3 1  
     4    3    4 3  
     5    4    5 1  
     6    5    6 2  
     7    6    7 1  
     8    1    9 1  
     9    1   10 1  
    10    2   11 1  
    11    5   12 1  
    12    6   13 1  
    13    7   14 1  
    14    8   15 1  
    15    8   16 1  
