#      Rotatable Fragment
#      Build by yxyuan
#
# Name:          frag5-641-81/138278
# Creation time: Sat Jun  5 12:53:49 2010


@<TRIPOS>MOLECULE
frag5-641-81/138278
   16    16     1     1     1
SMALL
USER_CHARGES


@<TRIPOS>ATOM
      1 C1         -1.4629    0.0618   -0.2543 C.ar       1 <1>        0.000
      2 S1         -0.0303    0.9879   -0.2518 S.o2       1 <1>        0.000
      3 C2         -2.6881    0.7550   -0.1972 C.ar       1 <1>        0.000
      4 C3         -1.5394   -1.3420   -0.3465 C.ar       1 <1>        0.000
      5 O1          0.2035    1.6392    0.9964 O.2        1 <1>        0.000
      6 O2          0.2601    1.5345   -1.5371 O.2        1 <1>        0.000
      7 C5         -3.8920    0.0925   -0.1474 C.ar       1 <1>        0.000
      8 C6         -2.7468   -2.0035   -0.3045 C.ar       1 <1>        0.000
      9 C8         -3.9706   -1.3194   -0.1581 C.ar       1 <1>        0.000
     10 O3         -5.1349   -1.9823   -0.0523 O.3        1 <1>        0.000
     11 H           1.0947    0.2816   -0.1855 H.spc      1 <1>        0.000
     12 H          -2.6815    1.8450   -0.1924 H.spc      1 <1>        0.000
     13 H          -0.6207   -1.9186   -0.4537 H.spc      1 <1>        0.000
     14 H          -4.8133    0.6730   -0.0982 H.spc      1 <1>        0.000
     15 H          -2.7563   -3.0903   -0.3871 H.spc      1 <1>        0.000
     16 H          -5.8534   -1.3522    0.0395 H.spc      1 <1>        0.000
@<TRIPOS>BOND
     1    8    9 ar 
     2    9   10 1  
     3    1    2 1  
     4    1    3 ar 
     5    1    4 ar 
     6    2    5 2  
     7    2    6 2  
     8    3    7 ar 
     9    4    8 ar 
    10    7    9 ar 
    11    2   11 1  
    12    3   12 1  
    13    4   13 1  
    14    7   14 1  
    15    8   15 1  
    16   10   16 1  
# Name:          frag5-641-81/138278
# Creation time: Sat Jun  5 12:53:49 2010


@<TRIPOS>MOLECULE
frag5-641-81/138278
   16    16     1     1     1
SMALL
USER_CHARGES


@<TRIPOS>ATOM
      1 C1         -1.4975    0.1191   -0.1275 C.ar       1 <1>        0.000
      2 S1         -0.0520    1.0227   -0.1441 S.o2       1 <1>        0.000
      3 C2         -2.6863    0.6565    0.4042 C.ar       1 <1>        0.000
      4 C3         -1.6068   -1.1350   -0.7609 C.ar       1 <1>        0.000
      5 O1         -0.2107    2.3336    0.3994 O.2        1 <1>        0.000
      6 O2          0.7877    0.6801   -1.2458 O.2        1 <1>        0.000
      7 C5         -3.8710   -0.0417    0.3783 C.ar       1 <1>        0.000
      8 C6         -2.7950   -1.8272   -0.7957 C.ar       1 <1>        0.000
      9 C8         -3.9686   -1.3318   -0.1913 C.ar       1 <1>        0.000
     10 O3         -5.1013   -2.0525   -0.1693 O.3        1 <1>        0.000
     11 H           0.8406    0.6665    0.7753 H.spc      1 <1>        0.000
     12 H          -2.6667    1.6519    0.8478 H.spc      1 <1>        0.000
     13 H          -0.7264   -1.5680   -1.2358 H.spc      1 <1>        0.000
     14 H          -4.7621    0.4138    0.8103 H.spc      1 <1>        0.000
     15 H          -2.8304   -2.7893   -1.3068 H.spc      1 <1>        0.000
     16 H          -5.7873   -1.5547    0.2815 H.spc      1 <1>        0.000
@<TRIPOS>BOND
     1    8    9 ar 
     2    9   10 1  
     3    1    2 1  
     4    1    3 ar 
     5    1    4 ar 
     6    2    5 2  
     7    2    6 2  
     8    3    7 ar 
     9    4    8 ar 
    10    7    9 ar 
    11    2   11 1  
    12    3   12 1  
    13    4   13 1  
    14    7   14 1  
    15    8   15 1  
    16   10   16 1  
# Name:          frag5-641-81/138278 -- energy: -0.714905
# Creation time: Sat Jun  5 12:53:49 2010


@<TRIPOS>MOLECULE
frag5-641-81/138278 -- energy: -0.714905
   16    16     1     1     1
SMALL
USER_CHARGES


@<TRIPOS>ATOM
      1 C1         -1.4629    0.0618   -0.2543 C.ar       1 <1>        0.000
      2 S1         -0.0303    0.9879   -0.2518 S.o2       1 <1>        0.000
      3 C2         -2.6881    0.7550   -0.1972 C.ar       1 <1>        0.000
      4 C3         -1.5394   -1.3420   -0.3465 C.ar       1 <1>        0.000
      5 O1          0.2035    1.6392    0.9964 O.2        1 <1>        0.000
      6 O2          0.2601    1.5345   -1.5371 O.2        1 <1>        0.000
      7 C5         -3.8920    0.0925   -0.1474 C.ar       1 <1>        0.000
      8 C6         -2.7468   -2.0035   -0.3045 C.ar       1 <1>        0.000
      9 C8         -3.9706   -1.3194   -0.1581 C.ar       1 <1>        0.000
     10 O3         -5.1349   -1.9823   -0.0523 O.3        1 <1>        0.000
     11 H           1.0947    0.2816   -0.1855 H.spc      1 <1>        0.000
     12 H          -2.6815    1.8450   -0.1924 H.spc      1 <1>        0.000
     13 H          -0.6207   -1.9186   -0.4537 H.spc      1 <1>        0.000
     14 H          -4.8133    0.6730   -0.0982 H.spc      1 <1>        0.000
     15 H          -2.7563   -3.0903   -0.3871 H.spc      1 <1>        0.000
     16 H          -5.8534   -1.3522    0.0395 H.spc      1 <1>        0.000
@<TRIPOS>BOND
     1    8    9 ar 
     2    9   10 1  
     3    1    2 1  
     4    1    3 ar 
     5    1    4 ar 
     6    2    5 2  
     7    2    6 2  
     8    3    7 ar 
     9    4    8 ar 
    10    7    9 ar 
    11    2   11 1  
    12    3   12 1  
    13    4   13 1  
    14    7   14 1  
    15    8   15 1  
    16   10   16 1  
# Name:          frag5-641-81/138278 -- energy: -0.691107
# Creation time: Sat Jun  5 12:53:49 2010


@<TRIPOS>MOLECULE
frag5-641-81/138278 -- energy: -0.691107
   16    16     1     1     1
SMALL
USER_CHARGES


@<TRIPOS>ATOM
      1 C1         -1.4975    0.1191   -0.1275 C.ar       1 <1>        0.000
      2 S1         -0.0520    1.0227   -0.1441 S.o2       1 <1>        0.000
      3 C2         -2.6863    0.6565    0.4042 C.ar       1 <1>        0.000
      4 C3         -1.6068   -1.1350   -0.7609 C.ar       1 <1>        0.000
      5 O1         -0.2107    2.3336    0.3994 O.2        1 <1>        0.000
      6 O2          0.7877    0.6801   -1.2458 O.2        1 <1>        0.000
      7 C5         -3.8710   -0.0417    0.3783 C.ar       1 <1>        0.000
      8 C6         -2.7950   -1.8272   -0.7957 C.ar       1 <1>        0.000
      9 C8         -3.9686   -1.3318   -0.1913 C.ar       1 <1>        0.000
     10 O3         -5.1013   -2.0525   -0.1693 O.3        1 <1>        0.000
     11 H           0.8406    0.6665    0.7753 H.spc      1 <1>        0.000
     12 H          -2.6667    1.6519    0.8478 H.spc      1 <1>        0.000
     13 H          -0.7264   -1.5680   -1.2358 H.spc      1 <1>        0.000
     14 H          -4.7621    0.4138    0.8103 H.spc      1 <1>        0.000
     15 H          -2.8304   -2.7893   -1.3068 H.spc      1 <1>        0.000
     16 H          -5.7873   -1.5547    0.2815 H.spc      1 <1>        0.000
@<TRIPOS>BOND
     1    8    9 ar 
     2    9   10 1  
     3    1    2 1  
     4    1    3 ar 
     5    1    4 ar 
     6    2    5 2  
     7    2    6 2  
     8    3    7 ar 
     9    4    8 ar 
    10    7    9 ar 
    11    2   11 1  
    12    3   12 1  
    13    4   13 1  
    14    7   14 1  
    15    8   15 1  
    16   10   16 1  
