#      Rotatable Fragment
#      Build by yxyuan
#
# Name:          frag5-649-27/41815
# Creation time: Sat Jun  5 12:53:01 2010


@<TRIPOS>MOLECULE
frag5-649-27/41815
   14    14     1     1     1
SMALL
USER_CHARGES


@<TRIPOS>ATOM
      1 N1          0.1214    1.1203    0.5634 N.am       1 <1>        0.000
      2 C1         -1.1620    1.4039   -0.0158 C.3        1 <1>        0.000
      3 C2         -0.9270    2.8136    0.6320 C.3        1 <1>        0.000
      4 C3          0.3979    2.2931    1.1367 C.2        1 <1>        0.000
      5 O1          1.3102    2.7590    1.7875 O.2        1 <1>        0.000
      6 C14         0.7806   -0.0521    0.4795 C.2        1 <1>        0.000
      7 O5          0.1766   -1.0677    0.1403 O.2        1 <1>        0.000
      8 N2          2.0935   -0.1049    0.7610 N.am       1 <1>        0.000
      9 H          -2.0534    0.7975    0.1448 H.spc      1 <1>        0.000
     10 H          -1.4078    1.2463   -1.0660 H.spc      1 <1>        0.000
     11 H          -1.6579    3.2552    1.3094 H.spc      1 <1>        0.000
     12 H          -0.9891    3.7269    0.0403 H.spc      1 <1>        0.000
     13 H           2.5943   -0.9910    0.6938 H.spc      1 <1>        0.000
     14 H           2.5893    0.7411    1.0419 H.spc      1 <1>        0.000
@<TRIPOS>BOND
     1    1    2 1  
     2    1    4 am 
     3    1    6 am 
     4    2    3 1  
     5    3    4 1  
     6    4    5 2  
     7    6    7 2  
     8    6    8 am 
     9    2    9 1  
    10    2   10 1  
    11    3   11 1  
    12    3   12 1  
    13    8   13 1  
    14    8   14 1  
# Name:          frag5-649-27/41815
# Creation time: Sat Jun  5 12:53:01 2010


@<TRIPOS>MOLECULE
frag5-649-27/41815
   14    14     1     1     1
SMALL
USER_CHARGES


@<TRIPOS>ATOM
      1 N1          0.1801    1.1461    0.5174 N.am       1 <1>        0.000
      2 C1         -0.8568    1.5564   -0.3771 C.3        1 <1>        0.000
      3 C2         -0.8288    2.8604    0.4667 C.3        1 <1>        0.000
      4 C3          0.2857    2.2404    1.2996 C.2        1 <1>        0.000
      5 O1          0.9447    2.5960    2.2353 O.2        1 <1>        0.000
      6 C14         0.8320   -0.0250    0.4943 C.2        1 <1>        0.000
      7 O5          1.4154   -0.4526    1.4869 O.2        1 <1>        0.000
      8 N2          0.8188   -0.7566   -0.6387 N.am       1 <1>        0.000
      9 H          -1.7598    0.9756   -0.5654 H.spc      1 <1>        0.000
     10 H          -0.7641    1.5351   -1.4629 H.spc      1 <1>        0.000
     11 H          -1.7339    3.2456    0.9364 H.spc      1 <1>        0.000
     12 H          -0.7016    3.8338   -0.0069 H.spc      1 <1>        0.000
     13 H           1.2917   -1.6599   -0.6681 H.spc      1 <1>        0.000
     14 H           0.3359   -0.4066   -1.4662 H.spc      1 <1>        0.000
@<TRIPOS>BOND
     1    1    2 1  
     2    1    4 am 
     3    1    6 am 
     4    2    3 1  
     5    3    4 1  
     6    4    5 2  
     7    6    7 2  
     8    6    8 am 
     9    2    9 1  
    10    2   10 1  
    11    3   11 1  
    12    3   12 1  
    13    8   13 1  
    14    8   14 1  
# Name:          frag5-649-27/41815
# Creation time: Sat Jun  5 12:53:01 2010


@<TRIPOS>MOLECULE
frag5-649-27/41815
   14    14     1     1     1
SMALL
USER_CHARGES


@<TRIPOS>ATOM
      1 N1          0.1053    1.1049    0.6165 N.am       1 <1>        0.000
      2 C1         -1.2999    1.2808    0.3810 C.3        1 <1>        0.000
      3 C2         -0.9869    2.7625    0.7889 C.3        1 <1>        0.000
      4 C3          0.4516    2.3417    0.9826 C.2        1 <1>        0.000
      5 O1          1.4696    2.9037    1.3259 O.2        1 <1>        0.000
      6 C14         0.7888   -0.0476    0.4770 C.2        1 <1>        0.000
      7 O5          0.6166   -0.7423   -0.5228 O.2        1 <1>        0.000
      8 N2          1.6459   -0.4386    1.4354 N.am       1 <1>        0.000
      9 H          -2.0781    0.6713    0.8404 H.spc      1 <1>        0.000
     10 H          -1.8062    0.9941   -0.5407 H.spc      1 <1>        0.000
     11 H          -1.5432    3.2613    1.5825 H.spc      1 <1>        0.000
     12 H          -1.2506    3.5969    0.1391 H.spc      1 <1>        0.000
     13 H           2.1573   -1.3154    1.3354 H.spc      1 <1>        0.000
     14 H           1.7850    0.1415    2.2628 H.spc      1 <1>        0.000
@<TRIPOS>BOND
     1    1    2 1  
     2    1    4 am 
     3    1    6 am 
     4    2    3 1  
     5    3    4 1  
     6    4    5 2  
     7    6    7 2  
     8    6    8 am 
     9    2    9 1  
    10    2   10 1  
    11    3   11 1  
    12    3   12 1  
    13    8   13 1  
    14    8   14 1  
# Name:          frag5-649-27/41815 -- energy: -1.182783
# Creation time: Sat Jun  5 12:53:01 2010


@<TRIPOS>MOLECULE
frag5-649-27/41815 -- energy: -1.182783
   14    14     1     1     1
SMALL
USER_CHARGES


@<TRIPOS>ATOM
      1 N1          0.1214    1.1203    0.5634 N.am       1 <1>        0.000
      2 C1         -1.1620    1.4039   -0.0158 C.3        1 <1>        0.000
      3 C2         -0.9270    2.8136    0.6320 C.3        1 <1>        0.000
      4 C3          0.3979    2.2931    1.1367 C.2        1 <1>        0.000
      5 O1          1.3102    2.7590    1.7875 O.2        1 <1>        0.000
      6 C14         0.7806   -0.0521    0.4795 C.2        1 <1>        0.000
      7 O5          0.1766   -1.0677    0.1403 O.2        1 <1>        0.000
      8 N2          2.0935   -0.1049    0.7610 N.am       1 <1>        0.000
      9 H          -2.0534    0.7975    0.1448 H.spc      1 <1>        0.000
     10 H          -1.4078    1.2463   -1.0660 H.spc      1 <1>        0.000
     11 H          -1.6579    3.2552    1.3094 H.spc      1 <1>        0.000
     12 H          -0.9891    3.7269    0.0403 H.spc      1 <1>        0.000
     13 H           2.5943   -0.9910    0.6938 H.spc      1 <1>        0.000
     14 H           2.5893    0.7411    1.0419 H.spc      1 <1>        0.000
@<TRIPOS>BOND
     1    1    2 1  
     2    1    4 am 
     3    1    6 am 
     4    2    3 1  
     5    3    4 1  
     6    4    5 2  
     7    6    7 2  
     8    6    8 am 
     9    2    9 1  
    10    2   10 1  
    11    3   11 1  
    12    3   12 1  
    13    8   13 1  
    14    8   14 1  
# Name:          frag5-649-27/41815 -- energy: -1.152701
# Creation time: Sat Jun  5 12:53:01 2010


@<TRIPOS>MOLECULE
frag5-649-27/41815 -- energy: -1.152701
   14    14     1     1     1
SMALL
USER_CHARGES


@<TRIPOS>ATOM
      1 N1          0.1801    1.1461    0.5174 N.am       1 <1>        0.000
      2 C1         -0.8568    1.5564   -0.3771 C.3        1 <1>        0.000
      3 C2         -0.8288    2.8604    0.4667 C.3        1 <1>        0.000
      4 C3          0.2857    2.2404    1.2996 C.2        1 <1>        0.000
      5 O1          0.9447    2.5960    2.2353 O.2        1 <1>        0.000
      6 C14         0.8320   -0.0250    0.4943 C.2        1 <1>        0.000
      7 O5          1.4154   -0.4526    1.4869 O.2        1 <1>        0.000
      8 N2          0.8188   -0.7566   -0.6387 N.am       1 <1>        0.000
      9 H          -1.7598    0.9756   -0.5654 H.spc      1 <1>        0.000
     10 H          -0.7641    1.5351   -1.4629 H.spc      1 <1>        0.000
     11 H          -1.7339    3.2456    0.9364 H.spc      1 <1>        0.000
     12 H          -0.7016    3.8338   -0.0069 H.spc      1 <1>        0.000
     13 H           1.2917   -1.6599   -0.6681 H.spc      1 <1>        0.000
     14 H           0.3359   -0.4066   -1.4662 H.spc      1 <1>        0.000
@<TRIPOS>BOND
     1    1    2 1  
     2    1    4 am 
     3    1    6 am 
     4    2    3 1  
     5    3    4 1  
     6    4    5 2  
     7    6    7 2  
     8    6    8 am 
     9    2    9 1  
    10    2   10 1  
    11    3   11 1  
    12    3   12 1  
    13    8   13 1  
    14    8   14 1  
# Name:          frag5-649-27/41815 -- energy: -1.281354
# Creation time: Sat Jun  5 12:53:01 2010


@<TRIPOS>MOLECULE
frag5-649-27/41815 -- energy: -1.281354
   14    14     1     1     1
SMALL
USER_CHARGES


@<TRIPOS>ATOM
      1 N1          0.1053    1.1049    0.6165 N.am       1 <1>        0.000
      2 C1         -1.2999    1.2808    0.3810 C.3        1 <1>        0.000
      3 C2         -0.9869    2.7625    0.7889 C.3        1 <1>        0.000
      4 C3          0.4516    2.3417    0.9826 C.2        1 <1>        0.000
      5 O1          1.4696    2.9037    1.3259 O.2        1 <1>        0.000
      6 C14         0.7888   -0.0476    0.4770 C.2        1 <1>        0.000
      7 O5          0.6166   -0.7423   -0.5228 O.2        1 <1>        0.000
      8 N2          1.6459   -0.4386    1.4354 N.am       1 <1>        0.000
      9 H          -2.0781    0.6713    0.8404 H.spc      1 <1>        0.000
     10 H          -1.8062    0.9941   -0.5407 H.spc      1 <1>        0.000
     11 H          -1.5432    3.2613    1.5825 H.spc      1 <1>        0.000
     12 H          -1.2506    3.5969    0.1391 H.spc      1 <1>        0.000
     13 H           2.1573   -1.3154    1.3354 H.spc      1 <1>        0.000
     14 H           1.7850    0.1415    2.2628 H.spc      1 <1>        0.000
@<TRIPOS>BOND
     1    1    2 1  
     2    1    4 am 
     3    1    6 am 
     4    2    3 1  
     5    3    4 1  
     6    4    5 2  
     7    6    7 2  
     8    6    8 am 
     9    2    9 1  
    10    2   10 1  
    11    3   11 1  
    12    3   12 1  
    13    8   13 1  
    14    8   14 1  
