#      Rotatable Fragment
#      Build by yxyuan
#
# Name:          frag4-348-419/150395
# Creation time: Sat Jun  5 12:53:31 2010


@<TRIPOS>MOLECULE
frag4-348-419/150395
   22    23     1     1     1
SMALL
USER_CHARGES


@<TRIPOS>ATOM
      1 C1          0.0506    0.0463    0.0381 C.ar       1 <1>        0.000
      2 C2          0.1672    1.6353    0.0446 C.ar       1 <1>        0.000
      3 C3         -1.3008   -0.6257    0.0522 C.ar       1 <1>        0.000
      4 C4          1.2884   -0.7363   -0.0257 C.3        1 <1>        0.000
      5 C5         -1.1404    2.4192    0.0347 C.ar       1 <1>        0.000
      6 C6          1.5181    2.1935    0.0111 C.3        1 <1>        0.000
      7 C7         -2.5814    0.1350   -0.0058 C.ar       1 <1>        0.000
      8 N1          2.3629   -0.0925   -0.7672 N.4        1 <1>        0.000
      9 C8         -2.3493    1.5836   -0.0065 C.ar       1 <1>        0.000
     10 C9          2.4015    1.3646   -0.8822 C.3        1 <1>        0.000
     11 H          -1.3421   -1.7135    0.1071 H.spc      1 <1>        0.000
     12 H           1.6384   -0.8691    0.9980 H.spc      1 <1>        0.000
     13 H           1.0543   -1.6675   -0.5416 H.spc      1 <1>        0.000
     14 H          -1.1760    3.5084    0.0564 H.spc      1 <1>        0.000
     15 H           1.9297    2.1920    1.0204 H.spc      1 <1>        0.000
     16 H           1.4739    3.2114   -0.3763 H.spc      1 <1>        0.000
     17 H          -3.5677   -0.3275   -0.0431 H.spc      1 <1>        0.000
     18 H           2.2434   -0.4207   -1.7255 H.spc      1 <1>        0.000
     19 H           3.2084   -0.3297   -0.2482 H.spc      1 <1>        0.000
     20 H          -3.2705    2.1649   -0.0460 H.spc      1 <1>        0.000
     21 H           2.0529    1.5748   -1.8933 H.spc      1 <1>        0.000
     22 H           3.4186    1.6404   -0.6037 H.spc      1 <1>        0.000
@<TRIPOS>BOND
     1    7    9 ar 
     2    2    5 ar 
     3    4    8 1  
     4    8   10 1  
     5    2    6 1  
     6    1    4 1  
     7    6   10 1  
     8    5    9 ar 
     9    3    7 ar 
    10    1    2 ar 
    11    1    3 ar 
    12    3   11 1  
    13    4   12 1  
    14    4   13 1  
    15    5   14 1  
    16    6   15 1  
    17    6   16 1  
    18    7   17 1  
    19    8   18 1  
    20    8   19 1  
    21    9   20 1  
    22   10   21 1  
    23   10   22 1  
# Name:          frag4-348-419/150395 -- energy: -1.751609
# Creation time: Sat Jun  5 12:53:31 2010


@<TRIPOS>MOLECULE
frag4-348-419/150395 -- energy: -1.751609
   22    23     1     1     1
SMALL
USER_CHARGES


@<TRIPOS>ATOM
      1 C1          0.0506    0.0463    0.0381 C.ar       1 <1>        0.000
      2 C2          0.1672    1.6353    0.0446 C.ar       1 <1>        0.000
      3 C3         -1.3008   -0.6257    0.0522 C.ar       1 <1>        0.000
      4 C4          1.2884   -0.7363   -0.0257 C.3        1 <1>        0.000
      5 C5         -1.1404    2.4192    0.0347 C.ar       1 <1>        0.000
      6 C6          1.5181    2.1935    0.0111 C.3        1 <1>        0.000
      7 C7         -2.5814    0.1350   -0.0058 C.ar       1 <1>        0.000
      8 N1          2.3629   -0.0925   -0.7672 N.4        1 <1>        0.000
      9 C8         -2.3493    1.5836   -0.0065 C.ar       1 <1>        0.000
     10 C9          2.4015    1.3646   -0.8822 C.3        1 <1>        0.000
     11 H          -1.3421   -1.7135    0.1071 H.spc      1 <1>        0.000
     12 H           1.6384   -0.8691    0.9980 H.spc      1 <1>        0.000
     13 H           1.0543   -1.6675   -0.5416 H.spc      1 <1>        0.000
     14 H          -1.1760    3.5084    0.0564 H.spc      1 <1>        0.000
     15 H           1.9297    2.1920    1.0204 H.spc      1 <1>        0.000
     16 H           1.4739    3.2114   -0.3763 H.spc      1 <1>        0.000
     17 H          -3.5677   -0.3275   -0.0431 H.spc      1 <1>        0.000
     18 H           2.2434   -0.4207   -1.7255 H.spc      1 <1>        0.000
     19 H           3.2084   -0.3297   -0.2482 H.spc      1 <1>        0.000
     20 H          -3.2705    2.1649   -0.0460 H.spc      1 <1>        0.000
     21 H           2.0529    1.5748   -1.8933 H.spc      1 <1>        0.000
     22 H           3.4186    1.6404   -0.6037 H.spc      1 <1>        0.000
@<TRIPOS>BOND
     1    7    9 ar 
     2    2    5 ar 
     3    4    8 1  
     4    8   10 1  
     5    2    6 1  
     6    1    4 1  
     7    6   10 1  
     8    5    9 ar 
     9    3    7 ar 
    10    1    2 ar 
    11    1    3 ar 
    12    3   11 1  
    13    4   12 1  
    14    4   13 1  
    15    5   14 1  
    16    6   15 1  
    17    6   16 1  
    18    7   17 1  
    19    8   18 1  
    20    8   19 1  
    21    9   20 1  
    22   10   21 1  
    23   10   22 1  
