#      Rotatable Fragment
#      Build by yxyuan
#
# Name:          frag2-025-10384/319335
# Creation time: Sat Jun  5 12:53:21 2010


@<TRIPOS>MOLECULE
frag2-025-10384/319335
   11    11     1     1     1
SMALL
USER_CHARGES


@<TRIPOS>ATOM
      1 C20        -0.9345    0.6961   -0.0181 C.ar       1 <1>        0.000
      2 C21        -1.0852   -0.6751   -0.1310 C.ar       1 <1>        0.000
      3 C22         0.3324    1.2350    0.1165 C.ar       1 <1>        0.000
      4 C23         0.0345   -1.4866   -0.1083 C.ar       1 <1>        0.000
      5 C24         1.4299    0.3958    0.1359 C.ar       1 <1>        0.000
      6 N4          1.2796   -0.9514    0.0226 N.ar       1 <1>        0.000
      7 H          -1.8085    1.3472   -0.0351 H.spc      1 <1>        0.000
      8 H          -2.0782   -1.1118   -0.2369 H.spc      1 <1>        0.000
      9 H           0.4639    2.3133    0.2066 H.spc      1 <1>        0.000
     10 H          -0.0811   -2.5669   -0.1962 H.spc      1 <1>        0.000
     11 H           2.4288    0.8186    0.2434 H.spc      1 <1>        0.000
@<TRIPOS>BOND
     1    1    2 ar 
     2    1    3 ar 
     3    2    4 ar 
     4    3    5 ar 
     5    4    6 ar 
     6    5    6 ar 
     7    1    7 1  
     8    2    8 1  
     9    3    9 1  
    10    4   10 1  
    11    5   11 1  
# Name:          frag2-025-10384/319335 -- energy: 0.298020
# Creation time: Sat Jun  5 12:53:21 2010


@<TRIPOS>MOLECULE
frag2-025-10384/319335 -- energy: 0.298020
   11    11     1     1     1
SMALL
USER_CHARGES


@<TRIPOS>ATOM
      1 C20        -0.9345    0.6961   -0.0181 C.ar       1 <1>        0.000
      2 C21        -1.0852   -0.6751   -0.1310 C.ar       1 <1>        0.000
      3 C22         0.3324    1.2350    0.1165 C.ar       1 <1>        0.000
      4 C23         0.0345   -1.4866   -0.1083 C.ar       1 <1>        0.000
      5 C24         1.4299    0.3958    0.1359 C.ar       1 <1>        0.000
      6 N4          1.2796   -0.9514    0.0226 N.ar       1 <1>        0.000
      7 H          -1.8085    1.3472   -0.0351 H.spc      1 <1>        0.000
      8 H          -2.0782   -1.1118   -0.2369 H.spc      1 <1>        0.000
      9 H           0.4639    2.3133    0.2066 H.spc      1 <1>        0.000
     10 H          -0.0811   -2.5669   -0.1962 H.spc      1 <1>        0.000
     11 H           2.4288    0.8186    0.2434 H.spc      1 <1>        0.000
@<TRIPOS>BOND
     1    1    2 ar 
     2    1    3 ar 
     3    2    4 ar 
     4    3    5 ar 
     5    4    6 ar 
     6    5    6 ar 
     7    1    7 1  
     8    2    8 1  
     9    3    9 1  
    10    4   10 1  
    11    5   11 1  
