#      Rotatable Fragment
#      Build by yxyuan
#
# Name:          frag5-649-75/138278
# Creation time: Sat Jun  5 12:53:50 2010


@<TRIPOS>MOLECULE
frag5-649-75/138278
   10    10     1     1     1
SMALL
USER_CHARGES


@<TRIPOS>ATOM
      1 C10         2.2509    0.6078   -0.2961 C.3        1 <1>        0.000
      2 C11         2.2011    2.1457   -0.0748 C.3        1 <1>        0.000
      3 N2          3.6611    0.7874   -0.1021 N.am       1 <1>        0.000
      4 C12         3.7082    2.1174    0.0995 C.2        1 <1>        0.000
      5 O5          4.5577    2.9379    0.3211 O.2        1 <1>        0.000
      6 H           1.8175    0.1059   -1.1611 H.spc      1 <1>        0.000
      7 H           1.6479   -0.1050    0.2664 H.spc      1 <1>        0.000
      8 H           1.7305    2.8050   -0.8042 H.spc      1 <1>        0.000
      9 H           1.5542    2.5851    0.6845 H.spc      1 <1>        0.000
     10 H           4.4153    0.1008   -0.1137 H.spc      1 <1>        0.000
@<TRIPOS>BOND
     1    2    4 1  
     2    1    2 1  
     3    1    3 1  
     4    3    4 am 
     5    4    5 2  
     6    1    6 1  
     7    1    7 1  
     8    2    8 1  
     9    2    9 1  
    10    3   10 1  
# Name:          frag5-649-75/138278 -- energy: -0.395104
# Creation time: Sat Jun  5 12:53:50 2010


@<TRIPOS>MOLECULE
frag5-649-75/138278 -- energy: -0.395104
   10    10     1     1     1
SMALL
USER_CHARGES


@<TRIPOS>ATOM
      1 C10         2.2509    0.6078   -0.2961 C.3        1 <1>        0.000
      2 C11         2.2011    2.1457   -0.0748 C.3        1 <1>        0.000
      3 N2          3.6611    0.7874   -0.1021 N.am       1 <1>        0.000
      4 C12         3.7082    2.1174    0.0995 C.2        1 <1>        0.000
      5 O5          4.5577    2.9379    0.3211 O.2        1 <1>        0.000
      6 H           1.8175    0.1059   -1.1611 H.spc      1 <1>        0.000
      7 H           1.6479   -0.1050    0.2664 H.spc      1 <1>        0.000
      8 H           1.7305    2.8050   -0.8042 H.spc      1 <1>        0.000
      9 H           1.5542    2.5851    0.6845 H.spc      1 <1>        0.000
     10 H           4.4153    0.1008   -0.1137 H.spc      1 <1>        0.000
@<TRIPOS>BOND
     1    2    4 1  
     2    1    2 1  
     3    1    3 1  
     4    3    4 am 
     5    4    5 2  
     6    1    6 1  
     7    1    7 1  
     8    2    8 1  
     9    2    9 1  
    10    3   10 1  
