#      Rotatable Fragment
#      Build by yxyuan
#
# Name:          frag5-565-151/138278
# Creation time: Sat Jun  5 12:53:44 2010


@<TRIPOS>MOLECULE
frag5-565-151/138278
   23    24     1     1     1
SMALL
USER_CHARGES


@<TRIPOS>ATOM
      1 C24         0.7300    1.0989    0.1724 C.ar       1 <1>        0.000
      2 C29        -0.3532    0.5594   -0.5281 C.ar       1 <1>        0.000
      3 C30         0.6705    2.4142    0.6410 C.ar       1 <1>        0.000
      4 C34        -1.5083    1.3212   -0.7241 C.ar       1 <1>        0.000
      5 C35        -0.4926    3.1660    0.4579 C.ar       1 <1>        0.000
      6 C38        -1.6057    2.6075   -0.1775 C.ar       1 <1>        0.000
      7 O8         -2.7943    3.3353   -0.2569 O.3        1 <1>        0.000
      8 C39        -4.0076    2.7021    0.0487 C.ar       1 <1>        0.000
      9 C40        -5.0870    2.8180   -0.8351 C.ar       1 <1>        0.000
     10 C41        -4.1737    1.9598    1.2261 C.ar       1 <1>        0.000
     11 C42        -6.2933    2.1608   -0.5734 C.ar       1 <1>        0.000
     12 C43        -5.3504    1.2405    1.4517 C.ar       1 <1>        0.000
     13 C44        -6.4134    1.3397    0.5514 C.ar       1 <1>        0.000
     14 H           1.6192    0.4947    0.3527 H.spc      1 <1>        0.000
     15 H          -0.2967   -0.4556   -0.9214 H.spc      1 <1>        0.000
     16 H           1.5299    2.8526    1.1483 H.spc      1 <1>        0.000
     17 H          -2.3361    0.9133   -1.3041 H.spc      1 <1>        0.000
     18 H          -0.5326    4.1957    0.8131 H.spc      1 <1>        0.000
     19 H          -4.9864    3.4254   -1.7345 H.spc      1 <1>        0.000
     20 H          -3.3787    1.9435    1.9716 H.spc      1 <1>        0.000
     21 H          -7.1406    2.2889   -1.2471 H.spc      1 <1>        0.000
     22 H          -5.4386    0.6019    2.3306 H.spc      1 <1>        0.000
     23 H          -7.3322    0.7796    0.7250 H.spc      1 <1>        0.000
@<TRIPOS>BOND
     1    2    4 ar 
     2    9   11 ar 
     3    8   10 ar 
     4    6    7 1  
     5    3    5 ar 
     6   11   13 ar 
     7   12   13 ar 
     8    5    6 ar 
     9   10   12 ar 
    10    1    2 ar 
    11    1    3 ar 
    12    4    6 ar 
    13    8    9 ar 
    14    7    8 1  
    15    1   14 1  
    16    2   15 1  
    17    3   16 1  
    18    4   17 1  
    19    5   18 1  
    20    9   19 1  
    21   10   20 1  
    22   11   21 1  
    23   12   22 1  
    24   13   23 1  
# Name:          frag5-565-151/138278
# Creation time: Sat Jun  5 12:53:44 2010


@<TRIPOS>MOLECULE
frag5-565-151/138278
   23    24     1     1     1
SMALL
USER_CHARGES


@<TRIPOS>ATOM
      1 C24        -6.5536    1.4976    0.1279 C.ar       1 <1>        0.000
      2 C29        -5.8251    1.9104   -0.9918 C.ar       1 <1>        0.000
      3 C30        -5.9760    1.5669    1.3986 C.ar       1 <1>        0.000
      4 C34        -4.5369    2.4285   -0.8353 C.ar       1 <1>        0.000
      5 C35        -4.6948    2.1015    1.5519 C.ar       1 <1>        0.000
      6 C38        -3.9895    2.5846    0.4451 C.ar       1 <1>        0.000
      7 O8         -2.7559    3.2093    0.6298 O.3        1 <1>        0.000
      8 C39        -1.5865    2.5549    0.2199 C.ar       1 <1>        0.000
      9 C40        -0.3710    3.2496    0.2170 C.ar       1 <1>        0.000
     10 C41        -1.6009    1.2175   -0.2016 C.ar       1 <1>        0.000
     11 C42         0.8153    2.6061   -0.1484 C.ar       1 <1>        0.000
     12 C43        -0.4080    0.5514   -0.4926 C.ar       1 <1>        0.000
     13 C44         0.8037    1.2450   -0.4665 C.ar       1 <1>        0.000
     14 H          -7.5702    1.1224    0.0100 H.spc      1 <1>        0.000
     15 H          -6.2621    1.8280   -1.9869 H.spc      1 <1>        0.000
     16 H          -6.5242    1.2045    2.2682 H.spc      1 <1>        0.000
     17 H          -3.9556    2.7123   -1.7126 H.spc      1 <1>        0.000
     18 H          -4.2410    2.1425    2.5421 H.spc      1 <1>        0.000
     19 H          -0.3493    4.3014    0.5021 H.spc      1 <1>        0.000
     20 H          -2.5511    0.6932   -0.3030 H.spc      1 <1>        0.000
     21 H           1.7497    3.1661   -0.1852 H.spc      1 <1>        0.000
     22 H          -0.4230   -0.5100   -0.7401 H.spc      1 <1>        0.000
     23 H           1.7359    0.7276   -0.6931 H.spc      1 <1>        0.000
@<TRIPOS>BOND
     1    2    4 ar 
     2    9   11 ar 
     3    8   10 ar 
     4    6    7 1  
     5    3    5 ar 
     6   11   13 ar 
     7   12   13 ar 
     8    5    6 ar 
     9   10   12 ar 
    10    1    2 ar 
    11    1    3 ar 
    12    4    6 ar 
    13    8    9 ar 
    14    7    8 1  
    15    1   14 1  
    16    2   15 1  
    17    3   16 1  
    18    4   17 1  
    19    5   18 1  
    20    9   19 1  
    21   10   20 1  
    22   11   21 1  
    23   12   22 1  
    24   13   23 1  
# Name:          frag5-565-151/138278
# Creation time: Sat Jun  5 12:53:44 2010


@<TRIPOS>MOLECULE
frag5-565-151/138278
   23    24     1     1     1
SMALL
USER_CHARGES


@<TRIPOS>ATOM
      1 C24        -6.4534    1.5322   -0.1826 C.ar       1 <1>        0.000
      2 C29        -6.0385    1.3642    1.1421 C.ar       1 <1>        0.000
      3 C30        -5.6658    2.2702   -1.0705 C.ar       1 <1>        0.000
      4 C34        -4.8191    1.8998    1.5663 C.ar       1 <1>        0.000
      5 C35        -4.4396    2.7889   -0.6470 C.ar       1 <1>        0.000
      6 C38        -3.9861    2.5619    0.6559 C.ar       1 <1>        0.000
      7 O8         -2.7121    2.9961    1.0289 O.3        1 <1>        0.000
      8 C39        -1.5866    2.4248    0.4158 C.ar       1 <1>        0.000
      9 C40        -0.7614    3.2218   -0.3861 C.ar       1 <1>        0.000
     10 C41        -1.2713    1.0689    0.5761 C.ar       1 <1>        0.000
     11 C42         0.3886    2.6855   -0.9743 C.ar       1 <1>        0.000
     12 C43        -0.0833    0.5505    0.0532 C.ar       1 <1>        0.000
     13 C44         0.7497    1.3586   -0.7236 C.ar       1 <1>        0.000
     14 H          -7.3893    1.0884   -0.5221 H.spc      1 <1>        0.000
     15 H          -6.6662    0.8154    1.8442 H.spc      1 <1>        0.000
     16 H          -6.0075    2.4408   -2.0914 H.spc      1 <1>        0.000
     17 H          -4.5157    1.8018    2.6086 H.spc      1 <1>        0.000
     18 H          -3.8323    3.3746   -1.3371 H.spc      1 <1>        0.000
     19 H          -1.0169    4.2681   -0.5534 H.spc      1 <1>        0.000
     20 H          -1.9576    0.4136    1.1125 H.spc      1 <1>        0.000
     21 H           1.0039    3.3028   -1.6288 H.spc      1 <1>        0.000
     22 H           0.1932   -0.4850    0.2518 H.spc      1 <1>        0.000
     23 H           1.6768    0.9566   -1.1323 H.spc      1 <1>        0.000
@<TRIPOS>BOND
     1    2    4 ar 
     2    9   11 ar 
     3    8   10 ar 
     4    6    7 1  
     5    3    5 ar 
     6   11   13 ar 
     7   12   13 ar 
     8    5    6 ar 
     9   10   12 ar 
    10    1    2 ar 
    11    1    3 ar 
    12    4    6 ar 
    13    8    9 ar 
    14    7    8 1  
    15    1   14 1  
    16    2   15 1  
    17    3   16 1  
    18    4   17 1  
    19    5   18 1  
    20    9   19 1  
    21   10   20 1  
    22   11   21 1  
    23   12   22 1  
    24   13   23 1  
# Name:          frag5-565-151/138278 -- energy: -1.247573
# Creation time: Sat Jun  5 12:53:44 2010


@<TRIPOS>MOLECULE
frag5-565-151/138278 -- energy: -1.247573
   23    24     1     1     1
SMALL
USER_CHARGES


@<TRIPOS>ATOM
      1 C24         0.7300    1.0989    0.1724 C.ar       1 <1>        0.000
      2 C29        -0.3532    0.5594   -0.5281 C.ar       1 <1>        0.000
      3 C30         0.6705    2.4142    0.6410 C.ar       1 <1>        0.000
      4 C34        -1.5083    1.3212   -0.7241 C.ar       1 <1>        0.000
      5 C35        -0.4926    3.1660    0.4579 C.ar       1 <1>        0.000
      6 C38        -1.6057    2.6075   -0.1775 C.ar       1 <1>        0.000
      7 O8         -2.7943    3.3353   -0.2569 O.3        1 <1>        0.000
      8 C39        -4.0076    2.7021    0.0487 C.ar       1 <1>        0.000
      9 C40        -5.0870    2.8180   -0.8351 C.ar       1 <1>        0.000
     10 C41        -4.1737    1.9598    1.2261 C.ar       1 <1>        0.000
     11 C42        -6.2933    2.1608   -0.5734 C.ar       1 <1>        0.000
     12 C43        -5.3504    1.2405    1.4517 C.ar       1 <1>        0.000
     13 C44        -6.4134    1.3397    0.5514 C.ar       1 <1>        0.000
     14 H           1.6192    0.4947    0.3527 H.spc      1 <1>        0.000
     15 H          -0.2967   -0.4556   -0.9214 H.spc      1 <1>        0.000
     16 H           1.5299    2.8526    1.1483 H.spc      1 <1>        0.000
     17 H          -2.3361    0.9133   -1.3041 H.spc      1 <1>        0.000
     18 H          -0.5326    4.1957    0.8131 H.spc      1 <1>        0.000
     19 H          -4.9864    3.4254   -1.7345 H.spc      1 <1>        0.000
     20 H          -3.3787    1.9435    1.9716 H.spc      1 <1>        0.000
     21 H          -7.1406    2.2889   -1.2471 H.spc      1 <1>        0.000
     22 H          -5.4386    0.6019    2.3306 H.spc      1 <1>        0.000
     23 H          -7.3322    0.7796    0.7250 H.spc      1 <1>        0.000
@<TRIPOS>BOND
     1    2    4 ar 
     2    9   11 ar 
     3    8   10 ar 
     4    6    7 1  
     5    3    5 ar 
     6   11   13 ar 
     7   12   13 ar 
     8    5    6 ar 
     9   10   12 ar 
    10    1    2 ar 
    11    1    3 ar 
    12    4    6 ar 
    13    8    9 ar 
    14    7    8 1  
    15    1   14 1  
    16    2   15 1  
    17    3   16 1  
    18    4   17 1  
    19    5   18 1  
    20    9   19 1  
    21   10   20 1  
    22   11   21 1  
    23   12   22 1  
    24   13   23 1  
# Name:          frag5-565-151/138278 -- energy: -1.016959
# Creation time: Sat Jun  5 12:53:44 2010


@<TRIPOS>MOLECULE
frag5-565-151/138278 -- energy: -1.016959
   23    24     1     1     1
SMALL
USER_CHARGES


@<TRIPOS>ATOM
      1 C24        -6.5536    1.4976    0.1279 C.ar       1 <1>        0.000
      2 C29        -5.8251    1.9104   -0.9918 C.ar       1 <1>        0.000
      3 C30        -5.9760    1.5669    1.3986 C.ar       1 <1>        0.000
      4 C34        -4.5369    2.4285   -0.8353 C.ar       1 <1>        0.000
      5 C35        -4.6948    2.1015    1.5519 C.ar       1 <1>        0.000
      6 C38        -3.9895    2.5846    0.4451 C.ar       1 <1>        0.000
      7 O8         -2.7559    3.2093    0.6298 O.3        1 <1>        0.000
      8 C39        -1.5865    2.5549    0.2199 C.ar       1 <1>        0.000
      9 C40        -0.3710    3.2496    0.2170 C.ar       1 <1>        0.000
     10 C41        -1.6009    1.2175   -0.2016 C.ar       1 <1>        0.000
     11 C42         0.8153    2.6061   -0.1484 C.ar       1 <1>        0.000
     12 C43        -0.4080    0.5514   -0.4926 C.ar       1 <1>        0.000
     13 C44         0.8037    1.2450   -0.4665 C.ar       1 <1>        0.000
     14 H          -7.5702    1.1224    0.0100 H.spc      1 <1>        0.000
     15 H          -6.2621    1.8280   -1.9869 H.spc      1 <1>        0.000
     16 H          -6.5242    1.2045    2.2682 H.spc      1 <1>        0.000
     17 H          -3.9556    2.7123   -1.7126 H.spc      1 <1>        0.000
     18 H          -4.2410    2.1425    2.5421 H.spc      1 <1>        0.000
     19 H          -0.3493    4.3014    0.5021 H.spc      1 <1>        0.000
     20 H          -2.5511    0.6932   -0.3030 H.spc      1 <1>        0.000
     21 H           1.7497    3.1661   -0.1852 H.spc      1 <1>        0.000
     22 H          -0.4230   -0.5100   -0.7401 H.spc      1 <1>        0.000
     23 H           1.7359    0.7276   -0.6931 H.spc      1 <1>        0.000
@<TRIPOS>BOND
     1    2    4 ar 
     2    9   11 ar 
     3    8   10 ar 
     4    6    7 1  
     5    3    5 ar 
     6   11   13 ar 
     7   12   13 ar 
     8    5    6 ar 
     9   10   12 ar 
    10    1    2 ar 
    11    1    3 ar 
    12    4    6 ar 
    13    8    9 ar 
    14    7    8 1  
    15    1   14 1  
    16    2   15 1  
    17    3   16 1  
    18    4   17 1  
    19    5   18 1  
    20    9   19 1  
    21   10   20 1  
    22   11   21 1  
    23   12   22 1  
    24   13   23 1  
# Name:          frag5-565-151/138278 -- energy: -1.301470
# Creation time: Sat Jun  5 12:53:44 2010


@<TRIPOS>MOLECULE
frag5-565-151/138278 -- energy: -1.301470
   23    24     1     1     1
SMALL
USER_CHARGES


@<TRIPOS>ATOM
      1 C24        -6.4534    1.5322   -0.1826 C.ar       1 <1>        0.000
      2 C29        -6.0385    1.3642    1.1421 C.ar       1 <1>        0.000
      3 C30        -5.6658    2.2702   -1.0705 C.ar       1 <1>        0.000
      4 C34        -4.8191    1.8998    1.5663 C.ar       1 <1>        0.000
      5 C35        -4.4396    2.7889   -0.6470 C.ar       1 <1>        0.000
      6 C38        -3.9861    2.5619    0.6559 C.ar       1 <1>        0.000
      7 O8         -2.7121    2.9961    1.0289 O.3        1 <1>        0.000
      8 C39        -1.5866    2.4248    0.4158 C.ar       1 <1>        0.000
      9 C40        -0.7614    3.2218   -0.3861 C.ar       1 <1>        0.000
     10 C41        -1.2713    1.0689    0.5761 C.ar       1 <1>        0.000
     11 C42         0.3886    2.6855   -0.9743 C.ar       1 <1>        0.000
     12 C43        -0.0833    0.5505    0.0532 C.ar       1 <1>        0.000
     13 C44         0.7497    1.3586   -0.7236 C.ar       1 <1>        0.000
     14 H          -7.3893    1.0884   -0.5221 H.spc      1 <1>        0.000
     15 H          -6.6662    0.8154    1.8442 H.spc      1 <1>        0.000
     16 H          -6.0075    2.4408   -2.0914 H.spc      1 <1>        0.000
     17 H          -4.5157    1.8018    2.6086 H.spc      1 <1>        0.000
     18 H          -3.8323    3.3746   -1.3371 H.spc      1 <1>        0.000
     19 H          -1.0169    4.2681   -0.5534 H.spc      1 <1>        0.000
     20 H          -1.9576    0.4136    1.1125 H.spc      1 <1>        0.000
     21 H           1.0039    3.3028   -1.6288 H.spc      1 <1>        0.000
     22 H           0.1932   -0.4850    0.2518 H.spc      1 <1>        0.000
     23 H           1.6768    0.9566   -1.1323 H.spc      1 <1>        0.000
@<TRIPOS>BOND
     1    2    4 ar 
     2    9   11 ar 
     3    8   10 ar 
     4    6    7 1  
     5    3    5 ar 
     6   11   13 ar 
     7   12   13 ar 
     8    5    6 ar 
     9   10   12 ar 
    10    1    2 ar 
    11    1    3 ar 
    12    4    6 ar 
    13    8    9 ar 
    14    7    8 1  
    15    1   14 1  
    16    2   15 1  
    17    3   16 1  
    18    4   17 1  
    19    5   18 1  
    20    9   19 1  
    21   10   20 1  
    22   11   21 1  
    23   12   22 1  
    24   13   23 1  
