#      Rotatable Fragment
#      Build by yxyuan
#
# Name:          frag4-397-62/48856
# Creation time: Sat Jun  5 12:53:46 2010


@<TRIPOS>MOLECULE
frag4-397-62/48856
   23    25     1     1     1
SMALL
USER_CHARGES


@<TRIPOS>ATOM
      1 O1          0.1192   -1.3813   -0.0017 O.3        1 <1>        0.000
      2 C1          1.1991   -0.6752   -0.0141 C.ar       1 <1>        0.000
      3 C2          1.1472    0.8522    0.0333 C.ar       1 <1>        0.000
      4 C3          2.3789    1.6046    0.0423 C.ar       1 <1>        0.000
      5 C4          3.5510    0.9500   -0.0287 C.ar       1 <1>        0.000
      6 C5          3.6468   -0.4779   -0.0956 C.ar       1 <1>        0.000
      7 C6          2.5631   -1.2725   -0.0808 C.ar       1 <1>        0.000
      8 C8         -0.0738    1.3545    0.0536 C.ar       1 <1>        0.000
      9 C9         -1.2855    0.5487    0.0404 C.ar       1 <1>        0.000
     10 C10        -1.1168   -0.8670    0.0149 C.ar       1 <1>        0.000
     11 C11        -2.2294   -1.7161    0.0063 C.ar       1 <1>        0.000
     12 C12        -3.5313   -1.2387    0.0095 C.ar       1 <1>        0.000
     13 C13        -3.7262    0.1276    0.0272 C.ar       1 <1>        0.000
     14 C14        -2.6201    0.9989    0.0412 C.ar       1 <1>        0.000
     15 H           2.3589    2.6926    0.1060 H.spc      1 <1>        0.000
     16 H           4.4719    1.5331   -0.0357 H.spc      1 <1>        0.000
     17 H           4.6337   -0.9360   -0.1608 H.spc      1 <1>        0.000
     18 H           2.6818   -2.3554   -0.1176 H.spc      1 <1>        0.000
     19 H          -0.1806    2.4389    0.0820 H.spc      1 <1>        0.000
     20 H          -2.0663   -2.7938   -0.0033 H.spc      1 <1>        0.000
     21 H          -4.3785   -1.9244   -0.0017 H.spc      1 <1>        0.000
     22 H          -4.7381    0.5328    0.0303 H.spc      1 <1>        0.000
     23 H          -2.8055    2.0729    0.0532 H.spc      1 <1>        0.000
@<TRIPOS>BOND
     1    2    7 ar 
     2    9   10 ar 
     3    1    2 ar 
     4    3    4 ar 
     5    1   10 ar 
     6    3    8 ar 
     7    9   14 ar 
     8   10   11 ar 
     9    4    5 ar 
    10   12   13 ar 
    11    2    3 ar 
    12    6    7 ar 
    13   11   12 ar 
    14    5    6 ar 
    15   13   14 ar 
    16    8    9 ar 
    17    4   15 1  
    18    5   16 1  
    19    6   17 1  
    20    7   18 1  
    21    8   19 1  
    22   11   20 1  
    23   12   21 1  
    24   13   22 1  
    25   14   23 1  
# Name:          frag4-397-62/48856 -- energy: -0.868838
# Creation time: Sat Jun  5 12:53:47 2010


@<TRIPOS>MOLECULE
frag4-397-62/48856 -- energy: -0.868838
   23    25     1     1     1
SMALL
USER_CHARGES


@<TRIPOS>ATOM
      1 O1          0.1192   -1.3813   -0.0017 O.3        1 <1>        0.000
      2 C1          1.1991   -0.6752   -0.0141 C.ar       1 <1>        0.000
      3 C2          1.1472    0.8522    0.0333 C.ar       1 <1>        0.000
      4 C3          2.3789    1.6046    0.0423 C.ar       1 <1>        0.000
      5 C4          3.5510    0.9500   -0.0287 C.ar       1 <1>        0.000
      6 C5          3.6468   -0.4779   -0.0956 C.ar       1 <1>        0.000
      7 C6          2.5631   -1.2725   -0.0808 C.ar       1 <1>        0.000
      8 C8         -0.0738    1.3545    0.0536 C.ar       1 <1>        0.000
      9 C9         -1.2855    0.5487    0.0404 C.ar       1 <1>        0.000
     10 C10        -1.1168   -0.8670    0.0149 C.ar       1 <1>        0.000
     11 C11        -2.2294   -1.7161    0.0063 C.ar       1 <1>        0.000
     12 C12        -3.5313   -1.2387    0.0095 C.ar       1 <1>        0.000
     13 C13        -3.7262    0.1276    0.0272 C.ar       1 <1>        0.000
     14 C14        -2.6201    0.9989    0.0412 C.ar       1 <1>        0.000
     15 H           2.3589    2.6926    0.1060 H.spc      1 <1>        0.000
     16 H           4.4719    1.5331   -0.0357 H.spc      1 <1>        0.000
     17 H           4.6337   -0.9360   -0.1608 H.spc      1 <1>        0.000
     18 H           2.6818   -2.3554   -0.1176 H.spc      1 <1>        0.000
     19 H          -0.1806    2.4389    0.0820 H.spc      1 <1>        0.000
     20 H          -2.0663   -2.7938   -0.0033 H.spc      1 <1>        0.000
     21 H          -4.3785   -1.9244   -0.0017 H.spc      1 <1>        0.000
     22 H          -4.7381    0.5328    0.0303 H.spc      1 <1>        0.000
     23 H          -2.8055    2.0729    0.0532 H.spc      1 <1>        0.000
@<TRIPOS>BOND
     1    2    7 ar 
     2    9   10 ar 
     3    1    2 ar 
     4    3    4 ar 
     5    1   10 ar 
     6    3    8 ar 
     7    9   14 ar 
     8   10   11 ar 
     9    4    5 ar 
    10   12   13 ar 
    11    2    3 ar 
    12    6    7 ar 
    13   11   12 ar 
    14    5    6 ar 
    15   13   14 ar 
    16    8    9 ar 
    17    4   15 1  
    18    5   16 1  
    19    6   17 1  
    20    7   18 1  
    21    8   19 1  
    22   11   20 1  
    23   12   21 1  
    24   13   22 1  
    25   14   23 1  
