#      Rotatable Fragment
#      Build by yxyuan
#
# Name:          frag4-392-65/48856
# Creation time: Sat Jun  5 12:53:44 2010


@<TRIPOS>MOLECULE
frag4-392-65/48856
   12    12     1     1     1
SMALL
USER_CHARGES


@<TRIPOS>ATOM
      1 C18         2.9058    0.3265    1.0072 C.3        1 <1>        0.000
      2 C19         3.4821    0.7612    2.3579 C.3        1 <1>        0.000
      3 C20         2.0609    1.0227    2.8650 C.3        1 <1>        0.000
      4 C21         1.5356    0.8604    1.4355 C.3        1 <1>        0.000
      5 H           3.0133   -0.7043    0.6696 H.spc      1 <1>        0.000
      6 H           3.3633    0.6680    0.0786 H.spc      1 <1>        0.000
      7 H           4.2364    1.5465    2.4066 H.spc      1 <1>        0.000
      8 H           4.1495    0.0991    2.9096 H.spc      1 <1>        0.000
      9 H           1.8374    1.9253    3.4337 H.spc      1 <1>        0.000
     10 H           1.6467    0.4217    3.6745 H.spc      1 <1>        0.000
     11 H           0.6342    0.2783    1.2437 H.spc      1 <1>        0.000
     12 H           1.0880    1.7069    0.9147 H.spc      1 <1>        0.000
@<TRIPOS>BOND
     1    1    2 1  
     2    1    4 1  
     3    2    3 1  
     4    3    4 1  
     5    1    5 1  
     6    1    6 1  
     7    2    7 1  
     8    2    8 1  
     9    3    9 1  
    10    3   10 1  
    11    4   11 1  
    12    4   12 1  
# Name:          frag4-392-65/48856 -- energy: -0.501995
# Creation time: Sat Jun  5 12:53:44 2010


@<TRIPOS>MOLECULE
frag4-392-65/48856 -- energy: -0.501995
   12    12     1     1     1
SMALL
USER_CHARGES


@<TRIPOS>ATOM
      1 C18         2.9058    0.3265    1.0072 C.3        1 <1>        0.000
      2 C19         3.4821    0.7612    2.3579 C.3        1 <1>        0.000
      3 C20         2.0609    1.0227    2.8650 C.3        1 <1>        0.000
      4 C21         1.5356    0.8604    1.4355 C.3        1 <1>        0.000
      5 H           3.0133   -0.7043    0.6696 H.spc      1 <1>        0.000
      6 H           3.3633    0.6680    0.0786 H.spc      1 <1>        0.000
      7 H           4.2364    1.5465    2.4066 H.spc      1 <1>        0.000
      8 H           4.1495    0.0991    2.9096 H.spc      1 <1>        0.000
      9 H           1.8374    1.9253    3.4337 H.spc      1 <1>        0.000
     10 H           1.6467    0.4217    3.6745 H.spc      1 <1>        0.000
     11 H           0.6342    0.2783    1.2437 H.spc      1 <1>        0.000
     12 H           1.0880    1.7069    0.9147 H.spc      1 <1>        0.000
@<TRIPOS>BOND
     1    1    2 1  
     2    1    4 1  
     3    2    3 1  
     4    3    4 1  
     5    1    5 1  
     6    1    6 1  
     7    2    7 1  
     8    2    8 1  
     9    3    9 1  
    10    3   10 1  
    11    4   11 1  
    12    4   12 1  
