#      Rotatable Fragment
#      Build by yxyuan
#
# Name:          frag4-334-587/150395
# Creation time: Sat Jun  5 12:53:31 2010


@<TRIPOS>MOLECULE
frag4-334-587/150395
   15    15     1     1     1
SMALL
USER_CHARGES


@<TRIPOS>ATOM
      1 N6         -2.9939   -0.1346    0.5500 N.3        1 <1>        0.000
      2 C24        -4.2817    0.4256    0.9001 C.3        1 <1>        0.000
      3 C25        -2.8635   -1.4674    0.0530 C.3        1 <1>        0.000
      4 C29        -5.4030   -0.3564    0.1865 C.3        1 <1>        0.000
      5 C30        -4.0241   -2.3337    0.5904 C.3        1 <1>        0.000
      6 O6         -5.2741   -1.7281    0.3869 O.3        1 <1>        0.000
      7 H          -2.6821    0.4452   -0.2291 H.spc      1 <1>        0.000
      8 H          -4.3168    1.4699    0.5897 H.spc      1 <1>        0.000
      9 H          -4.4238    0.3559    1.9785 H.spc      1 <1>        0.000
     10 H          -1.9136   -1.8871    0.3840 H.spc      1 <1>        0.000
     11 H          -2.8950   -1.4534   -1.0365 H.spc      1 <1>        0.000
     12 H          -5.3379   -0.1556   -0.8829 H.spc      1 <1>        0.000
     13 H          -6.3616   -0.0360    0.5946 H.spc      1 <1>        0.000
     14 H          -3.8811   -2.4657    1.6629 H.spc      1 <1>        0.000
     15 H          -4.0154   -3.2832    0.0551 H.spc      1 <1>        0.000
@<TRIPOS>BOND
     1    1    3 1  
     2    1    2 1  
     3    2    4 1  
     4    3    5 1  
     5    4    6 1  
     6    5    6 1  
     7    1    7 1  
     8    2    8 1  
     9    2    9 1  
    10    3   10 1  
    11    3   11 1  
    12    4   12 1  
    13    4   13 1  
    14    5   14 1  
    15    5   15 1  
# Name:          frag4-334-587/150395 -- energy: -0.701073
# Creation time: Sat Jun  5 12:53:31 2010


@<TRIPOS>MOLECULE
frag4-334-587/150395 -- energy: -0.701073
   15    15     1     1     1
SMALL
USER_CHARGES


@<TRIPOS>ATOM
      1 N6         -2.9939   -0.1346    0.5500 N.3        1 <1>        0.000
      2 C24        -4.2817    0.4256    0.9001 C.3        1 <1>        0.000
      3 C25        -2.8635   -1.4674    0.0530 C.3        1 <1>        0.000
      4 C29        -5.4030   -0.3564    0.1865 C.3        1 <1>        0.000
      5 C30        -4.0241   -2.3337    0.5904 C.3        1 <1>        0.000
      6 O6         -5.2741   -1.7281    0.3869 O.3        1 <1>        0.000
      7 H          -2.6821    0.4452   -0.2291 H.spc      1 <1>        0.000
      8 H          -4.3168    1.4699    0.5897 H.spc      1 <1>        0.000
      9 H          -4.4238    0.3559    1.9785 H.spc      1 <1>        0.000
     10 H          -1.9136   -1.8871    0.3840 H.spc      1 <1>        0.000
     11 H          -2.8950   -1.4534   -1.0365 H.spc      1 <1>        0.000
     12 H          -5.3379   -0.1556   -0.8829 H.spc      1 <1>        0.000
     13 H          -6.3616   -0.0360    0.5946 H.spc      1 <1>        0.000
     14 H          -3.8811   -2.4657    1.6629 H.spc      1 <1>        0.000
     15 H          -4.0154   -3.2832    0.0551 H.spc      1 <1>        0.000
@<TRIPOS>BOND
     1    1    3 1  
     2    1    2 1  
     3    2    4 1  
     4    3    5 1  
     5    4    6 1  
     6    5    6 1  
     7    1    7 1  
     8    2    8 1  
     9    2    9 1  
    10    3   10 1  
    11    3   11 1  
    12    4   12 1  
    13    4   13 1  
    14    5   14 1  
    15    5   15 1  
