#      Rotatable Fragment
#      Build by yxyuan
#
# Name:          frag4-438-125/150395
# Creation time: Sat Jun  5 12:53:35 2010


@<TRIPOS>MOLECULE
frag4-438-125/150395
   12    12     1     1     1
SMALL
USER_CHARGES


@<TRIPOS>ATOM
      1 N3          0.9307    0.8433    0.0402 N.3        1 <1>        0.000
      2 C53        -0.4347    1.0552    0.0920 C.3        1 <1>        0.000
      3 C54         1.0113   -0.5325   -0.0686 C.3        1 <1>        0.000
      4 C56        -1.1953   -0.1785    0.0185 C.2        1 <1>        0.000
      5 C57        -0.2924   -1.1698   -0.0808 C.2        1 <1>        0.000
      6 H           1.4251    1.2113    0.8530 H.spc      1 <1>        0.000
      7 H          -0.7109    1.6705   -0.7643 H.spc      1 <1>        0.000
      8 H          -0.6635    1.5336    1.0443 H.spc      1 <1>        0.000
      9 H           1.5584   -0.9055    0.7972 H.spc      1 <1>        0.000
     10 H           1.5069   -0.7655   -1.0110 H.spc      1 <1>        0.000
     11 H          -2.2803   -0.2809    0.0396 H.spc      1 <1>        0.000
     12 H          -0.4983   -2.2376   -0.1555 H.spc      1 <1>        0.000
@<TRIPOS>BOND
     1    1    2 1  
     2    1    3 1  
     3    2    4 1  
     4    3    5 1  
     5    4    5 2  
     6    1    6 1  
     7    2    7 1  
     8    2    8 1  
     9    3    9 1  
    10    3   10 1  
    11    4   11 1  
    12    5   12 1  
# Name:          frag4-438-125/150395 -- energy: -0.569567
# Creation time: Sat Jun  5 12:53:35 2010


@<TRIPOS>MOLECULE
frag4-438-125/150395 -- energy: -0.569567
   12    12     1     1     1
SMALL
USER_CHARGES


@<TRIPOS>ATOM
      1 N3          0.9307    0.8433    0.0402 N.3        1 <1>        0.000
      2 C53        -0.4347    1.0552    0.0920 C.3        1 <1>        0.000
      3 C54         1.0113   -0.5325   -0.0686 C.3        1 <1>        0.000
      4 C56        -1.1953   -0.1785    0.0185 C.2        1 <1>        0.000
      5 C57        -0.2924   -1.1698   -0.0808 C.2        1 <1>        0.000
      6 H           1.4251    1.2113    0.8530 H.spc      1 <1>        0.000
      7 H          -0.7109    1.6705   -0.7643 H.spc      1 <1>        0.000
      8 H          -0.6635    1.5336    1.0443 H.spc      1 <1>        0.000
      9 H           1.5584   -0.9055    0.7972 H.spc      1 <1>        0.000
     10 H           1.5069   -0.7655   -1.0110 H.spc      1 <1>        0.000
     11 H          -2.2803   -0.2809    0.0396 H.spc      1 <1>        0.000
     12 H          -0.4983   -2.2376   -0.1555 H.spc      1 <1>        0.000
@<TRIPOS>BOND
     1    1    2 1  
     2    1    3 1  
     3    2    4 1  
     4    3    5 1  
     5    4    5 2  
     6    1    6 1  
     7    2    7 1  
     8    2    8 1  
     9    3    9 1  
    10    3   10 1  
    11    4   11 1  
    12    5   12 1  
