#      Rotatable Fragment
#      Build by yxyuan
#
# Name:          frag3-161-11/31924
# Creation time: Sat Jun  5 12:52:05 2010


@<TRIPOS>MOLECULE
frag3-161-11/31924
    7     6     1     1     1
SMALL
USER_CHARGES


@<TRIPOS>ATOM
      1 S1          1.4418   -0.7526    0.2992 S.3        1 <1>        0.000
      2 C6          0.1348    0.3445    0.0181 C.2        1 <1>        0.000
      3 O1          0.1762    1.5269    0.2953 O.2        1 <1>        0.000
      4 N1         -1.0036   -0.1504   -0.5519 N.am       1 <1>        0.000
      5 H           1.0927   -1.9694   -0.1087 H.spc      1 <1>        0.000
      6 H          -1.7930    0.4690   -0.7352 H.spc      1 <1>        0.000
      7 H          -1.0643   -1.1393   -0.7943 H.spc      1 <1>        0.000
@<TRIPOS>BOND
     1    2    3 2  
     2    1    2 1  
     3    2    4 am 
     4    1    5 1  
     5    4    6 1  
     6    4    7 1  
# Name:          frag3-161-11/31924 -- energy: -0.189185
# Creation time: Sat Jun  5 12:52:05 2010


@<TRIPOS>MOLECULE
frag3-161-11/31924 -- energy: -0.189185
    7     6     1     1     1
SMALL
USER_CHARGES


@<TRIPOS>ATOM
      1 S1          1.4418   -0.7526    0.2992 S.3        1 <1>        0.000
      2 C6          0.1348    0.3445    0.0181 C.2        1 <1>        0.000
      3 O1          0.1762    1.5269    0.2953 O.2        1 <1>        0.000
      4 N1         -1.0036   -0.1504   -0.5519 N.am       1 <1>        0.000
      5 H           1.0927   -1.9694   -0.1087 H.spc      1 <1>        0.000
      6 H          -1.7930    0.4690   -0.7352 H.spc      1 <1>        0.000
      7 H          -1.0643   -1.1393   -0.7943 H.spc      1 <1>        0.000
@<TRIPOS>BOND
     1    2    3 2  
     2    1    2 1  
     3    2    4 am 
     4    1    5 1  
     5    4    6 1  
     6    4    7 1  
