#      Rotatable Fragment
#      Build by yxyuan
#
# Name:          frag2-051-17/92655
# Creation time: Sat Jun  5 12:51:57 2010


@<TRIPOS>MOLECULE
frag2-051-17/92655
   14    15     1     1     1
SMALL
USER_CHARGES


@<TRIPOS>ATOM
      1 C5         -2.3351    0.7196    0.0595 C.ar       1 <1>        0.000
      2 N2         -1.1625    1.3517    0.2319 N.ar       1 <1>        0.000
      3 C6          0.0108    0.6901    0.1407 C.ar       1 <1>        0.000
      4 C7         -0.0128   -0.6910   -0.1424 C.ar       1 <1>        0.000
      5 N3          1.1609   -1.3543   -0.2358 N.ar       1 <1>        0.000
      6 C8          2.3361   -0.7179   -0.0608 C.ar       1 <1>        0.000
      7 N4          2.3790    0.6094    0.2136 N.ar       1 <1>        0.000
      8 C9          1.2392    1.3048    0.3130 C.ar       1 <1>        0.000
      9 C20        -1.2388   -1.3063   -0.3115 C.ar       1 <1>        0.000
     10 N7         -2.3806   -0.6076   -0.2140 N.ar       1 <1>        0.000
     11 H          -3.2649    1.2826    0.1408 H.spc      1 <1>        0.000
     12 H           3.2670   -1.2792   -0.1411 H.spc      1 <1>        0.000
     13 H           1.2791    2.3716    0.5330 H.spc      1 <1>        0.000
     14 H          -1.2790   -2.3740   -0.5271 H.spc      1 <1>        0.000
@<TRIPOS>BOND
     1    1    2 ar 
     2    2    3 ar 
     3    1   10 ar 
     4    3    4 ar 
     5    3    8 ar 
     6    4    5 ar 
     7    4    9 ar 
     8    5    6 ar 
     9    6    7 ar 
    10    7    8 ar 
    11    9   10 ar 
    12    1   11 1  
    13    6   12 1  
    14    8   13 1  
    15    9   14 1  
# Name:          frag2-051-17/92655 -- energy: 0.296248
# Creation time: Sat Jun  5 12:51:57 2010


@<TRIPOS>MOLECULE
frag2-051-17/92655 -- energy: 0.296248
   14    15     1     1     1
SMALL
USER_CHARGES


@<TRIPOS>ATOM
      1 C5         -2.3351    0.7196    0.0595 C.ar       1 <1>        0.000
      2 N2         -1.1625    1.3517    0.2319 N.ar       1 <1>        0.000
      3 C6          0.0108    0.6901    0.1407 C.ar       1 <1>        0.000
      4 C7         -0.0128   -0.6910   -0.1424 C.ar       1 <1>        0.000
      5 N3          1.1609   -1.3543   -0.2358 N.ar       1 <1>        0.000
      6 C8          2.3361   -0.7179   -0.0608 C.ar       1 <1>        0.000
      7 N4          2.3790    0.6094    0.2136 N.ar       1 <1>        0.000
      8 C9          1.2392    1.3048    0.3130 C.ar       1 <1>        0.000
      9 C20        -1.2388   -1.3063   -0.3115 C.ar       1 <1>        0.000
     10 N7         -2.3806   -0.6076   -0.2140 N.ar       1 <1>        0.000
     11 H          -3.2649    1.2826    0.1408 H.spc      1 <1>        0.000
     12 H           3.2670   -1.2792   -0.1411 H.spc      1 <1>        0.000
     13 H           1.2791    2.3716    0.5330 H.spc      1 <1>        0.000
     14 H          -1.2790   -2.3740   -0.5271 H.spc      1 <1>        0.000
@<TRIPOS>BOND
     1    1    2 ar 
     2    2    3 ar 
     3    1   10 ar 
     4    3    4 ar 
     5    3    8 ar 
     6    4    5 ar 
     7    4    9 ar 
     8    5    6 ar 
     9    6    7 ar 
    10    7    8 ar 
    11    9   10 ar 
    12    1   11 1  
    13    6   12 1  
    14    8   13 1  
    15    9   14 1  
