#      Rotatable Fragment
#      Build by yxyuan
#
# Name:          frag2-046-51/92655
# Creation time: Sat Jun  5 12:51:57 2010


@<TRIPOS>MOLECULE
frag2-046-51/92655
   10    10     1     1     1
SMALL
USER_CHARGES


@<TRIPOS>ATOM
      1 C7          1.3829    0.3443    0.0116 C.ar       1 <1>        0.000
      2 N2          0.7906    1.5504    0.0743 N.ar       1 <1>        0.000
      3 N3         -0.5940    1.6357    0.0865 N.ar       1 <1>        0.000
      4 C8         -1.3319    0.5115    0.0292 C.ar       1 <1>        0.000
      5 C9         -0.7433   -0.7394   -0.0304 C.ar       1 <1>        0.000
      6 C10         0.6451   -0.8237   -0.0460 C.ar       1 <1>        0.000
      7 H           2.4713    0.2863    0.0061 H.spc      1 <1>        0.000
      8 H          -2.4192    0.5883    0.0298 H.spc      1 <1>        0.000
      9 H          -1.3554   -1.6407   -0.0644 H.spc      1 <1>        0.000
     10 H           1.1420   -1.7922   -0.1026 H.spc      1 <1>        0.000
@<TRIPOS>BOND
     1    1    2 ar 
     2    1    6 ar 
     3    2    3 ar 
     4    3    4 ar 
     5    4    5 ar 
     6    5    6 ar 
     7    1    7 1  
     8    4    8 1  
     9    5    9 1  
    10    6   10 1  
# Name:          frag2-046-51/92655 -- energy: 0.257952
# Creation time: Sat Jun  5 12:51:57 2010


@<TRIPOS>MOLECULE
frag2-046-51/92655 -- energy: 0.257952
   10    10     1     1     1
SMALL
USER_CHARGES


@<TRIPOS>ATOM
      1 C7          1.3829    0.3443    0.0116 C.ar       1 <1>        0.000
      2 N2          0.7906    1.5504    0.0743 N.ar       1 <1>        0.000
      3 N3         -0.5940    1.6357    0.0865 N.ar       1 <1>        0.000
      4 C8         -1.3319    0.5115    0.0292 C.ar       1 <1>        0.000
      5 C9         -0.7433   -0.7394   -0.0304 C.ar       1 <1>        0.000
      6 C10         0.6451   -0.8237   -0.0460 C.ar       1 <1>        0.000
      7 H           2.4713    0.2863    0.0061 H.spc      1 <1>        0.000
      8 H          -2.4192    0.5883    0.0298 H.spc      1 <1>        0.000
      9 H          -1.3554   -1.6407   -0.0644 H.spc      1 <1>        0.000
     10 H           1.1420   -1.7922   -0.1026 H.spc      1 <1>        0.000
@<TRIPOS>BOND
     1    1    2 ar 
     2    1    6 ar 
     3    2    3 ar 
     4    3    4 ar 
     5    4    5 ar 
     6    5    6 ar 
     7    1    7 1  
     8    4    8 1  
     9    5    9 1  
    10    6   10 1  
