#      Rotatable Fragment
#      Build by yxyuan
#
# Name:          frag3-252-4/96164
# Creation time: Sat Jun  5 12:53:17 2010


@<TRIPOS>MOLECULE
frag3-252-4/96164
   14    13     1     1     1
SMALL
USER_CHARGES


@<TRIPOS>ATOM
      1 N3         -1.1899    1.0064    0.1278 N.pl3      1 <1>        0.000
      2 C18        -2.2916    0.2923   -0.1071 C.2        1 <1>        0.000
      3 C19        -3.5043    0.8474   -0.2828 C.2        1 <1>        0.000
      4 C20        -2.1662   -1.1871   -0.1506 C.2        1 <1>        0.000
      5 C21        -4.7528    0.1774   -0.5494 C.2        1 <1>        0.000
      6 O4         -1.0886   -1.6901   -0.7770 O.3        1 <1>        0.000
      7 O5         -2.9536   -1.9259    0.4166 O.2        1 <1>        0.000
      8 O6         -4.7592   -0.8983   -1.3230 O.3        1 <1>        0.000
      9 O7         -5.7912    0.6354   -0.0961 O.2        1 <1>        0.000
     10 H          -1.2432    2.0236    0.1814 H.spc      1 <1>        0.000
     11 H          -0.2940    0.5353    0.2538 H.spc      1 <1>        0.000
     12 H          -3.5483    1.9344   -0.2155 H.spc      1 <1>        0.000
     13 H          -0.5822   -0.9731   -1.1657 H.spc      1 <1>        0.000
     14 H          -3.8595   -1.1099   -1.5824 H.spc      1 <1>        0.000
@<TRIPOS>BOND
     1    1    2 1  
     2    2    3 2  
     3    2    4 1  
     4    3    5 1  
     5    4    7 2  
     6    4    6 1  
     7    5    8 1  
     8    5    9 2  
     9    1   10 1  
    10    1   11 1  
    11    3   12 1  
    12    6   13 1  
    13    8   14 1  
# Name:          frag3-252-4/96164
# Creation time: Sat Jun  5 12:53:17 2010


@<TRIPOS>MOLECULE
frag3-252-4/96164
   14    13     1     1     1
SMALL
USER_CHARGES


@<TRIPOS>ATOM
      1 N3         -1.1228    0.9991   -0.3841 N.pl3      1 <1>        0.000
      2 C18        -2.2601    0.2922   -0.3359 C.2        1 <1>        0.000
      3 C19        -3.4733    0.8253   -0.5739 C.2        1 <1>        0.000
      4 C20        -2.1876   -1.1697   -0.0280 C.2        1 <1>        0.000
      5 C21        -4.7454    0.1413   -0.5221 C.2        1 <1>        0.000
      6 O4         -1.1222   -1.5749    0.6854 O.3        1 <1>        0.000
      7 O5         -2.9889   -1.9906   -0.4420 O.2        1 <1>        0.000
      8 O6         -5.3353   -0.1142   -1.6848 O.3        1 <1>        0.000
      9 O7         -5.2617   -0.1511    0.5438 O.2        1 <1>        0.000
     10 H          -1.1495    1.9934   -0.6103 H.spc      1 <1>        0.000
     11 H          -0.2304    0.5430   -0.1946 H.spc      1 <1>        0.000
     12 H          -3.4988    1.8838   -0.8328 H.spc      1 <1>        0.000
     13 H          -0.5954   -0.8116    0.9332 H.spc      1 <1>        0.000
     14 H          -4.7730    0.1896   -2.4012 H.spc      1 <1>        0.000
@<TRIPOS>BOND
     1    1    2 1  
     2    2    3 2  
     3    2    4 1  
     4    3    5 1  
     5    4    7 2  
     6    4    6 1  
     7    5    8 1  
     8    5    9 2  
     9    1   10 1  
    10    1   11 1  
    11    3   12 1  
    12    6   13 1  
    13    8   14 1  
# Name:          frag3-252-4/96164
# Creation time: Sat Jun  5 12:53:17 2010


@<TRIPOS>MOLECULE
frag3-252-4/96164
   14    13     1     1     1
SMALL
USER_CHARGES


@<TRIPOS>ATOM
      1 N3         -1.1591    1.0323    0.0287 N.pl3      1 <1>        0.000
      2 C18        -2.2787    0.3113   -0.1412 C.2        1 <1>        0.000
      3 C19        -3.4652    0.8352   -0.5126 C.2        1 <1>        0.000
      4 C20        -2.2209   -1.1646    0.0976 C.2        1 <1>        0.000
      5 C21        -4.6966    0.1184   -0.7306 C.2        1 <1>        0.000
      6 O4         -1.4341   -1.8674   -0.7317 O.3        1 <1>        0.000
      7 O5         -2.7511   -1.7129    1.0432 O.2        1 <1>        0.000
      8 O6         -5.4040    0.4720   -1.8025 O.3        1 <1>        0.000
      9 O7         -5.0877   -0.7668    0.0075 O.2        1 <1>        0.000
     10 H          -1.1736    2.0406   -0.1247 H.spc      1 <1>        0.000
     11 H          -0.2939    0.5718    0.3112 H.spc      1 <1>        0.000
     12 H          -3.4958    1.9142   -0.6637 H.spc      1 <1>        0.000
     13 H          -1.0976   -1.2881   -1.4193 H.spc      1 <1>        0.000
     14 H          -4.9496    1.1798   -2.2652 H.spc      1 <1>        0.000
@<TRIPOS>BOND
     1    1    2 1  
     2    2    3 2  
     3    2    4 1  
     4    3    5 1  
     5    4    7 2  
     6    4    6 1  
     7    5    8 1  
     8    5    9 2  
     9    1   10 1  
    10    1   11 1  
    11    3   12 1  
    12    6   13 1  
    13    8   14 1  
# Name:          frag3-252-4/96164
# Creation time: Sat Jun  5 12:53:17 2010


@<TRIPOS>MOLECULE
frag3-252-4/96164
   14    13     1     1     1
SMALL
USER_CHARGES


@<TRIPOS>ATOM
      1 N3         -1.2442    0.9972    0.3867 N.pl3      1 <1>        0.000
      2 C18        -2.3087    0.2904    0.0042 C.2        1 <1>        0.000
      3 C19        -3.4892    0.8444   -0.3269 C.2        1 <1>        0.000
      4 C20        -2.1654   -1.1904    0.0046 C.2        1 <1>        0.000
      5 C21        -4.7034    0.1728   -0.7441 C.2        1 <1>        0.000
      6 O4         -2.5961   -1.8644   -1.0572 O.3        1 <1>        0.000
      7 O5         -1.6121   -1.7623    0.9377 O.2        1 <1>        0.000
      8 O6         -4.6323   -0.6389   -1.7880 O.3        1 <1>        0.000
      9 O7         -5.7460    0.4086   -0.1586 O.2        1 <1>        0.000
     10 H          -1.2997    2.0143    0.4401 H.spc      1 <1>        0.000
     11 H          -0.3747    0.5206    0.6258 H.spc      1 <1>        0.000
     12 H          -3.5382    1.9321   -0.2749 H.spc      1 <1>        0.000
     13 H          -2.9994   -1.2549   -1.6797 H.spc      1 <1>        0.000
     14 H          -3.7240   -0.6839   -2.0956 H.spc      1 <1>        0.000
@<TRIPOS>BOND
     1    1    2 1  
     2    2    3 2  
     3    2    4 1  
     4    3    5 1  
     5    4    7 2  
     6    4    6 1  
     7    5    8 1  
     8    5    9 2  
     9    1   10 1  
    10    1   11 1  
    11    3   12 1  
    12    6   13 1  
    13    8   14 1  
# Name:          frag3-252-4/96164
# Creation time: Sat Jun  5 12:53:17 2010


@<TRIPOS>MOLECULE
frag3-252-4/96164
   14    13     1     1     1
SMALL
USER_CHARGES


@<TRIPOS>ATOM
      1 N3         -1.3145    0.9884    0.6210 N.pl3      1 <1>        0.000
      2 C18        -2.3345    0.2704    0.1154 C.2        1 <1>        0.000
      3 C19        -3.5930    0.7383    0.0263 C.2        1 <1>        0.000
      4 C20        -2.0448   -1.0961   -0.4052 C.2        1 <1>        0.000
      5 C21        -4.7457    0.0978   -0.5340 C.2        1 <1>        0.000
      6 O4         -2.9587   -2.0477   -0.2928 O.3        1 <1>        0.000
      7 O5         -0.9581   -1.3473   -0.8857 O.2        1 <1>        0.000
      8 O6         -5.3773   -0.7891    0.2320 O.3        1 <1>        0.000
      9 O7         -5.1708    0.4428   -1.6185 O.2        1 <1>        0.000
     10 H          -1.4770    1.9365    0.9601 H.spc      1 <1>        0.000
     11 H          -0.3790    0.5844    0.6650 H.spc      1 <1>        0.000
     12 H          -3.7571    1.7358    0.4340 H.spc      1 <1>        0.000
     13 H          -3.7527   -1.6820    0.1040 H.spc      1 <1>        0.000
     14 H          -4.8797   -0.9225    1.0421 H.spc      1 <1>        0.000
@<TRIPOS>BOND
     1    1    2 1  
     2    2    3 2  
     3    2    4 1  
     4    3    5 1  
     5    4    7 2  
     6    4    6 1  
     7    5    8 1  
     8    5    9 2  
     9    1   10 1  
    10    1   11 1  
    11    3   12 1  
    12    6   13 1  
    13    8   14 1  
# Name:          frag3-252-4/96164
# Creation time: Sat Jun  5 12:53:17 2010


@<TRIPOS>MOLECULE
frag3-252-4/96164
   14    13     1     1     1
SMALL
USER_CHARGES


@<TRIPOS>ATOM
      1 N3         -1.1612    1.0196   -0.0174 N.pl3      1 <1>        0.000
      2 C18        -2.2717    0.2922   -0.1723 C.2        1 <1>        0.000
      3 C19        -3.4625    0.8413   -0.4804 C.2        1 <1>        0.000
      4 C20        -2.1467   -1.1929   -0.0165 C.2        1 <1>        0.000
      5 C21        -4.7174    0.1612   -0.6645 C.2        1 <1>        0.000
      6 O4         -3.1224   -1.8459    0.5995 O.3        1 <1>        0.000
      7 O5         -1.1261   -1.7504   -0.3955 O.2        1 <1>        0.000
      8 O6         -5.0167   -0.2869   -1.8730 O.3        1 <1>        0.000
      9 O7         -5.4727    0.0193    0.2787 O.2        1 <1>        0.000
     10 H          -1.1948    2.0325   -0.1327 H.spc      1 <1>        0.000
     11 H          -0.2801    0.5618    0.2161 H.spc      1 <1>        0.000
     12 H          -3.4773    1.9241   -0.6044 H.spc      1 <1>        0.000
     13 H          -3.8300   -1.2337    0.8140 H.spc      1 <1>        0.000
     14 H          -4.2995   -0.0798   -2.4766 H.spc      1 <1>        0.000
@<TRIPOS>BOND
     1    1    2 1  
     2    2    3 2  
     3    2    4 1  
     4    3    5 1  
     5    4    7 2  
     6    4    6 1  
     7    5    8 1  
     8    5    9 2  
     9    1   10 1  
    10    1   11 1  
    11    3   12 1  
    12    6   13 1  
    13    8   14 1  
# Name:          frag3-252-4/96164
# Creation time: Sat Jun  5 12:53:17 2010


@<TRIPOS>MOLECULE
frag3-252-4/96164
   14    13     1     1     1
SMALL
USER_CHARGES


@<TRIPOS>ATOM
      1 N3         -1.2031    1.0184    0.1798 N.pl3      1 <1>        0.000
      2 C18        -2.2951    0.3019   -0.0847 C.2        1 <1>        0.000
      3 C19        -3.5433    0.7978   -0.0274 C.2        1 <1>        0.000
      4 C20        -2.0983   -1.1168   -0.4726 C.2        1 <1>        0.000
      5 C21        -4.7883    0.1210   -0.3344 C.2        1 <1>        0.000
      6 O4         -2.1330   -2.0396    0.4936 O.3        1 <1>        0.000
      7 O5         -1.8400   -1.4266   -1.6238 O.2        1 <1>        0.000
      8 O6         -4.8999   -1.1620   -0.0355 O.3        1 <1>        0.000
      9 O7         -5.6966    0.7634   -0.8365 O.2        1 <1>        0.000
     10 H          -1.2886    2.0002    0.4429 H.spc      1 <1>        0.000
     11 H          -0.2817    0.5851    0.1191 H.spc      1 <1>        0.000
     12 H          -3.6302    1.8372    0.2890 H.spc      1 <1>        0.000
     13 H          -2.3505   -1.6189    1.3287 H.spc      1 <1>        0.000
     14 H          -4.0765   -1.4729    0.3478 H.spc      1 <1>        0.000
@<TRIPOS>BOND
     1    1    2 1  
     2    2    3 2  
     3    2    4 1  
     4    3    5 1  
     5    4    7 2  
     6    4    6 1  
     7    5    8 1  
     8    5    9 2  
     9    1   10 1  
    10    1   11 1  
    11    3   12 1  
    12    6   13 1  
    13    8   14 1  
# Name:          frag3-252-4/96164
# Creation time: Sat Jun  5 12:53:17 2010


@<TRIPOS>MOLECULE
frag3-252-4/96164
   14    13     1     1     1
SMALL
USER_CHARGES


@<TRIPOS>ATOM
      1 N3         -1.2654    0.9300    0.5190 N.pl3      1 <1>        0.000
      2 C18        -2.3241    0.2545    0.0678 C.2        1 <1>        0.000
      3 C19        -3.5489    0.7986   -0.0478 C.2        1 <1>        0.000
      4 C20        -2.1328   -1.1850   -0.2842 C.2        1 <1>        0.000
      5 C21        -4.7525    0.1802   -0.5689 C.2        1 <1>        0.000
      6 O4         -1.4735   -1.4374   -1.4125 O.3        1 <1>        0.000
      7 O5         -2.4952   -2.0592    0.4891 O.2        1 <1>        0.000
      8 O6         -5.0416   -1.0513   -0.1878 O.3        1 <1>        0.000
      9 O7         -5.4635    0.8272   -1.3162 O.2        1 <1>        0.000
     10 H          -1.3638    1.9068    0.7958 H.spc      1 <1>        0.000
     11 H          -0.3578    0.4695    0.5871 H.spc      1 <1>        0.000
     12 H          -3.6487    1.8296    0.2915 H.spc      1 <1>        0.000
     13 H          -1.2882   -0.6113   -1.8652 H.spc      1 <1>        0.000
     14 H          -4.3523   -1.3742    0.3972 H.spc      1 <1>        0.000
@<TRIPOS>BOND
     1    1    2 1  
     2    2    3 2  
     3    2    4 1  
     4    3    5 1  
     5    4    7 2  
     6    4    6 1  
     7    5    8 1  
     8    5    9 2  
     9    1   10 1  
    10    1   11 1  
    11    3   12 1  
    12    6   13 1  
    13    8   14 1  
# Name:          frag3-252-4/96164
# Creation time: Sat Jun  5 12:53:17 2010


@<TRIPOS>MOLECULE
frag3-252-4/96164
   14    13     1     1     1
SMALL
USER_CHARGES


@<TRIPOS>ATOM
      1 N3         -1.1577    1.0539    0.1919 N.pl3      1 <1>        0.000
      2 C18        -2.2635    0.3089   -0.1054 C.2        1 <1>        0.000
      3 C19        -3.5049    0.8060   -0.1793 C.2        1 <1>        0.000
      4 C20        -2.1020   -1.1651   -0.2584 C.2        1 <1>        0.000
      5 C21        -4.7826    0.1624   -0.5084 C.2        1 <1>        0.000
      6 O4         -2.9015   -1.9922    0.4028 O.3        1 <1>        0.000
      7 O5         -1.1656   -1.6166   -0.9095 O.2        1 <1>        0.000
      8 O6         -4.7796   -1.0308   -1.1110 O.3        1 <1>        0.000
      9 O7         -5.8400    0.7309   -0.2643 O.2        1 <1>        0.000
     10 H          -1.2499    2.0533    0.3740 H.spc      1 <1>        0.000
     11 H          -0.2398    0.6108    0.2318 H.spc      1 <1>        0.000
     12 H          -3.5793    1.8705    0.0429 H.spc      1 <1>        0.000
     13 H          -3.5783   -1.4858    0.8578 H.spc      1 <1>        0.000
     14 H          -3.8740   -1.3285   -1.2245 H.spc      1 <1>        0.000
@<TRIPOS>BOND
     1    1    2 1  
     2    2    3 2  
     3    2    4 1  
     4    3    5 1  
     5    4    7 2  
     6    4    6 1  
     7    5    8 1  
     8    5    9 2  
     9    1   10 1  
    10    1   11 1  
    11    3   12 1  
    12    6   13 1  
    13    8   14 1  
# Name:          frag3-252-4/96164
# Creation time: Sat Jun  5 12:53:17 2010


@<TRIPOS>MOLECULE
frag3-252-4/96164
   14    13     1     1     1
SMALL
USER_CHARGES


@<TRIPOS>ATOM
      1 N3         -1.1609    1.0288   -0.1434 N.pl3      1 <1>        0.000
      2 C18        -2.2806    0.3023   -0.2340 C.2        1 <1>        0.000
      3 C19        -3.5004    0.8462   -0.2684 C.2        1 <1>        0.000
      4 C20        -2.1452   -1.1837   -0.3012 C.2        1 <1>        0.000
      5 C21        -4.7761    0.1647   -0.3637 C.2        1 <1>        0.000
      6 O4         -1.6125   -1.7864    0.7643 O.3        1 <1>        0.000
      7 O5         -2.4039   -1.7929   -1.3332 O.2        1 <1>        0.000
      8 O6         -4.8307   -1.0522   -0.8668 O.3        1 <1>        0.000
      9 O7         -5.7871    0.7306    0.0048 O.2        1 <1>        0.000
     10 H          -1.2155    2.0463   -0.0971 H.spc      1 <1>        0.000
     11 H          -0.2526    0.5652   -0.1206 H.spc      1 <1>        0.000
     12 H          -3.5412    1.9343   -0.2188 H.spc      1 <1>        0.000
     13 H          -1.4865   -1.1425    1.4651 H.spc      1 <1>        0.000
     14 H          -3.9456   -1.3399   -1.1023 H.spc      1 <1>        0.000
@<TRIPOS>BOND
     1    1    2 1  
     2    2    3 2  
     3    2    4 1  
     4    3    5 1  
     5    4    7 2  
     6    4    6 1  
     7    5    8 1  
     8    5    9 2  
     9    1   10 1  
    10    1   11 1  
    11    3   12 1  
    12    6   13 1  
    13    8   14 1  
# Name:          frag3-252-4/96164 -- energy: 0.315953
# Creation time: Sat Jun  5 12:53:17 2010


@<TRIPOS>MOLECULE
frag3-252-4/96164 -- energy: 0.315953
   14    13     1     1     1
SMALL
USER_CHARGES


@<TRIPOS>ATOM
      1 N3         -1.1899    1.0064    0.1278 N.pl3      1 <1>        0.000
      2 C18        -2.2916    0.2923   -0.1071 C.2        1 <1>        0.000
      3 C19        -3.5043    0.8474   -0.2828 C.2        1 <1>        0.000
      4 C20        -2.1662   -1.1871   -0.1506 C.2        1 <1>        0.000
      5 C21        -4.7528    0.1774   -0.5494 C.2        1 <1>        0.000
      6 O4         -1.0886   -1.6901   -0.7770 O.3        1 <1>        0.000
      7 O5         -2.9536   -1.9259    0.4166 O.2        1 <1>        0.000
      8 O6         -4.7592   -0.8983   -1.3230 O.3        1 <1>        0.000
      9 O7         -5.7912    0.6354   -0.0961 O.2        1 <1>        0.000
     10 H          -1.2432    2.0236    0.1814 H.spc      1 <1>        0.000
     11 H          -0.2940    0.5353    0.2538 H.spc      1 <1>        0.000
     12 H          -3.5483    1.9344   -0.2155 H.spc      1 <1>        0.000
     13 H          -0.5822   -0.9731   -1.1657 H.spc      1 <1>        0.000
     14 H          -3.8595   -1.1099   -1.5824 H.spc      1 <1>        0.000
@<TRIPOS>BOND
     1    1    2 1  
     2    2    3 2  
     3    2    4 1  
     4    3    5 1  
     5    4    7 2  
     6    4    6 1  
     7    5    8 1  
     8    5    9 2  
     9    1   10 1  
    10    1   11 1  
    11    3   12 1  
    12    6   13 1  
    13    8   14 1  
# Name:          frag3-252-4/96164 -- energy: 0.231942
# Creation time: Sat Jun  5 12:53:17 2010


@<TRIPOS>MOLECULE
frag3-252-4/96164 -- energy: 0.231942
   14    13     1     1     1
SMALL
USER_CHARGES


@<TRIPOS>ATOM
      1 N3         -1.1228    0.9991   -0.3841 N.pl3      1 <1>        0.000
      2 C18        -2.2601    0.2922   -0.3359 C.2        1 <1>        0.000
      3 C19        -3.4733    0.8253   -0.5739 C.2        1 <1>        0.000
      4 C20        -2.1876   -1.1697   -0.0280 C.2        1 <1>        0.000
      5 C21        -4.7454    0.1413   -0.5221 C.2        1 <1>        0.000
      6 O4         -1.1222   -1.5749    0.6854 O.3        1 <1>        0.000
      7 O5         -2.9889   -1.9906   -0.4420 O.2        1 <1>        0.000
      8 O6         -5.3353   -0.1142   -1.6848 O.3        1 <1>        0.000
      9 O7         -5.2617   -0.1511    0.5438 O.2        1 <1>        0.000
     10 H          -1.1495    1.9934   -0.6103 H.spc      1 <1>        0.000
     11 H          -0.2304    0.5430   -0.1946 H.spc      1 <1>        0.000
     12 H          -3.4988    1.8838   -0.8328 H.spc      1 <1>        0.000
     13 H          -0.5954   -0.8116    0.9332 H.spc      1 <1>        0.000
     14 H          -4.7730    0.1896   -2.4012 H.spc      1 <1>        0.000
@<TRIPOS>BOND
     1    1    2 1  
     2    2    3 2  
     3    2    4 1  
     4    3    5 1  
     5    4    7 2  
     6    4    6 1  
     7    5    8 1  
     8    5    9 2  
     9    1   10 1  
    10    1   11 1  
    11    3   12 1  
    12    6   13 1  
    13    8   14 1  
# Name:          frag3-252-4/96164 -- energy: -0.984216
# Creation time: Sat Jun  5 12:53:17 2010


@<TRIPOS>MOLECULE
frag3-252-4/96164 -- energy: -0.984216
   14    13     1     1     1
SMALL
USER_CHARGES


@<TRIPOS>ATOM
      1 N3         -1.1591    1.0323    0.0287 N.pl3      1 <1>        0.000
      2 C18        -2.2787    0.3113   -0.1412 C.2        1 <1>        0.000
      3 C19        -3.4652    0.8352   -0.5126 C.2        1 <1>        0.000
      4 C20        -2.2209   -1.1646    0.0976 C.2        1 <1>        0.000
      5 C21        -4.6966    0.1184   -0.7306 C.2        1 <1>        0.000
      6 O4         -1.4341   -1.8674   -0.7317 O.3        1 <1>        0.000
      7 O5         -2.7511   -1.7129    1.0432 O.2        1 <1>        0.000
      8 O6         -5.4040    0.4720   -1.8025 O.3        1 <1>        0.000
      9 O7         -5.0877   -0.7668    0.0075 O.2        1 <1>        0.000
     10 H          -1.1736    2.0406   -0.1247 H.spc      1 <1>        0.000
     11 H          -0.2939    0.5718    0.3112 H.spc      1 <1>        0.000
     12 H          -3.4958    1.9142   -0.6637 H.spc      1 <1>        0.000
     13 H          -1.0976   -1.2881   -1.4193 H.spc      1 <1>        0.000
     14 H          -4.9496    1.1798   -2.2652 H.spc      1 <1>        0.000
@<TRIPOS>BOND
     1    1    2 1  
     2    2    3 2  
     3    2    4 1  
     4    3    5 1  
     5    4    7 2  
     6    4    6 1  
     7    5    8 1  
     8    5    9 2  
     9    1   10 1  
    10    1   11 1  
    11    3   12 1  
    12    6   13 1  
    13    8   14 1  
# Name:          frag3-252-4/96164 -- energy: 0.683796
# Creation time: Sat Jun  5 12:53:17 2010


@<TRIPOS>MOLECULE
frag3-252-4/96164 -- energy: 0.683796
   14    13     1     1     1
SMALL
USER_CHARGES


@<TRIPOS>ATOM
      1 N3         -1.1612    1.0196   -0.0174 N.pl3      1 <1>        0.000
      2 C18        -2.2717    0.2922   -0.1723 C.2        1 <1>        0.000
      3 C19        -3.4625    0.8413   -0.4804 C.2        1 <1>        0.000
      4 C20        -2.1467   -1.1929   -0.0165 C.2        1 <1>        0.000
      5 C21        -4.7174    0.1612   -0.6645 C.2        1 <1>        0.000
      6 O4         -3.1224   -1.8459    0.5995 O.3        1 <1>        0.000
      7 O5         -1.1261   -1.7504   -0.3955 O.2        1 <1>        0.000
      8 O6         -5.0167   -0.2869   -1.8730 O.3        1 <1>        0.000
      9 O7         -5.4727    0.0193    0.2787 O.2        1 <1>        0.000
     10 H          -1.1948    2.0325   -0.1327 H.spc      1 <1>        0.000
     11 H          -0.2801    0.5618    0.2161 H.spc      1 <1>        0.000
     12 H          -3.4773    1.9241   -0.6044 H.spc      1 <1>        0.000
     13 H          -3.8300   -1.2337    0.8140 H.spc      1 <1>        0.000
     14 H          -4.2995   -0.0798   -2.4766 H.spc      1 <1>        0.000
@<TRIPOS>BOND
     1    1    2 1  
     2    2    3 2  
     3    2    4 1  
     4    3    5 1  
     5    4    7 2  
     6    4    6 1  
     7    5    8 1  
     8    5    9 2  
     9    1   10 1  
    10    1   11 1  
    11    3   12 1  
    12    6   13 1  
    13    8   14 1  
# Name:          frag3-252-4/96164 -- energy: 1.882020
# Creation time: Sat Jun  5 12:53:17 2010


@<TRIPOS>MOLECULE
frag3-252-4/96164 -- energy: 1.882020
   14    13     1     1     1
SMALL
USER_CHARGES


@<TRIPOS>ATOM
      1 N3         -1.2031    1.0184    0.1798 N.pl3      1 <1>        0.000
      2 C18        -2.2951    0.3019   -0.0847 C.2        1 <1>        0.000
      3 C19        -3.5433    0.7978   -0.0274 C.2        1 <1>        0.000
      4 C20        -2.0983   -1.1168   -0.4726 C.2        1 <1>        0.000
      5 C21        -4.7883    0.1210   -0.3344 C.2        1 <1>        0.000
      6 O4         -2.1330   -2.0396    0.4936 O.3        1 <1>        0.000
      7 O5         -1.8400   -1.4266   -1.6238 O.2        1 <1>        0.000
      8 O6         -4.8999   -1.1620   -0.0355 O.3        1 <1>        0.000
      9 O7         -5.6966    0.7634   -0.8365 O.2        1 <1>        0.000
     10 H          -1.2886    2.0002    0.4429 H.spc      1 <1>        0.000
     11 H          -0.2817    0.5851    0.1191 H.spc      1 <1>        0.000
     12 H          -3.6302    1.8372    0.2890 H.spc      1 <1>        0.000
     13 H          -2.3505   -1.6189    1.3287 H.spc      1 <1>        0.000
     14 H          -4.0765   -1.4729    0.3478 H.spc      1 <1>        0.000
@<TRIPOS>BOND
     1    1    2 1  
     2    2    3 2  
     3    2    4 1  
     4    3    5 1  
     5    4    7 2  
     6    4    6 1  
     7    5    8 1  
     8    5    9 2  
     9    1   10 1  
    10    1   11 1  
    11    3   12 1  
    12    6   13 1  
    13    8   14 1  
# Name:          frag3-252-4/96164 -- energy: 1.471440
# Creation time: Sat Jun  5 12:53:17 2010


@<TRIPOS>MOLECULE
frag3-252-4/96164 -- energy: 1.471440
   14    13     1     1     1
SMALL
USER_CHARGES


@<TRIPOS>ATOM
      1 N3         -1.2654    0.9300    0.5190 N.pl3      1 <1>        0.000
      2 C18        -2.3241    0.2545    0.0678 C.2        1 <1>        0.000
      3 C19        -3.5489    0.7986   -0.0478 C.2        1 <1>        0.000
      4 C20        -2.1328   -1.1850   -0.2842 C.2        1 <1>        0.000
      5 C21        -4.7525    0.1802   -0.5689 C.2        1 <1>        0.000
      6 O4         -1.4735   -1.4374   -1.4125 O.3        1 <1>        0.000
      7 O5         -2.4952   -2.0592    0.4891 O.2        1 <1>        0.000
      8 O6         -5.0416   -1.0513   -0.1878 O.3        1 <1>        0.000
      9 O7         -5.4635    0.8272   -1.3162 O.2        1 <1>        0.000
     10 H          -1.3638    1.9068    0.7958 H.spc      1 <1>        0.000
     11 H          -0.3578    0.4695    0.5871 H.spc      1 <1>        0.000
     12 H          -3.6487    1.8296    0.2915 H.spc      1 <1>        0.000
     13 H          -1.2882   -0.6113   -1.8652 H.spc      1 <1>        0.000
     14 H          -4.3523   -1.3742    0.3972 H.spc      1 <1>        0.000
@<TRIPOS>BOND
     1    1    2 1  
     2    2    3 2  
     3    2    4 1  
     4    3    5 1  
     5    4    7 2  
     6    4    6 1  
     7    5    8 1  
     8    5    9 2  
     9    1   10 1  
    10    1   11 1  
    11    3   12 1  
    12    6   13 1  
    13    8   14 1  
