#      Rotatable Fragment
#      Build by yxyuan
#
# Name:          frag3-222-4/31924
# Creation time: Sat Jun  5 12:52:22 2010


@<TRIPOS>MOLECULE
frag3-222-4/31924
    9     8     1     1     1
SMALL
USER_CHARGES


@<TRIPOS>ATOM
      1 P1         -2.1310    0.2399   -4.4770 P.3        1 <1>        0.000
      2 O1         -2.8617    1.2412   -5.2246 O.2        1 <1>        0.000
      3 N1         -3.0673   -0.9563   -4.0618 N.pl3      1 <1>        0.000
      4 O3         -1.5207    0.9427   -3.2174 O.3        1 <1>        0.000
      5 O7         -0.9523   -0.3569   -5.3470 O.3        1 <1>        0.000
      6 H          -4.0524   -0.9485   -4.3263 H.spc      1 <1>        0.000
      7 H          -2.6887   -1.7389   -3.5283 H.spc      1 <1>        0.000
      8 H          -1.0287    0.3003   -2.7009 H.spc      1 <1>        0.000
      9 H          -0.4808   -1.0177   -4.8346 H.spc      1 <1>        0.000
@<TRIPOS>BOND
     1    1    2 2  
     2    1    3 1  
     3    1    4 1  
     4    1    5 1  
     5    3    6 1  
     6    3    7 1  
     7    4    8 1  
     8    5    9 1  
# Name:          frag3-222-4/31924 -- energy: -0.429101
# Creation time: Sat Jun  5 12:52:22 2010


@<TRIPOS>MOLECULE
frag3-222-4/31924 -- energy: -0.429101
    9     8     1     1     1
SMALL
USER_CHARGES


@<TRIPOS>ATOM
      1 P1         -2.1310    0.2399   -4.4770 P.3        1 <1>        0.000
      2 O1         -2.8617    1.2412   -5.2246 O.2        1 <1>        0.000
      3 N1         -3.0673   -0.9563   -4.0618 N.pl3      1 <1>        0.000
      4 O3         -1.5207    0.9427   -3.2174 O.3        1 <1>        0.000
      5 O7         -0.9523   -0.3569   -5.3470 O.3        1 <1>        0.000
      6 H          -4.0524   -0.9485   -4.3263 H.spc      1 <1>        0.000
      7 H          -2.6887   -1.7389   -3.5283 H.spc      1 <1>        0.000
      8 H          -1.0287    0.3003   -2.7009 H.spc      1 <1>        0.000
      9 H          -0.4808   -1.0177   -4.8346 H.spc      1 <1>        0.000
@<TRIPOS>BOND
     1    1    2 2  
     2    1    3 1  
     3    1    4 1  
     4    1    5 1  
     5    3    6 1  
     6    3    7 1  
     7    4    8 1  
     8    5    9 1  
