#      Rotatable Fragment
#      Build by yxyuan
#
# Name:          frag3-274-3/96164
# Creation time: Sat Jun  5 12:53:23 2010


@<TRIPOS>MOLECULE
frag3-274-3/96164
    4     3     1     1     1
SMALL
USER_CHARGES


@<TRIPOS>ATOM
      1 C2          0.1062    0.0079    0.0022 C.2        1 <1>        0.000
      2 O1          0.7557    1.0454   -0.0051 O.2        1 <1>        0.000
      3 Cl1        -1.5899   -0.1227   -0.0340 Cl         1 <1>        0.000
      4 H           0.6700   -0.9244    0.0351 H.spc      1 <1>        0.000
@<TRIPOS>BOND
     1    1    2 2  
     2    1    3 1  
     3    1    4 1  
# Name:          frag3-274-3/96164 -- energy: 0.000000
# Creation time: Sat Jun  5 12:53:23 2010


@<TRIPOS>MOLECULE
frag3-274-3/96164 -- energy: 0.000000
    4     3     1     1     1
SMALL
USER_CHARGES


@<TRIPOS>ATOM
      1 C2          0.1062    0.0079    0.0022 C.2        1 <1>        0.000
      2 O1          0.7557    1.0454   -0.0051 O.2        1 <1>        0.000
      3 Cl1        -1.5899   -0.1227   -0.0340 Cl         1 <1>        0.000
      4 H           0.6700   -0.9244    0.0351 H.spc      1 <1>        0.000
@<TRIPOS>BOND
     1    1    2 2  
     2    1    3 1  
     3    1    4 1  
