#      Rotatable Fragment
#      Build by yxyuan
#
# Name:          frag4-301-724/48856
# Creation time: Sat Jun  5 12:52:47 2010


@<TRIPOS>MOLECULE
frag4-301-724/48856
   17    18     1     1     1
SMALL
USER_CHARGES


@<TRIPOS>ATOM
      1 C1          2.4673   -0.3797    0.1819 C.ar       1 <1>        0.000
      2 C2          1.4248   -1.2130    0.3438 C.ar       1 <1>        0.000
      3 C3          0.1150   -0.5819    0.1437 C.ar       1 <1>        0.000
      4 C4          0.0703    0.8129   -0.1957 C.ar       1 <1>        0.000
      5 C5         -1.1738    1.4322   -0.3947 C.ar       1 <1>        0.000
      6 C6         -2.3694    0.7347   -0.2651 C.ar       1 <1>        0.000
      7 C7         -2.3401   -0.6094    0.0678 C.ar       1 <1>        0.000
      8 C8         -1.1065   -1.2533    0.2635 C.ar       1 <1>        0.000
      9 O1          1.2159    1.5060   -0.3219 O.3        1 <1>        0.000
     10 C9          2.2840    0.9852   -0.1544 C.ar       1 <1>        0.000
     11 H           3.4792   -0.7633    0.3125 H.spc      1 <1>        0.000
     12 H           1.5421   -2.2656    0.6013 H.spc      1 <1>        0.000
     13 H          -1.2032    2.4895   -0.6582 H.spc      1 <1>        0.000
     14 H          -3.3214    1.2411   -0.4241 H.spc      1 <1>        0.000
     15 H          -3.2709   -1.1659    0.1776 H.spc      1 <1>        0.000
     16 H          -1.1011   -2.3133    0.5176 H.spc      1 <1>        0.000
     17 H           3.1741    1.6039   -0.2687 H.spc      1 <1>        0.000
@<TRIPOS>BOND
     1    6    7 ar 
     2    9   10 ar 
     3    7    8 ar 
     4    1    2 ar 
     5    1   10 ar 
     6    2    3 ar 
     7    3    4 ar 
     8    3    8 ar 
     9    4    5 ar 
    10    4    9 ar 
    11    5    6 ar 
    12    1   11 1  
    13    2   12 1  
    14    5   13 1  
    15    6   14 1  
    16    7   15 1  
    17    8   16 1  
    18   10   17 1  
# Name:          frag4-301-724/48856 -- energy: 0.093998
# Creation time: Sat Jun  5 12:52:47 2010


@<TRIPOS>MOLECULE
frag4-301-724/48856 -- energy: 0.093998
   17    18     1     1     1
SMALL
USER_CHARGES


@<TRIPOS>ATOM
      1 C1          2.4673   -0.3797    0.1819 C.ar       1 <1>        0.000
      2 C2          1.4248   -1.2130    0.3438 C.ar       1 <1>        0.000
      3 C3          0.1150   -0.5819    0.1437 C.ar       1 <1>        0.000
      4 C4          0.0703    0.8129   -0.1957 C.ar       1 <1>        0.000
      5 C5         -1.1738    1.4322   -0.3947 C.ar       1 <1>        0.000
      6 C6         -2.3694    0.7347   -0.2651 C.ar       1 <1>        0.000
      7 C7         -2.3401   -0.6094    0.0678 C.ar       1 <1>        0.000
      8 C8         -1.1065   -1.2533    0.2635 C.ar       1 <1>        0.000
      9 O1          1.2159    1.5060   -0.3219 O.3        1 <1>        0.000
     10 C9          2.2840    0.9852   -0.1544 C.ar       1 <1>        0.000
     11 H           3.4792   -0.7633    0.3125 H.spc      1 <1>        0.000
     12 H           1.5421   -2.2656    0.6013 H.spc      1 <1>        0.000
     13 H          -1.2032    2.4895   -0.6582 H.spc      1 <1>        0.000
     14 H          -3.3214    1.2411   -0.4241 H.spc      1 <1>        0.000
     15 H          -3.2709   -1.1659    0.1776 H.spc      1 <1>        0.000
     16 H          -1.1011   -2.3133    0.5176 H.spc      1 <1>        0.000
     17 H           3.1741    1.6039   -0.2687 H.spc      1 <1>        0.000
@<TRIPOS>BOND
     1    6    7 ar 
     2    9   10 ar 
     3    7    8 ar 
     4    1    2 ar 
     5    1   10 ar 
     6    2    3 ar 
     7    3    4 ar 
     8    3    8 ar 
     9    4    5 ar 
    10    4    9 ar 
    11    5    6 ar 
    12    1   11 1  
    13    2   12 1  
    14    5   13 1  
    15    6   14 1  
    16    7   15 1  
    17    8   16 1  
    18   10   17 1  
