#      Rotatable Fragment
#      Build by yxyuan
#
# Name:          frag5-586-127/138278
# Creation time: Sat Jun  5 12:53:45 2010


@<TRIPOS>MOLECULE
frag5-586-127/138278
   42    45     1     1     1
SMALL
USER_CHARGES


@<TRIPOS>ATOM
      1 C1         -2.1440   -0.7606   -0.5147 C.3        1 <1>        0.000
      2 C2         -0.8492   -1.3943    0.0724 C.3        1 <1>        0.000
      3 C3         -3.3644   -1.2823    0.3046 C.3        1 <1>        0.000
      4 C4         -1.9674    0.7926   -0.6843 C.3        1 <1>        0.000
      5 C5          0.3772   -0.6233   -0.4272 C.3        1 <1>        0.000
      6 C6         -0.8571   -2.9008   -0.1892 C.3        1 <1>        0.000
      7 C7         -3.3381   -2.8050    0.4931 C.2        1 <1>        0.000
      8 C8         -4.7428   -0.7029   -0.1614 C.3        1 <1>        0.000
      9 C10        -0.9725    1.4346    0.3043 C.3        1 <1>        0.000
     10 C11         0.3963    0.7149    0.3417 C.3        1 <1>        0.000
     11 C12         1.8003   -1.1299   -0.1548 C.3        1 <1>        0.000
     12 C13        -1.9982   -3.5001    0.6466 C.3        1 <1>        0.000
     13 C14        -4.4560   -3.5476    0.5491 C.2        1 <1>        0.000
     14 C15        -5.8606   -1.7161   -0.4760 C.3        1 <1>        0.000
     15 C16         1.6690    1.3475   -0.2344 C.3        1 <1>        0.000
     16 C18         2.6601    0.1582   -0.2027 C.3        1 <1>        0.000
     17 C19        -5.7739   -2.9348    0.3825 C.2        1 <1>        0.000
     18 O2         -6.7664   -3.4285    0.8948 O.2        1 <1>        0.000
     19 H          -2.3520   -1.0773   -1.5367 H.spc      1 <1>        0.000
     20 H          -0.8037   -1.3013    1.1575 H.spc      1 <1>        0.000
     21 H          -3.2491   -0.8701    1.3070 H.spc      1 <1>        0.000
     22 H          -1.5748    0.9615   -1.6870 H.spc      1 <1>        0.000
     23 H          -2.9406    1.2467   -0.4977 H.spc      1 <1>        0.000
     24 H           0.2273   -0.6597   -1.5062 H.spc      1 <1>        0.000
     25 H           0.0983   -3.3444    0.0910 H.spc      1 <1>        0.000
     26 H          -1.0085   -3.1059   -1.2490 H.spc      1 <1>        0.000
     27 H          -4.5439   -0.1807   -1.0973 H.spc      1 <1>        0.000
     28 H          -5.1105   -0.1052    0.6727 H.spc      1 <1>        0.000
     29 H          -1.4081    1.3696    1.3014 H.spc      1 <1>        0.000
     30 H          -0.7984    2.4604   -0.0205 H.spc      1 <1>        0.000
     31 H           0.4778    0.7019    1.4286 H.spc      1 <1>        0.000
     32 H           1.8822   -1.6508    0.7991 H.spc      1 <1>        0.000
     33 H           2.1241   -1.8749   -0.8816 H.spc      1 <1>        0.000
     34 H          -2.1345   -4.5258    0.3039 H.spc      1 <1>        0.000
     35 H          -1.7090   -3.3990    1.6927 H.spc      1 <1>        0.000
     36 H          -4.3802   -4.6213    0.7210 H.spc      1 <1>        0.000
     37 H          -6.8194   -1.2340   -0.2852 H.spc      1 <1>        0.000
     38 H          -5.7557   -2.0253   -1.5160 H.spc      1 <1>        0.000
     39 H           1.5301    1.7681   -1.2303 H.spc      1 <1>        0.000
     40 H           2.0148    2.2137    0.3297 H.spc      1 <1>        0.000
     41 H           3.3175    0.2211    0.6645 H.spc      1 <1>        0.000
     42 H           3.3052    0.1643   -1.0813 H.spc      1 <1>        0.000
@<TRIPOS>BOND
     1    3    7 1  
     2    4    9 1  
     3    2    5 1  
     4    2    6 1  
     5    1    3 1  
     6    1    4 1  
     7    5   10 1  
     8    1    2 1  
     9    3    8 1  
    10   17   18 2  
    11   15   16 1  
    12   14   17 1  
    13   13   17 1  
    14   11   16 1  
    15   10   15 1  
    16    8   14 1  
    17    7   12 1  
    18    9   10 1  
    19    7   13 2  
    20    6   12 1  
    21    5   11 1  
    22    1   19 1  
    23    2   20 1  
    24    3   21 1  
    25    4   22 1  
    26    4   23 1  
    27    5   24 1  
    28    6   25 1  
    29    6   26 1  
    30    8   27 1  
    31    8   28 1  
    32    9   29 1  
    33    9   30 1  
    34   10   31 1  
    35   11   32 1  
    36   11   33 1  
    37   12   34 1  
    38   12   35 1  
    39   13   36 1  
    40   14   37 1  
    41   14   38 1  
    42   15   39 1  
    43   15   40 1  
    44   16   41 1  
    45   16   42 1  
# Name:          frag5-586-127/138278 -- energy: -7.260921
# Creation time: Sat Jun  5 12:53:45 2010


@<TRIPOS>MOLECULE
frag5-586-127/138278 -- energy: -7.260921
   42    45     1     1     1
SMALL
USER_CHARGES


@<TRIPOS>ATOM
      1 C1         -2.1440   -0.7606   -0.5147 C.3        1 <1>        0.000
      2 C2         -0.8492   -1.3943    0.0724 C.3        1 <1>        0.000
      3 C3         -3.3644   -1.2823    0.3046 C.3        1 <1>        0.000
      4 C4         -1.9674    0.7926   -0.6843 C.3        1 <1>        0.000
      5 C5          0.3772   -0.6233   -0.4272 C.3        1 <1>        0.000
      6 C6         -0.8571   -2.9008   -0.1892 C.3        1 <1>        0.000
      7 C7         -3.3381   -2.8050    0.4931 C.2        1 <1>        0.000
      8 C8         -4.7428   -0.7029   -0.1614 C.3        1 <1>        0.000
      9 C10        -0.9725    1.4346    0.3043 C.3        1 <1>        0.000
     10 C11         0.3963    0.7149    0.3417 C.3        1 <1>        0.000
     11 C12         1.8003   -1.1299   -0.1548 C.3        1 <1>        0.000
     12 C13        -1.9982   -3.5001    0.6466 C.3        1 <1>        0.000
     13 C14        -4.4560   -3.5476    0.5491 C.2        1 <1>        0.000
     14 C15        -5.8606   -1.7161   -0.4760 C.3        1 <1>        0.000
     15 C16         1.6690    1.3475   -0.2344 C.3        1 <1>        0.000
     16 C18         2.6601    0.1582   -0.2027 C.3        1 <1>        0.000
     17 C19        -5.7739   -2.9348    0.3825 C.2        1 <1>        0.000
     18 O2         -6.7664   -3.4285    0.8948 O.2        1 <1>        0.000
     19 H          -2.3520   -1.0773   -1.5367 H.spc      1 <1>        0.000
     20 H          -0.8037   -1.3013    1.1575 H.spc      1 <1>        0.000
     21 H          -3.2491   -0.8701    1.3070 H.spc      1 <1>        0.000
     22 H          -1.5748    0.9615   -1.6870 H.spc      1 <1>        0.000
     23 H          -2.9406    1.2467   -0.4977 H.spc      1 <1>        0.000
     24 H           0.2273   -0.6597   -1.5062 H.spc      1 <1>        0.000
     25 H           0.0983   -3.3444    0.0910 H.spc      1 <1>        0.000
     26 H          -1.0085   -3.1059   -1.2490 H.spc      1 <1>        0.000
     27 H          -4.5439   -0.1807   -1.0973 H.spc      1 <1>        0.000
     28 H          -5.1105   -0.1052    0.6727 H.spc      1 <1>        0.000
     29 H          -1.4081    1.3696    1.3014 H.spc      1 <1>        0.000
     30 H          -0.7984    2.4604   -0.0205 H.spc      1 <1>        0.000
     31 H           0.4778    0.7019    1.4286 H.spc      1 <1>        0.000
     32 H           1.8822   -1.6508    0.7991 H.spc      1 <1>        0.000
     33 H           2.1241   -1.8749   -0.8816 H.spc      1 <1>        0.000
     34 H          -2.1345   -4.5258    0.3039 H.spc      1 <1>        0.000
     35 H          -1.7090   -3.3990    1.6927 H.spc      1 <1>        0.000
     36 H          -4.3802   -4.6213    0.7210 H.spc      1 <1>        0.000
     37 H          -6.8194   -1.2340   -0.2852 H.spc      1 <1>        0.000
     38 H          -5.7557   -2.0253   -1.5160 H.spc      1 <1>        0.000
     39 H           1.5301    1.7681   -1.2303 H.spc      1 <1>        0.000
     40 H           2.0148    2.2137    0.3297 H.spc      1 <1>        0.000
     41 H           3.3175    0.2211    0.6645 H.spc      1 <1>        0.000
     42 H           3.3052    0.1643   -1.0813 H.spc      1 <1>        0.000
@<TRIPOS>BOND
     1    3    7 1  
     2    4    9 1  
     3    2    5 1  
     4    2    6 1  
     5    1    3 1  
     6    1    4 1  
     7    5   10 1  
     8    1    2 1  
     9    3    8 1  
    10   17   18 2  
    11   15   16 1  
    12   14   17 1  
    13   13   17 1  
    14   11   16 1  
    15   10   15 1  
    16    8   14 1  
    17    7   12 1  
    18    9   10 1  
    19    7   13 2  
    20    6   12 1  
    21    5   11 1  
    22    1   19 1  
    23    2   20 1  
    24    3   21 1  
    25    4   22 1  
    26    4   23 1  
    27    5   24 1  
    28    6   25 1  
    29    6   26 1  
    30    8   27 1  
    31    8   28 1  
    32    9   29 1  
    33    9   30 1  
    34   10   31 1  
    35   11   32 1  
    36   11   33 1  
    37   12   34 1  
    38   12   35 1  
    39   13   36 1  
    40   14   37 1  
    41   14   38 1  
    42   15   39 1  
    43   15   40 1  
    44   16   41 1  
    45   16   42 1  
