#      Rotatable Fragment
#      Build by yxyuan
#
# Name:          frag5-629-86/138278
# Creation time: Sat Jun  5 12:53:49 2010


@<TRIPOS>MOLECULE
frag5-629-86/138278
   20    21     1     1     1
SMALL
USER_CHARGES


@<TRIPOS>ATOM
      1 C1         -1.6210   -0.5958    0.5323 C.2        1 <1>        0.000
      2 C2         -2.8450    0.2503    0.2042 C.ar       1 <1>        0.000
      3 N1         -0.4008   -0.3220    0.2871 N.2        1 <1>        0.000
      4 C4         -2.9229    1.6598    0.1098 C.ar       1 <1>        0.000
      5 C5         -4.0120   -0.5094    0.0463 C.ar       1 <1>        0.000
      6 C8         -0.1974    0.8089   -0.5702 C.3        1 <1>        0.000
      7 N2         -1.7986    2.4946    0.2977 N.am       1 <1>        0.000
      8 C9         -4.1798    2.2561   -0.1122 C.ar       1 <1>        0.000
      9 C10        -5.2495    0.1043   -0.1211 C.ar       1 <1>        0.000
     10 C13        -0.5146    2.1187    0.0986 C.2        1 <1>        0.000
     11 C15        -5.3535    1.4922   -0.1626 C.ar       1 <1>        0.000
     12 O1          0.4320    2.8092    0.4541 O.2        1 <1>        0.000
     13 H          -1.8109   -1.5444    1.0345 H.spc      1 <1>        0.000
     14 H          -3.9493   -1.5976    0.0548 H.spc      1 <1>        0.000
     15 H           0.8554    0.8266   -0.8521 H.spc      1 <1>        0.000
     16 H          -0.8657    0.7021   -1.4246 H.spc      1 <1>        0.000
     17 H          -1.9678    3.4519    0.6064 H.spc      1 <1>        0.000
     18 H          -4.2407    3.3359   -0.2478 H.spc      1 <1>        0.000
     19 H          -6.1462   -0.5073   -0.2207 H.spc      1 <1>        0.000
     20 H          -6.3283    1.9748   -0.2329 H.spc      1 <1>        0.000
@<TRIPOS>BOND
     1    6   10 1  
     2   10   12 2  
     3    4    8 ar 
     4    8   11 ar 
     5    4    7 1  
     6    7   10 am 
     7    5    9 ar 
     8    3    6 1  
     9    1    2 1  
    10    1    3 2  
    11    2    4 ar 
    12    2    5 ar 
    13    9   11 ar 
    14    1   13 1  
    15    5   14 1  
    16    6   15 1  
    17    6   16 1  
    18    7   17 1  
    19    8   18 1  
    20    9   19 1  
    21   11   20 1  
# Name:          frag5-629-86/138278 -- energy: -1.094025
# Creation time: Sat Jun  5 12:53:49 2010


@<TRIPOS>MOLECULE
frag5-629-86/138278 -- energy: -1.094025
   20    21     1     1     1
SMALL
USER_CHARGES


@<TRIPOS>ATOM
      1 C1         -1.6210   -0.5958    0.5323 C.2        1 <1>        0.000
      2 C2         -2.8450    0.2503    0.2042 C.ar       1 <1>        0.000
      3 N1         -0.4008   -0.3220    0.2871 N.2        1 <1>        0.000
      4 C4         -2.9229    1.6598    0.1098 C.ar       1 <1>        0.000
      5 C5         -4.0120   -0.5094    0.0463 C.ar       1 <1>        0.000
      6 C8         -0.1974    0.8089   -0.5702 C.3        1 <1>        0.000
      7 N2         -1.7986    2.4946    0.2977 N.am       1 <1>        0.000
      8 C9         -4.1798    2.2561   -0.1122 C.ar       1 <1>        0.000
      9 C10        -5.2495    0.1043   -0.1211 C.ar       1 <1>        0.000
     10 C13        -0.5146    2.1187    0.0986 C.2        1 <1>        0.000
     11 C15        -5.3535    1.4922   -0.1626 C.ar       1 <1>        0.000
     12 O1          0.4320    2.8092    0.4541 O.2        1 <1>        0.000
     13 H          -1.8109   -1.5444    1.0345 H.spc      1 <1>        0.000
     14 H          -3.9493   -1.5976    0.0548 H.spc      1 <1>        0.000
     15 H           0.8554    0.8266   -0.8521 H.spc      1 <1>        0.000
     16 H          -0.8657    0.7021   -1.4246 H.spc      1 <1>        0.000
     17 H          -1.9678    3.4519    0.6064 H.spc      1 <1>        0.000
     18 H          -4.2407    3.3359   -0.2478 H.spc      1 <1>        0.000
     19 H          -6.1462   -0.5073   -0.2207 H.spc      1 <1>        0.000
     20 H          -6.3283    1.9748   -0.2329 H.spc      1 <1>        0.000
@<TRIPOS>BOND
     1    6   10 1  
     2   10   12 2  
     3    4    8 ar 
     4    8   11 ar 
     5    4    7 1  
     6    7   10 am 
     7    5    9 ar 
     8    3    6 1  
     9    1    2 1  
    10    1    3 2  
    11    2    4 ar 
    12    2    5 ar 
    13    9   11 ar 
    14    1   13 1  
    15    5   14 1  
    16    6   15 1  
    17    6   16 1  
    18    7   17 1  
    19    8   18 1  
    20    9   19 1  
    21   11   20 1  
