#      Rotatable Fragment
#      Build by yxyuan
#
# Name:          frag4-312-337/48856
# Creation time: Sat Jun  5 12:52:49 2010


@<TRIPOS>MOLECULE
frag4-312-337/48856
    7     7     1     1     1
SMALL
USER_CHARGES


@<TRIPOS>ATOM
      1 O1         -7.1904    1.1115    3.2304 O.3        1 <1>        0.000
      2 C1         -6.9108    2.4192    2.8101 C.3        1 <1>        0.000
      3 C2         -6.0549    1.1397    2.4084 C.3        1 <1>        0.000
      4 H          -6.8018    3.4343    3.1921 H.spc      1 <1>        0.000
      5 H          -7.3888    3.2976    2.3765 H.spc      1 <1>        0.000
      6 H          -5.6137    0.6441    1.5436 H.spc      1 <1>        0.000
      7 H          -5.0269    0.7806    2.3589 H.spc      1 <1>        0.000
@<TRIPOS>BOND
     1    1    2 1  
     2    1    3 1  
     3    2    3 1  
     4    2    4 1  
     5    2    5 1  
     6    3    6 1  
     7    3    7 1  
# Name:          frag4-312-337/48856 -- energy: -0.020477
# Creation time: Sat Jun  5 12:52:49 2010


@<TRIPOS>MOLECULE
frag4-312-337/48856 -- energy: -0.020477
    7     7     1     1     1
SMALL
USER_CHARGES


@<TRIPOS>ATOM
      1 O1         -7.1904    1.1115    3.2304 O.3        1 <1>        0.000
      2 C1         -6.9108    2.4192    2.8101 C.3        1 <1>        0.000
      3 C2         -6.0549    1.1397    2.4084 C.3        1 <1>        0.000
      4 H          -6.8018    3.4343    3.1921 H.spc      1 <1>        0.000
      5 H          -7.3888    3.2976    2.3765 H.spc      1 <1>        0.000
      6 H          -5.6137    0.6441    1.5436 H.spc      1 <1>        0.000
      7 H          -5.0269    0.7806    2.3589 H.spc      1 <1>        0.000
@<TRIPOS>BOND
     1    1    2 1  
     2    1    3 1  
     3    2    3 1  
     4    2    4 1  
     5    2    5 1  
     6    3    6 1  
     7    3    7 1  
