#      Rotatable Fragment
#      Build by yxyuan
#
# Name:          frag5-532-259/138278
# Creation time: Sat Jun  5 12:53:41 2010


@<TRIPOS>MOLECULE
frag5-532-259/138278
   27    28     1     1     1
SMALL
USER_CHARGES


@<TRIPOS>ATOM
      1 N4         -0.2373    0.7393    0.7112 N.4        1 <1>        0.000
      2 C12         0.7677    1.6082    0.0658 C.3        1 <1>        0.000
      3 C13        -0.3240   -0.5225   -0.0513 C.3        1 <1>        0.000
      4 C14         2.1732    0.9598    0.1073 C.3        1 <1>        0.000
      5 C15         1.0178   -1.2927   -0.0025 C.3        1 <1>        0.000
      6 N5          2.2592   -0.5041   -0.0095 N.pl3      1 <1>        0.000
      7 C16         3.4758   -1.1262   -0.0453 C.ar       1 <1>        0.000
      8 C17         4.6615   -0.4905    0.3792 C.ar       1 <1>        0.000
      9 C18         3.6321   -2.4541   -0.4956 C.ar       1 <1>        0.000
     10 C19         5.9166   -1.0890    0.2678 C.ar       1 <1>        0.000
     11 C20         4.8806   -3.0647   -0.6154 C.ar       1 <1>        0.000
     12 C21         6.0355   -2.3802   -0.2426 C.ar       1 <1>        0.000
     13 H           0.0365    0.5460    1.6746 H.spc      1 <1>        0.000
     14 H          -1.1453    1.2040    0.7202 H.spc      1 <1>        0.000
     15 H           0.4828    1.7575   -0.9757 H.spc      1 <1>        0.000
     16 H           0.8049    2.5566    0.6018 H.spc      1 <1>        0.000
     17 H          -0.5554   -0.2882   -1.0904 H.spc      1 <1>        0.000
     18 H          -1.1014   -1.1457    0.3906 H.spc      1 <1>        0.000
     19 H           2.6993    1.3517   -0.7632 H.spc      1 <1>        0.000
     20 H           2.5727    1.1961    1.0935 H.spc      1 <1>        0.000
     21 H           1.0149   -1.8237    0.9494 H.spc      1 <1>        0.000
     22 H           1.0455   -1.8885   -0.9148 H.spc      1 <1>        0.000
     23 H           4.5942    0.5079    0.8114 H.spc      1 <1>        0.000
     24 H           2.7423   -3.0254   -0.7603 H.spc      1 <1>        0.000
     25 H           6.8075   -0.5447    0.5811 H.spc      1 <1>        0.000
     26 H           4.9529   -4.0812   -1.0021 H.spc      1 <1>        0.000
     27 H           7.0150   -2.8466   -0.3484 H.spc      1 <1>        0.000
@<TRIPOS>BOND
     1    8   10 ar 
     2    4    6 1  
     3    9   11 ar 
     4    2    4 1  
     5   11   12 ar 
     6    5    6 1  
     7    1    3 1  
     8   10   12 ar 
     9    1    2 1  
    10    7    9 ar 
    11    7    8 ar 
    12    6    7 1  
    13    3    5 1  
    14    1   13 1  
    15    1   14 1  
    16    2   15 1  
    17    2   16 1  
    18    3   17 1  
    19    3   18 1  
    20    4   19 1  
    21    4   20 1  
    22    5   21 1  
    23    5   22 1  
    24    8   23 1  
    25    9   24 1  
    26   10   25 1  
    27   11   26 1  
    28   12   27 1  
# Name:          frag5-532-259/138278
# Creation time: Sat Jun  5 12:53:41 2010


@<TRIPOS>MOLECULE
frag5-532-259/138278
   27    28     1     1     1
SMALL
USER_CHARGES


@<TRIPOS>ATOM
      1 N4         -0.1016    0.9999    0.6500 N.4        1 <1>        0.000
      2 C12         0.6126    1.3800   -0.5859 C.3        1 <1>        0.000
      3 C13        -0.2569   -0.4687    0.6684 C.3        1 <1>        0.000
      4 C14         2.0404    0.7778   -0.6102 C.3        1 <1>        0.000
      5 C15         1.1233   -1.1700    0.7284 C.3        1 <1>        0.000
      6 N5          2.2367   -0.5487   -0.0047 N.pl3      1 <1>        0.000
      7 C16         3.4605   -1.1584   -0.0546 C.ar       1 <1>        0.000
      8 C17         4.4245   -0.9954    0.9615 C.ar       1 <1>        0.000
      9 C18         3.8379   -2.0029   -1.1188 C.ar       1 <1>        0.000
     10 C19         5.7043   -1.5467    0.8762 C.ar       1 <1>        0.000
     11 C20         5.1147   -2.5586   -1.2181 C.ar       1 <1>        0.000
     12 C21         6.0620   -2.3250   -0.2232 C.ar       1 <1>        0.000
     13 H           0.4288    1.3043    1.4664 H.spc      1 <1>        0.000
     14 H          -1.0179    1.4473    0.6743 H.spc      1 <1>        0.000
     15 H           0.0573    0.9975   -1.4423 H.spc      1 <1>        0.000
     16 H           0.6908    2.4665   -0.6244 H.spc      1 <1>        0.000
     17 H          -0.7681   -0.7785   -0.2431 H.spc      1 <1>        0.000
     18 H          -0.8313   -0.7494    1.5512 H.spc      1 <1>        0.000
     19 H           2.2861    0.6550   -1.6650 H.spc      1 <1>        0.000
     20 H           2.6535    1.4598   -0.0210 H.spc      1 <1>        0.000
     21 H           1.4165   -1.1486    1.7780 H.spc      1 <1>        0.000
     22 H           0.9759   -2.1452    0.2643 H.spc      1 <1>        0.000
     23 H           4.1605   -0.4172    1.8470 H.spc      1 <1>        0.000
     24 H           3.1052   -2.2304   -1.8931 H.spc      1 <1>        0.000
     25 H           6.4266   -1.3677    1.6726 H.spc      1 <1>        0.000
     26 H           5.3717   -3.1778   -2.0775 H.spc      1 <1>        0.000
     27 H           7.0652   -2.7437   -0.3034 H.spc      1 <1>        0.000
@<TRIPOS>BOND
     1    8   10 ar 
     2    4    6 1  
     3    9   11 ar 
     4    2    4 1  
     5   11   12 ar 
     6    5    6 1  
     7    1    3 1  
     8   10   12 ar 
     9    1    2 1  
    10    7    9 ar 
    11    7    8 ar 
    12    6    7 1  
    13    3    5 1  
    14    1   13 1  
    15    1   14 1  
    16    2   15 1  
    17    2   16 1  
    18    3   17 1  
    19    3   18 1  
    20    4   19 1  
    21    4   20 1  
    22    5   21 1  
    23    5   22 1  
    24    8   23 1  
    25    9   24 1  
    26   10   25 1  
    27   11   26 1  
    28   12   27 1  
# Name:          frag5-532-259/138278 -- energy: -2.183226
# Creation time: Sat Jun  5 12:53:41 2010


@<TRIPOS>MOLECULE
frag5-532-259/138278 -- energy: -2.183226
   27    28     1     1     1
SMALL
USER_CHARGES


@<TRIPOS>ATOM
      1 N4         -0.2373    0.7393    0.7112 N.4        1 <1>        0.000
      2 C12         0.7677    1.6082    0.0658 C.3        1 <1>        0.000
      3 C13        -0.3240   -0.5225   -0.0513 C.3        1 <1>        0.000
      4 C14         2.1732    0.9598    0.1073 C.3        1 <1>        0.000
      5 C15         1.0178   -1.2927   -0.0025 C.3        1 <1>        0.000
      6 N5          2.2592   -0.5041   -0.0095 N.pl3      1 <1>        0.000
      7 C16         3.4758   -1.1262   -0.0453 C.ar       1 <1>        0.000
      8 C17         4.6615   -0.4905    0.3792 C.ar       1 <1>        0.000
      9 C18         3.6321   -2.4541   -0.4956 C.ar       1 <1>        0.000
     10 C19         5.9166   -1.0890    0.2678 C.ar       1 <1>        0.000
     11 C20         4.8806   -3.0647   -0.6154 C.ar       1 <1>        0.000
     12 C21         6.0355   -2.3802   -0.2426 C.ar       1 <1>        0.000
     13 H           0.0365    0.5460    1.6746 H.spc      1 <1>        0.000
     14 H          -1.1453    1.2040    0.7202 H.spc      1 <1>        0.000
     15 H           0.4828    1.7575   -0.9757 H.spc      1 <1>        0.000
     16 H           0.8049    2.5566    0.6018 H.spc      1 <1>        0.000
     17 H          -0.5554   -0.2882   -1.0904 H.spc      1 <1>        0.000
     18 H          -1.1014   -1.1457    0.3906 H.spc      1 <1>        0.000
     19 H           2.6993    1.3517   -0.7632 H.spc      1 <1>        0.000
     20 H           2.5727    1.1961    1.0935 H.spc      1 <1>        0.000
     21 H           1.0149   -1.8237    0.9494 H.spc      1 <1>        0.000
     22 H           1.0455   -1.8885   -0.9148 H.spc      1 <1>        0.000
     23 H           4.5942    0.5079    0.8114 H.spc      1 <1>        0.000
     24 H           2.7423   -3.0254   -0.7603 H.spc      1 <1>        0.000
     25 H           6.8075   -0.5447    0.5811 H.spc      1 <1>        0.000
     26 H           4.9529   -4.0812   -1.0021 H.spc      1 <1>        0.000
     27 H           7.0150   -2.8466   -0.3484 H.spc      1 <1>        0.000
@<TRIPOS>BOND
     1    8   10 ar 
     2    4    6 1  
     3    9   11 ar 
     4    2    4 1  
     5   11   12 ar 
     6    5    6 1  
     7    1    3 1  
     8   10   12 ar 
     9    1    2 1  
    10    7    9 ar 
    11    7    8 ar 
    12    6    7 1  
    13    3    5 1  
    14    1   13 1  
    15    1   14 1  
    16    2   15 1  
    17    2   16 1  
    18    3   17 1  
    19    3   18 1  
    20    4   19 1  
    21    4   20 1  
    22    5   21 1  
    23    5   22 1  
    24    8   23 1  
    25    9   24 1  
    26   10   25 1  
    27   11   26 1  
    28   12   27 1  
# Name:          frag5-532-259/138278 -- energy: -2.696493
# Creation time: Sat Jun  5 12:53:41 2010


@<TRIPOS>MOLECULE
frag5-532-259/138278 -- energy: -2.696493
   27    28     1     1     1
SMALL
USER_CHARGES


@<TRIPOS>ATOM
      1 N4         -0.1016    0.9999    0.6500 N.4        1 <1>        0.000
      2 C12         0.6126    1.3800   -0.5859 C.3        1 <1>        0.000
      3 C13        -0.2569   -0.4687    0.6684 C.3        1 <1>        0.000
      4 C14         2.0404    0.7778   -0.6102 C.3        1 <1>        0.000
      5 C15         1.1233   -1.1700    0.7284 C.3        1 <1>        0.000
      6 N5          2.2367   -0.5487   -0.0047 N.pl3      1 <1>        0.000
      7 C16         3.4605   -1.1584   -0.0546 C.ar       1 <1>        0.000
      8 C17         4.4245   -0.9954    0.9615 C.ar       1 <1>        0.000
      9 C18         3.8379   -2.0029   -1.1188 C.ar       1 <1>        0.000
     10 C19         5.7043   -1.5467    0.8762 C.ar       1 <1>        0.000
     11 C20         5.1147   -2.5586   -1.2181 C.ar       1 <1>        0.000
     12 C21         6.0620   -2.3250   -0.2232 C.ar       1 <1>        0.000
     13 H           0.4288    1.3043    1.4664 H.spc      1 <1>        0.000
     14 H          -1.0179    1.4473    0.6743 H.spc      1 <1>        0.000
     15 H           0.0573    0.9975   -1.4423 H.spc      1 <1>        0.000
     16 H           0.6908    2.4665   -0.6244 H.spc      1 <1>        0.000
     17 H          -0.7681   -0.7785   -0.2431 H.spc      1 <1>        0.000
     18 H          -0.8313   -0.7494    1.5512 H.spc      1 <1>        0.000
     19 H           2.2861    0.6550   -1.6650 H.spc      1 <1>        0.000
     20 H           2.6535    1.4598   -0.0210 H.spc      1 <1>        0.000
     21 H           1.4165   -1.1486    1.7780 H.spc      1 <1>        0.000
     22 H           0.9759   -2.1452    0.2643 H.spc      1 <1>        0.000
     23 H           4.1605   -0.4172    1.8470 H.spc      1 <1>        0.000
     24 H           3.1052   -2.2304   -1.8931 H.spc      1 <1>        0.000
     25 H           6.4266   -1.3677    1.6726 H.spc      1 <1>        0.000
     26 H           5.3717   -3.1778   -2.0775 H.spc      1 <1>        0.000
     27 H           7.0652   -2.7437   -0.3034 H.spc      1 <1>        0.000
@<TRIPOS>BOND
     1    8   10 ar 
     2    4    6 1  
     3    9   11 ar 
     4    2    4 1  
     5   11   12 ar 
     6    5    6 1  
     7    1    3 1  
     8   10   12 ar 
     9    1    2 1  
    10    7    9 ar 
    11    7    8 ar 
    12    6    7 1  
    13    3    5 1  
    14    1   13 1  
    15    1   14 1  
    16    2   15 1  
    17    2   16 1  
    18    3   17 1  
    19    3   18 1  
    20    4   19 1  
    21    4   20 1  
    22    5   21 1  
    23    5   22 1  
    24    8   23 1  
    25    9   24 1  
    26   10   25 1  
    27   11   26 1  
    28   12   27 1  
