#      Rotatable Fragment
#      Build by yxyuan
#
# Name:          frag4-371-87/48856
# Creation time: Sat Jun  5 12:53:31 2010


@<TRIPOS>MOLECULE
frag4-371-87/48856
   18    18     1     1     1
SMALL
USER_CHARGES


@<TRIPOS>ATOM
      1 C8         -0.4434    0.8793    0.6948 C.3        1 <1>        0.000
      2 C9         -1.5311    1.8545    0.2895 C.3        1 <1>        0.000
      3 C10        -2.7899    1.1994   -0.2369 C.3        1 <1>        0.000
      4 C11        -3.3043    0.1472    0.7201 C.3        1 <1>        0.000
      5 C12        -2.5017    0.0455    1.9983 C.3        1 <1>        0.000
      6 C13        -1.0467   -0.0967    1.6568 C.3        1 <1>        0.000
      7 H          -0.0533    0.3594   -0.1802 H.spc      1 <1>        0.000
      8 H           0.3877    1.4086    1.1609 H.spc      1 <1>        0.000
      9 H          -1.1279    2.4683   -0.5160 H.spc      1 <1>        0.000
     10 H          -1.8098    2.4137    1.1827 H.spc      1 <1>        0.000
     11 H          -2.5593    0.7198   -1.1882 H.spc      1 <1>        0.000
     12 H          -3.5563    1.9655   -0.3544 H.spc      1 <1>        0.000
     13 H          -4.3218    0.4252    0.9948 H.spc      1 <1>        0.000
     14 H          -3.2358   -0.8158    0.2141 H.spc      1 <1>        0.000
     15 H          -2.8304   -0.8232    2.5688 H.spc      1 <1>        0.000
     16 H          -2.6511    0.9442    2.5968 H.spc      1 <1>        0.000
     17 H          -0.9605   -1.0684    1.1705 H.spc      1 <1>        0.000
     18 H          -0.5157    0.0612    2.5955 H.spc      1 <1>        0.000
@<TRIPOS>BOND
     1    4    5 1  
     2    5    6 1  
     3    1    6 1  
     4    1    2 1  
     5    2    3 1  
     6    3    4 1  
     7    1    7 1  
     8    1    8 1  
     9    2    9 1  
    10    2   10 1  
    11    3   11 1  
    12    3   12 1  
    13    4   13 1  
    14    4   14 1  
    15    5   15 1  
    16    5   16 1  
    17    6   17 1  
    18    6   18 1  
# Name:          frag4-371-87/48856 -- energy: -0.973205
# Creation time: Sat Jun  5 12:53:31 2010


@<TRIPOS>MOLECULE
frag4-371-87/48856 -- energy: -0.973205
   18    18     1     1     1
SMALL
USER_CHARGES


@<TRIPOS>ATOM
      1 C8         -0.4434    0.8793    0.6948 C.3        1 <1>        0.000
      2 C9         -1.5311    1.8545    0.2895 C.3        1 <1>        0.000
      3 C10        -2.7899    1.1994   -0.2369 C.3        1 <1>        0.000
      4 C11        -3.3043    0.1472    0.7201 C.3        1 <1>        0.000
      5 C12        -2.5017    0.0455    1.9983 C.3        1 <1>        0.000
      6 C13        -1.0467   -0.0967    1.6568 C.3        1 <1>        0.000
      7 H          -0.0533    0.3594   -0.1802 H.spc      1 <1>        0.000
      8 H           0.3877    1.4086    1.1609 H.spc      1 <1>        0.000
      9 H          -1.1279    2.4683   -0.5160 H.spc      1 <1>        0.000
     10 H          -1.8098    2.4137    1.1827 H.spc      1 <1>        0.000
     11 H          -2.5593    0.7198   -1.1882 H.spc      1 <1>        0.000
     12 H          -3.5563    1.9655   -0.3544 H.spc      1 <1>        0.000
     13 H          -4.3218    0.4252    0.9948 H.spc      1 <1>        0.000
     14 H          -3.2358   -0.8158    0.2141 H.spc      1 <1>        0.000
     15 H          -2.8304   -0.8232    2.5688 H.spc      1 <1>        0.000
     16 H          -2.6511    0.9442    2.5968 H.spc      1 <1>        0.000
     17 H          -0.9605   -1.0684    1.1705 H.spc      1 <1>        0.000
     18 H          -0.5157    0.0612    2.5955 H.spc      1 <1>        0.000
@<TRIPOS>BOND
     1    4    5 1  
     2    5    6 1  
     3    1    6 1  
     4    1    2 1  
     5    2    3 1  
     6    3    4 1  
     7    1    7 1  
     8    1    8 1  
     9    2    9 1  
    10    2   10 1  
    11    3   11 1  
    12    3   12 1  
    13    4   13 1  
    14    4   14 1  
    15    5   15 1  
    16    5   16 1  
    17    6   17 1  
    18    6   18 1  
