#      Rotatable Fragment
#      Build by yxyuan
#
# Name:          frag5-581-41/41815
# Creation time: Sat Jun  5 12:52:56 2010


@<TRIPOS>MOLECULE
frag5-581-41/41815
   21    22     1     1     1
SMALL
USER_CHARGES


@<TRIPOS>ATOM
      1 O1          5.2120    3.2791    1.6237 O.3        1 <1>        0.000
      2 C1          4.9204    1.8851    1.6582 C.3        1 <1>        0.000
      3 C2          3.4527    1.6813    2.0791 C.3        1 <1>        0.000
      4 C3          2.4332    2.5062    1.2689 C.3        1 <1>        0.000
      5 C4          2.8589    3.9229    1.6139 C.ar       1 <1>        0.000
      6 C5          4.2297    4.2405    1.7836 C.ar       1 <1>        0.000
      7 C6          4.5758    5.5492    2.1136 C.ar       1 <1>        0.000
      8 C7          3.6269    6.5609    2.2897 C.ar       1 <1>        0.000
      9 C8          2.2731    6.2223    2.1118 C.ar       1 <1>        0.000
     10 C9          1.9013    4.9271    1.7784 C.ar       1 <1>        0.000
     11 O2          4.0279    7.8361    2.6249 O.3        1 <1>        0.000
     12 H           5.0792    1.4549    0.6694 H.spc      1 <1>        0.000
     13 H           5.5771    1.3929    2.3756 H.spc      1 <1>        0.000
     14 H           3.3712    2.0047    3.1168 H.spc      1 <1>        0.000
     15 H           3.2165    0.6304    1.9121 H.spc      1 <1>        0.000
     16 H           1.3947    2.2870    1.5171 H.spc      1 <1>        0.000
     17 H           2.4453    2.2920    0.2002 H.spc      1 <1>        0.000
     18 H           5.6303    5.7945    2.2397 H.spc      1 <1>        0.000
     19 H           1.5063    6.9867    2.2374 H.spc      1 <1>        0.000
     20 H           0.8461    4.6898    1.6428 H.spc      1 <1>        0.000
     21 H           3.2566    8.4019    2.7063 H.spc      1 <1>        0.000
@<TRIPOS>BOND
     1    2    3 1  
     2    3    4 1  
     3    9   10 ar 
     4    4    5 1  
     5    5    6 ar 
     6    7    8 ar 
     7    5   10 ar 
     8    8   11 1  
     9    6    7 ar 
    10    1    2 1  
    11    1    6 1  
    12    8    9 ar 
    13    2   12 1  
    14    2   13 1  
    15    3   14 1  
    16    3   15 1  
    17    4   16 1  
    18    4   17 1  
    19    7   18 1  
    20    9   19 1  
    21   10   20 1  
    22   11   21 1  
# Name:          frag5-581-41/41815 -- energy: -0.957034
# Creation time: Sat Jun  5 12:52:56 2010


@<TRIPOS>MOLECULE
frag5-581-41/41815 -- energy: -0.957034
   21    22     1     1     1
SMALL
USER_CHARGES


@<TRIPOS>ATOM
      1 O1          5.2120    3.2791    1.6237 O.3        1 <1>        0.000
      2 C1          4.9204    1.8851    1.6582 C.3        1 <1>        0.000
      3 C2          3.4527    1.6813    2.0791 C.3        1 <1>        0.000
      4 C3          2.4332    2.5062    1.2689 C.3        1 <1>        0.000
      5 C4          2.8589    3.9229    1.6139 C.ar       1 <1>        0.000
      6 C5          4.2297    4.2405    1.7836 C.ar       1 <1>        0.000
      7 C6          4.5758    5.5492    2.1136 C.ar       1 <1>        0.000
      8 C7          3.6269    6.5609    2.2897 C.ar       1 <1>        0.000
      9 C8          2.2731    6.2223    2.1118 C.ar       1 <1>        0.000
     10 C9          1.9013    4.9271    1.7784 C.ar       1 <1>        0.000
     11 O2          4.0279    7.8361    2.6249 O.3        1 <1>        0.000
     12 H           5.0792    1.4549    0.6694 H.spc      1 <1>        0.000
     13 H           5.5771    1.3929    2.3756 H.spc      1 <1>        0.000
     14 H           3.3712    2.0047    3.1168 H.spc      1 <1>        0.000
     15 H           3.2165    0.6304    1.9121 H.spc      1 <1>        0.000
     16 H           1.3947    2.2870    1.5171 H.spc      1 <1>        0.000
     17 H           2.4453    2.2920    0.2002 H.spc      1 <1>        0.000
     18 H           5.6303    5.7945    2.2397 H.spc      1 <1>        0.000
     19 H           1.5063    6.9867    2.2374 H.spc      1 <1>        0.000
     20 H           0.8461    4.6898    1.6428 H.spc      1 <1>        0.000
     21 H           3.2566    8.4019    2.7063 H.spc      1 <1>        0.000
@<TRIPOS>BOND
     1    2    3 1  
     2    3    4 1  
     3    9   10 ar 
     4    4    5 1  
     5    5    6 ar 
     6    7    8 ar 
     7    5   10 ar 
     8    8   11 1  
     9    6    7 ar 
    10    1    2 1  
    11    1    6 1  
    12    8    9 ar 
    13    2   12 1  
    14    2   13 1  
    15    3   14 1  
    16    3   15 1  
    17    4   16 1  
    18    4   17 1  
    19    7   18 1  
    20    9   19 1  
    21   10   20 1  
    22   11   21 1  
