#      Rotatable Fragment
#      Build by yxyuan
#
# Name:          frag4-444-43/48856
# Creation time: Sat Jun  5 12:52:48 2010


@<TRIPOS>MOLECULE
frag4-444-43/48856
   15    15     1     1     1
SMALL
USER_CHARGES


@<TRIPOS>ATOM
      1 N1         -4.5709   -3.1788    0.6587 N.3        1 <1>        0.000
      2 C1         -5.5962   -2.6579   -0.1641 C.3        1 <1>        0.000
      3 N2         -6.8595   -2.7836    0.4549 N.3        1 <1>        0.000
      4 C2         -6.9872   -2.5127    1.8310 C.3        1 <1>        0.000
      5 N3         -5.9942   -3.2935    2.4521 N.3        1 <1>        0.000
      6 C3         -4.6481   -3.1271    2.0752 C.3        1 <1>        0.000
      7 H          -3.7653   -2.5927    0.4399 H.spc      1 <1>        0.000
      8 H          -5.6096   -3.2167   -1.0999 H.spc      1 <1>        0.000
      9 H          -5.3982   -1.6006   -0.3402 H.spc      1 <1>        0.000
     10 H          -7.0961   -3.7715    0.3624 H.spc      1 <1>        0.000
     11 H          -7.9829   -2.7592    2.1996 H.spc      1 <1>        0.000
     12 H          -6.8592   -1.4519    2.0465 H.spc      1 <1>        0.000
     13 H          -6.2195   -4.2540    2.1933 H.spc      1 <1>        0.000
     14 H          -4.2755   -2.1679    2.4347 H.spc      1 <1>        0.000
     15 H          -4.0377   -3.9177    2.5115 H.spc      1 <1>        0.000
@<TRIPOS>BOND
     1    1    2 1  
     2    1    6 1  
     3    2    3 1  
     4    3    4 1  
     5    4    5 1  
     6    5    6 1  
     7    1    7 1  
     8    2    8 1  
     9    2    9 1  
    10    3   10 1  
    11    4   11 1  
    12    4   12 1  
    13    5   13 1  
    14    6   14 1  
    15    6   15 1  
# Name:          frag4-444-43/48856 -- energy: -0.644530
# Creation time: Sat Jun  5 12:52:48 2010


@<TRIPOS>MOLECULE
frag4-444-43/48856 -- energy: -0.644530
   15    15     1     1     1
SMALL
USER_CHARGES


@<TRIPOS>ATOM
      1 N1         -4.5709   -3.1788    0.6587 N.3        1 <1>        0.000
      2 C1         -5.5962   -2.6579   -0.1641 C.3        1 <1>        0.000
      3 N2         -6.8595   -2.7836    0.4549 N.3        1 <1>        0.000
      4 C2         -6.9872   -2.5127    1.8310 C.3        1 <1>        0.000
      5 N3         -5.9942   -3.2935    2.4521 N.3        1 <1>        0.000
      6 C3         -4.6481   -3.1271    2.0752 C.3        1 <1>        0.000
      7 H          -3.7653   -2.5927    0.4399 H.spc      1 <1>        0.000
      8 H          -5.6096   -3.2167   -1.0999 H.spc      1 <1>        0.000
      9 H          -5.3982   -1.6006   -0.3402 H.spc      1 <1>        0.000
     10 H          -7.0961   -3.7715    0.3624 H.spc      1 <1>        0.000
     11 H          -7.9829   -2.7592    2.1996 H.spc      1 <1>        0.000
     12 H          -6.8592   -1.4519    2.0465 H.spc      1 <1>        0.000
     13 H          -6.2195   -4.2540    2.1933 H.spc      1 <1>        0.000
     14 H          -4.2755   -2.1679    2.4347 H.spc      1 <1>        0.000
     15 H          -4.0377   -3.9177    2.5115 H.spc      1 <1>        0.000
@<TRIPOS>BOND
     1    1    2 1  
     2    1    6 1  
     3    2    3 1  
     4    3    4 1  
     5    4    5 1  
     6    5    6 1  
     7    1    7 1  
     8    2    8 1  
     9    2    9 1  
    10    3   10 1  
    11    4   11 1  
    12    4   12 1  
    13    5   13 1  
    14    6   14 1  
    15    6   15 1  
