#      Rotatable Fragment
#      Build by yxyuan
#
# Name:          frag5-559-155/138278
# Creation time: Sat Jun  5 12:53:43 2010


@<TRIPOS>MOLECULE
frag5-559-155/138278
   11    11     1     1     1
SMALL
USER_CHARGES


@<TRIPOS>ATOM
      1 C1         -0.9791    0.7640   -0.2792 C.3        1 <1>        0.000
      2 C2         -2.0647   -0.1681   -0.6813 C.3        1 <1>        0.000
      3 N1          0.0347   -0.1393    0.1256 N.am       1 <1>        0.000
      4 O1         -1.7151   -1.4605   -0.2212 O.3        1 <1>        0.000
      5 C5         -0.4525   -1.4118    0.3044 C.2        1 <1>        0.000
      6 O2          0.1144   -2.3505    0.8280 O.2        1 <1>        0.000
      7 H          -1.2740    1.4663    0.5005 H.spc      1 <1>        0.000
      8 H          -0.6679    1.4402   -1.0754 H.spc      1 <1>        0.000
      9 H          -2.1808   -0.1700   -1.7651 H.spc      1 <1>        0.000
     10 H          -3.0139    0.1453   -0.2466 H.spc      1 <1>        0.000
     11 H           1.0100    0.1236    0.2674 H.spc      1 <1>        0.000
@<TRIPOS>BOND
     1    1    2 1  
     2    1    3 1  
     3    2    4 1  
     4    3    5 am 
     5    4    5 1  
     6    5    6 2  
     7    1    7 1  
     8    1    8 1  
     9    2    9 1  
    10    2   10 1  
    11    3   11 1  
# Name:          frag5-559-155/138278 -- energy: -0.555539
# Creation time: Sat Jun  5 12:53:43 2010


@<TRIPOS>MOLECULE
frag5-559-155/138278 -- energy: -0.555539
   11    11     1     1     1
SMALL
USER_CHARGES


@<TRIPOS>ATOM
      1 C1         -0.9791    0.7640   -0.2792 C.3        1 <1>        0.000
      2 C2         -2.0647   -0.1681   -0.6813 C.3        1 <1>        0.000
      3 N1          0.0347   -0.1393    0.1256 N.am       1 <1>        0.000
      4 O1         -1.7151   -1.4605   -0.2212 O.3        1 <1>        0.000
      5 C5         -0.4525   -1.4118    0.3044 C.2        1 <1>        0.000
      6 O2          0.1144   -2.3505    0.8280 O.2        1 <1>        0.000
      7 H          -1.2740    1.4663    0.5005 H.spc      1 <1>        0.000
      8 H          -0.6679    1.4402   -1.0754 H.spc      1 <1>        0.000
      9 H          -2.1808   -0.1700   -1.7651 H.spc      1 <1>        0.000
     10 H          -3.0139    0.1453   -0.2466 H.spc      1 <1>        0.000
     11 H           1.0100    0.1236    0.2674 H.spc      1 <1>        0.000
@<TRIPOS>BOND
     1    1    2 1  
     2    1    3 1  
     3    2    4 1  
     4    3    5 am 
     5    4    5 1  
     6    5    6 2  
     7    1    7 1  
     8    1    8 1  
     9    2    9 1  
    10    2   10 1  
    11    3   11 1  
