#      Rotatable Fragment
#      Build by yxyuan
#
# Name:          frag4-381-256/150395
# Creation time: Sat Jun  5 12:53:33 2010


@<TRIPOS>MOLECULE
frag4-381-256/150395
   18    19     1     1     1
SMALL
USER_CHARGES


@<TRIPOS>ATOM
      1 N1          3.0122    0.1312   -0.2547 N.pl3      1 <1>        0.000
      2 C1          1.7582   -0.3530   -0.1861 C.ar       1 <1>        0.000
      3 C2          3.9600   -0.8819    0.0694 C.3        1 <1>        0.000
      4 C4          1.7884   -1.8602    0.0148 C.ar       1 <1>        0.000
      5 C5          0.4753    0.3100   -0.2414 C.ar       1 <1>        0.000
      6 C6          3.2310   -2.2380    0.0277 C.3        1 <1>        0.000
      7 C9          0.4828   -2.6347    0.1139 C.ar       1 <1>        0.000
      8 C10        -0.8485   -0.4369   -0.0994 C.ar       1 <1>        0.000
      9 C12        -0.7569   -1.8797    0.0649 C.ar       1 <1>        0.000
     10 H           3.2510    1.0909   -0.5043 H.spc      1 <1>        0.000
     11 H           4.3775   -0.7067    1.0609 H.spc      1 <1>        0.000
     12 H           4.7835   -0.8725   -0.6446 H.spc      1 <1>        0.000
     13 H           0.4519    1.3894   -0.3909 H.spc      1 <1>        0.000
     14 H           3.5130   -2.8365   -0.8386 H.spc      1 <1>        0.000
     15 H           3.4875   -2.8754    0.8739 H.spc      1 <1>        0.000
     16 H           0.4779   -3.7197    0.2182 H.spc      1 <1>        0.000
     17 H          -1.8074    0.0810   -0.1199 H.spc      1 <1>        0.000
     18 H          -1.6895   -2.4362    0.1583 H.spc      1 <1>        0.000
@<TRIPOS>BOND
     1    4    6 1  
     2    7    9 ar 
     3    4    7 ar 
     4    8    9 ar 
     5    5    8 ar 
     6    1    2 1  
     7    1    3 1  
     8    2    4 ar 
     9    2    5 ar 
    10    3    6 1  
    11    1   10 1  
    12    3   11 1  
    13    3   12 1  
    14    5   13 1  
    15    6   14 1  
    16    6   15 1  
    17    7   16 1  
    18    8   17 1  
    19    9   18 1  
# Name:          frag4-381-256/150395 -- energy: -1.275483
# Creation time: Sat Jun  5 12:53:33 2010


@<TRIPOS>MOLECULE
frag4-381-256/150395 -- energy: -1.275483
   18    19     1     1     1
SMALL
USER_CHARGES


@<TRIPOS>ATOM
      1 N1          3.0122    0.1312   -0.2547 N.pl3      1 <1>        0.000
      2 C1          1.7582   -0.3530   -0.1861 C.ar       1 <1>        0.000
      3 C2          3.9600   -0.8819    0.0694 C.3        1 <1>        0.000
      4 C4          1.7884   -1.8602    0.0148 C.ar       1 <1>        0.000
      5 C5          0.4753    0.3100   -0.2414 C.ar       1 <1>        0.000
      6 C6          3.2310   -2.2380    0.0277 C.3        1 <1>        0.000
      7 C9          0.4828   -2.6347    0.1139 C.ar       1 <1>        0.000
      8 C10        -0.8485   -0.4369   -0.0994 C.ar       1 <1>        0.000
      9 C12        -0.7569   -1.8797    0.0649 C.ar       1 <1>        0.000
     10 H           3.2510    1.0909   -0.5043 H.spc      1 <1>        0.000
     11 H           4.3775   -0.7067    1.0609 H.spc      1 <1>        0.000
     12 H           4.7835   -0.8725   -0.6446 H.spc      1 <1>        0.000
     13 H           0.4519    1.3894   -0.3909 H.spc      1 <1>        0.000
     14 H           3.5130   -2.8365   -0.8386 H.spc      1 <1>        0.000
     15 H           3.4875   -2.8754    0.8739 H.spc      1 <1>        0.000
     16 H           0.4779   -3.7197    0.2182 H.spc      1 <1>        0.000
     17 H          -1.8074    0.0810   -0.1199 H.spc      1 <1>        0.000
     18 H          -1.6895   -2.4362    0.1583 H.spc      1 <1>        0.000
@<TRIPOS>BOND
     1    4    6 1  
     2    7    9 ar 
     3    4    7 ar 
     4    8    9 ar 
     5    5    8 ar 
     6    1    2 1  
     7    1    3 1  
     8    2    4 ar 
     9    2    5 ar 
    10    3    6 1  
    11    1   10 1  
    12    3   11 1  
    13    3   12 1  
    14    5   13 1  
    15    6   14 1  
    16    6   15 1  
    17    7   16 1  
    18    8   17 1  
    19    9   18 1  
