#      Rotatable Fragment
#      Build by yxyuan
#
# Name:          frag5-574-43/41815
# Creation time: Sat Jun  5 12:52:54 2010


@<TRIPOS>MOLECULE
frag5-574-43/41815
   15    15     1     1     1
SMALL
USER_CHARGES


@<TRIPOS>ATOM
      1 N8          2.0058   -1.7383    1.0235 N.am       1 <1>        0.000
      2 C50         1.7009   -0.5483    0.3656 C.2        1 <1>        0.000
      3 O9          2.5663    0.2216   -0.0423 O.2        1 <1>        0.000
      4 C51         0.2764   -0.1297    0.1199 C.ar       1 <1>        0.000
      5 C52        -0.1159    1.2200   -0.0184 C.ar       1 <1>        0.000
      6 N9         -1.4355    1.5045   -0.2447 N.ar       1 <1>        0.000
      7 C53        -2.4311    0.6125   -0.3506 C.ar       1 <1>        0.000
      8 C54        -2.0915   -0.7346   -0.2211 C.ar       1 <1>        0.000
      9 C55        -0.7415   -1.1083    0.0137 C.ar       1 <1>        0.000
     10 H           2.9792   -1.9983    1.1824 H.spc      1 <1>        0.000
     11 H           1.2555   -2.3494    1.3462 H.spc      1 <1>        0.000
     12 H           0.6195    2.0213    0.0538 H.spc      1 <1>        0.000
     13 H          -3.4596    0.9258   -0.5298 H.spc      1 <1>        0.000
     14 H          -2.8628   -1.5007   -0.3002 H.spc      1 <1>        0.000
     15 H          -0.4854   -2.1631    0.1135 H.spc      1 <1>        0.000
@<TRIPOS>BOND
     1    1    2 am 
     2    2    3 2  
     3    2    4 1  
     4    4    5 ar 
     5    4    9 ar 
     6    5    6 ar 
     7    6    7 ar 
     8    7    8 ar 
     9    8    9 ar 
    10    1   10 1  
    11    1   11 1  
    12    5   12 1  
    13    7   13 1  
    14    8   14 1  
    15    9   15 1  
# Name:          frag5-574-43/41815
# Creation time: Sat Jun  5 12:52:54 2010


@<TRIPOS>MOLECULE
frag5-574-43/41815
   15    15     1     1     1
SMALL
USER_CHARGES


@<TRIPOS>ATOM
      1 N8          2.4565   -0.0567    1.3853 N.am       1 <1>        0.000
      2 C50         1.6895   -0.5970    0.3614 C.2        1 <1>        0.000
      3 O9          2.1161   -1.4544   -0.4095 O.2        1 <1>        0.000
      4 C51         0.2690   -0.1524    0.1285 C.ar       1 <1>        0.000
      5 C52        -0.2184    1.1080    0.5350 C.ar       1 <1>        0.000
      6 N9         -1.5223    1.4270    0.2759 N.ar       1 <1>        0.000
      7 C53        -2.4226    0.6468   -0.3402 C.ar       1 <1>        0.000
      8 C54        -1.9880   -0.6100   -0.7610 C.ar       1 <1>        0.000
      9 C55        -0.6460   -1.0120   -0.5296 C.ar       1 <1>        0.000
     10 H           3.4176   -0.3697    1.5222 H.spc      1 <1>        0.000
     11 H           2.0588    0.6531    2.0004 H.spc      1 <1>        0.000
     12 H           0.4339    1.8154    1.0470 H.spc      1 <1>        0.000
     13 H          -3.4474    0.9798   -0.5046 H.spc      1 <1>        0.000
     14 H          -2.6789   -1.2838   -1.2677 H.spc      1 <1>        0.000
     15 H          -0.3147   -1.9955   -0.8627 H.spc      1 <1>        0.000
@<TRIPOS>BOND
     1    1    2 am 
     2    2    3 2  
     3    2    4 1  
     4    4    5 ar 
     5    4    9 ar 
     6    5    6 ar 
     7    6    7 ar 
     8    7    8 ar 
     9    8    9 ar 
    10    1   10 1  
    11    1   11 1  
    12    5   12 1  
    13    7   13 1  
    14    8   14 1  
    15    9   15 1  
# Name:          frag5-574-43/41815
# Creation time: Sat Jun  5 12:52:54 2010


@<TRIPOS>MOLECULE
frag5-574-43/41815
   15    15     1     1     1
SMALL
USER_CHARGES


@<TRIPOS>ATOM
      1 N8          2.1524   -1.8421    0.1225 N.am       1 <1>        0.000
      2 C50         1.6871   -0.5399    0.3914 C.2        1 <1>        0.000
      3 O9          2.4332    0.3174    0.8698 O.2        1 <1>        0.000
      4 C51         0.2749   -0.1290    0.1228 C.ar       1 <1>        0.000
      5 C52        -0.0674    1.1239   -0.4274 C.ar       1 <1>        0.000
      6 N9         -1.3916    1.4184   -0.6458 N.ar       1 <1>        0.000
      7 C53        -2.4289    0.6084   -0.3769 C.ar       1 <1>        0.000
      8 C54        -2.1372   -0.6430    0.1692 C.ar       1 <1>        0.000
      9 C55        -0.7886   -1.0145    0.4201 C.ar       1 <1>        0.000
     10 H           3.1214   -2.0891    0.3237 H.spc      1 <1>        0.000
     11 H           1.5203   -2.5379   -0.2734 H.spc      1 <1>        0.000
     12 H           0.7080    1.8486   -0.6759 H.spc      1 <1>        0.000
     13 H          -3.4555    0.9153   -0.5767 H.spc      1 <1>        0.000
     14 H          -2.9451   -1.3362    0.4035 H.spc      1 <1>        0.000
     15 H          -0.5705   -1.9935    0.8468 H.spc      1 <1>        0.000
@<TRIPOS>BOND
     1    1    2 am 
     2    2    3 2  
     3    2    4 1  
     4    4    5 ar 
     5    4    9 ar 
     6    5    6 ar 
     7    6    7 ar 
     8    7    8 ar 
     9    8    9 ar 
    10    1   10 1  
    11    1   11 1  
    12    5   12 1  
    13    7   13 1  
    14    8   14 1  
    15    9   15 1  
# Name:          frag5-574-43/41815
# Creation time: Sat Jun  5 12:52:54 2010


@<TRIPOS>MOLECULE
frag5-574-43/41815
   15    15     1     1     1
SMALL
USER_CHARGES


@<TRIPOS>ATOM
      1 N8          2.7463   -0.2198   -0.4101 N.am       1 <1>        0.000
      2 C50         1.6717   -0.5890    0.4137 C.2        1 <1>        0.000
      3 O9          1.8368   -1.3018    1.4048 O.2        1 <1>        0.000
      4 C51         0.2679   -0.1478    0.1341 C.ar       1 <1>        0.000
      5 C52        -0.0576    1.1631   -0.2745 C.ar       1 <1>        0.000
      6 N9         -1.3715    1.4787   -0.5139 N.ar       1 <1>        0.000
      7 C53        -2.4155    0.6435   -0.3924 C.ar       1 <1>        0.000
      8 C54        -2.1413   -0.6646    0.0102 C.ar       1 <1>        0.000
      9 C55        -0.8030   -1.0629    0.2738 C.ar       1 <1>        0.000
     10 H           3.6893   -0.5426   -0.1935 H.spc      1 <1>        0.000
     11 H           2.5843    0.3714   -1.2254 H.spc      1 <1>        0.000
     12 H           0.7230    1.9138   -0.3981 H.spc      1 <1>        0.000
     13 H          -3.4338    0.9728   -0.5993 H.spc      1 <1>        0.000
     14 H          -2.9547   -1.3814    0.1225 H.spc      1 <1>        0.000
     15 H          -0.5984   -2.0865    0.5877 H.spc      1 <1>        0.000
@<TRIPOS>BOND
     1    1    2 am 
     2    2    3 2  
     3    2    4 1  
     4    4    5 ar 
     5    4    9 ar 
     6    5    6 ar 
     7    6    7 ar 
     8    7    8 ar 
     9    8    9 ar 
    10    1   10 1  
    11    1   11 1  
    12    5   12 1  
    13    7   13 1  
    14    8   14 1  
    15    9   15 1  
# Name:          frag5-574-43/41815 -- energy: -0.578296
# Creation time: Sat Jun  5 12:52:54 2010


@<TRIPOS>MOLECULE
frag5-574-43/41815 -- energy: -0.578296
   15    15     1     1     1
SMALL
USER_CHARGES


@<TRIPOS>ATOM
      1 N8          2.0058   -1.7383    1.0235 N.am       1 <1>        0.000
      2 C50         1.7009   -0.5483    0.3656 C.2        1 <1>        0.000
      3 O9          2.5663    0.2216   -0.0423 O.2        1 <1>        0.000
      4 C51         0.2764   -0.1297    0.1199 C.ar       1 <1>        0.000
      5 C52        -0.1159    1.2200   -0.0184 C.ar       1 <1>        0.000
      6 N9         -1.4355    1.5045   -0.2447 N.ar       1 <1>        0.000
      7 C53        -2.4311    0.6125   -0.3506 C.ar       1 <1>        0.000
      8 C54        -2.0915   -0.7346   -0.2211 C.ar       1 <1>        0.000
      9 C55        -0.7415   -1.1083    0.0137 C.ar       1 <1>        0.000
     10 H           2.9792   -1.9983    1.1824 H.spc      1 <1>        0.000
     11 H           1.2555   -2.3494    1.3462 H.spc      1 <1>        0.000
     12 H           0.6195    2.0213    0.0538 H.spc      1 <1>        0.000
     13 H          -3.4596    0.9258   -0.5298 H.spc      1 <1>        0.000
     14 H          -2.8628   -1.5007   -0.3002 H.spc      1 <1>        0.000
     15 H          -0.4854   -2.1631    0.1135 H.spc      1 <1>        0.000
@<TRIPOS>BOND
     1    1    2 am 
     2    2    3 2  
     3    2    4 1  
     4    4    5 ar 
     5    4    9 ar 
     6    5    6 ar 
     7    6    7 ar 
     8    7    8 ar 
     9    8    9 ar 
    10    1   10 1  
    11    1   11 1  
    12    5   12 1  
    13    7   13 1  
    14    8   14 1  
    15    9   15 1  
# Name:          frag5-574-43/41815 -- energy: -0.554300
# Creation time: Sat Jun  5 12:52:55 2010


@<TRIPOS>MOLECULE
frag5-574-43/41815 -- energy: -0.554300
   15    15     1     1     1
SMALL
USER_CHARGES


@<TRIPOS>ATOM
      1 N8          2.4565   -0.0567    1.3853 N.am       1 <1>        0.000
      2 C50         1.6895   -0.5970    0.3614 C.2        1 <1>        0.000
      3 O9          2.1161   -1.4544   -0.4095 O.2        1 <1>        0.000
      4 C51         0.2690   -0.1524    0.1285 C.ar       1 <1>        0.000
      5 C52        -0.2184    1.1080    0.5350 C.ar       1 <1>        0.000
      6 N9         -1.5223    1.4270    0.2759 N.ar       1 <1>        0.000
      7 C53        -2.4226    0.6468   -0.3402 C.ar       1 <1>        0.000
      8 C54        -1.9880   -0.6100   -0.7610 C.ar       1 <1>        0.000
      9 C55        -0.6460   -1.0120   -0.5296 C.ar       1 <1>        0.000
     10 H           3.4176   -0.3697    1.5222 H.spc      1 <1>        0.000
     11 H           2.0588    0.6531    2.0004 H.spc      1 <1>        0.000
     12 H           0.4339    1.8154    1.0470 H.spc      1 <1>        0.000
     13 H          -3.4474    0.9798   -0.5046 H.spc      1 <1>        0.000
     14 H          -2.6789   -1.2838   -1.2677 H.spc      1 <1>        0.000
     15 H          -0.3147   -1.9955   -0.8627 H.spc      1 <1>        0.000
@<TRIPOS>BOND
     1    1    2 am 
     2    2    3 2  
     3    2    4 1  
     4    4    5 ar 
     5    4    9 ar 
     6    5    6 ar 
     7    6    7 ar 
     8    7    8 ar 
     9    8    9 ar 
    10    1   10 1  
    11    1   11 1  
    12    5   12 1  
    13    7   13 1  
    14    8   14 1  
    15    9   15 1  
# Name:          frag5-574-43/41815 -- energy: -0.687242
# Creation time: Sat Jun  5 12:52:55 2010


@<TRIPOS>MOLECULE
frag5-574-43/41815 -- energy: -0.687242
   15    15     1     1     1
SMALL
USER_CHARGES


@<TRIPOS>ATOM
      1 N8          2.1524   -1.8421    0.1225 N.am       1 <1>        0.000
      2 C50         1.6871   -0.5399    0.3914 C.2        1 <1>        0.000
      3 O9          2.4332    0.3174    0.8698 O.2        1 <1>        0.000
      4 C51         0.2749   -0.1290    0.1228 C.ar       1 <1>        0.000
      5 C52        -0.0674    1.1239   -0.4274 C.ar       1 <1>        0.000
      6 N9         -1.3916    1.4184   -0.6458 N.ar       1 <1>        0.000
      7 C53        -2.4289    0.6084   -0.3769 C.ar       1 <1>        0.000
      8 C54        -2.1372   -0.6430    0.1692 C.ar       1 <1>        0.000
      9 C55        -0.7886   -1.0145    0.4201 C.ar       1 <1>        0.000
     10 H           3.1214   -2.0891    0.3237 H.spc      1 <1>        0.000
     11 H           1.5203   -2.5379   -0.2734 H.spc      1 <1>        0.000
     12 H           0.7080    1.8486   -0.6759 H.spc      1 <1>        0.000
     13 H          -3.4555    0.9153   -0.5767 H.spc      1 <1>        0.000
     14 H          -2.9451   -1.3362    0.4035 H.spc      1 <1>        0.000
     15 H          -0.5705   -1.9935    0.8468 H.spc      1 <1>        0.000
@<TRIPOS>BOND
     1    1    2 am 
     2    2    3 2  
     3    2    4 1  
     4    4    5 ar 
     5    4    9 ar 
     6    5    6 ar 
     7    6    7 ar 
     8    7    8 ar 
     9    8    9 ar 
    10    1   10 1  
    11    1   11 1  
    12    5   12 1  
    13    7   13 1  
    14    8   14 1  
    15    9   15 1  
# Name:          frag5-574-43/41815 -- energy: -0.659383
# Creation time: Sat Jun  5 12:52:55 2010


@<TRIPOS>MOLECULE
frag5-574-43/41815 -- energy: -0.659383
   15    15     1     1     1
SMALL
USER_CHARGES


@<TRIPOS>ATOM
      1 N8          2.7463   -0.2198   -0.4101 N.am       1 <1>        0.000
      2 C50         1.6717   -0.5890    0.4137 C.2        1 <1>        0.000
      3 O9          1.8368   -1.3018    1.4048 O.2        1 <1>        0.000
      4 C51         0.2679   -0.1478    0.1341 C.ar       1 <1>        0.000
      5 C52        -0.0576    1.1631   -0.2745 C.ar       1 <1>        0.000
      6 N9         -1.3715    1.4787   -0.5139 N.ar       1 <1>        0.000
      7 C53        -2.4155    0.6435   -0.3924 C.ar       1 <1>        0.000
      8 C54        -2.1413   -0.6646    0.0102 C.ar       1 <1>        0.000
      9 C55        -0.8030   -1.0629    0.2738 C.ar       1 <1>        0.000
     10 H           3.6893   -0.5426   -0.1935 H.spc      1 <1>        0.000
     11 H           2.5843    0.3714   -1.2254 H.spc      1 <1>        0.000
     12 H           0.7230    1.9138   -0.3981 H.spc      1 <1>        0.000
     13 H          -3.4338    0.9728   -0.5993 H.spc      1 <1>        0.000
     14 H          -2.9547   -1.3814    0.1225 H.spc      1 <1>        0.000
     15 H          -0.5984   -2.0865    0.5877 H.spc      1 <1>        0.000
@<TRIPOS>BOND
     1    1    2 am 
     2    2    3 2  
     3    2    4 1  
     4    4    5 ar 
     5    4    9 ar 
     6    5    6 ar 
     7    6    7 ar 
     8    7    8 ar 
     9    8    9 ar 
    10    1   10 1  
    11    1   11 1  
    12    5   12 1  
    13    7   13 1  
    14    8   14 1  
    15    9   15 1  
