#      Rotatable Fragment
#      Build by yxyuan
#
# Name:          frag3-097-637/96164
# Creation time: Sat Jun  5 12:52:46 2010


@<TRIPOS>MOLECULE
frag3-097-637/96164
    8     7     1     1     1
SMALL
USER_CHARGES


@<TRIPOS>ATOM
      1 N4         -1.2382    0.1752    0.1138 N.am       1 <1>        0.000
      2 C19        -0.0099   -0.4194   -0.2076 C.2        1 <1>        0.000
      3 N5          1.2402    0.1945   -0.0494 N.am       1 <1>        0.000
      4 O1         -0.0311   -1.5805   -0.6671 O.2        1 <1>        0.000
      5 H          -2.1071   -0.3394   -0.0301 H.spc      1 <1>        0.000
      6 H          -1.2630    1.1223    0.4916 H.spc      1 <1>        0.000
      7 H           2.0906   -0.3066   -0.3065 H.spc      1 <1>        0.000
      8 H           1.2995    1.1423    0.3228 H.spc      1 <1>        0.000
@<TRIPOS>BOND
     1    1    2 am 
     2    2    3 am 
     3    2    4 2  
     4    1    5 1  
     5    1    6 1  
     6    3    7 1  
     7    3    8 1  
# Name:          frag3-097-637/96164 -- energy: -0.228807
# Creation time: Sat Jun  5 12:52:46 2010


@<TRIPOS>MOLECULE
frag3-097-637/96164 -- energy: -0.228807
    8     7     1     1     1
SMALL
USER_CHARGES


@<TRIPOS>ATOM
      1 N4         -1.2382    0.1752    0.1138 N.am       1 <1>        0.000
      2 C19        -0.0099   -0.4194   -0.2076 C.2        1 <1>        0.000
      3 N5          1.2402    0.1945   -0.0494 N.am       1 <1>        0.000
      4 O1         -0.0311   -1.5805   -0.6671 O.2        1 <1>        0.000
      5 H          -2.1071   -0.3394   -0.0301 H.spc      1 <1>        0.000
      6 H          -1.2630    1.1223    0.4916 H.spc      1 <1>        0.000
      7 H           2.0906   -0.3066   -0.3065 H.spc      1 <1>        0.000
      8 H           1.2995    1.1423    0.3228 H.spc      1 <1>        0.000
@<TRIPOS>BOND
     1    1    2 am 
     2    2    3 am 
     3    2    4 2  
     4    1    5 1  
     5    1    6 1  
     6    3    7 1  
     7    3    8 1  
