#      Rotatable Fragment
#      Build by yxyuan
#
# Name:          frag2-034-236/92655
# Creation time: Sat Jun  5 12:51:57 2010


@<TRIPOS>MOLECULE
frag2-034-236/92655
    4     3     1     1     1
SMALL
USER_CHARGES


@<TRIPOS>ATOM
      1 S1          0.8611    0.8945   -0.6085 S.o        1 <1>        0.000
      2 O1          2.1212    1.4818   -0.1962 O.2        1 <1>        0.000
      3 H           0.3568    0.1815    0.3946 H.spc      1 <1>        0.000
      4 H           0.0100    1.8617   -0.9388 H.spc      1 <1>        0.000
@<TRIPOS>BOND
     1    1    2 2  
     2    1    3 1  
     3    1    4 1  
# Name:          frag2-034-236/92655 -- energy: 0.000000
# Creation time: Sat Jun  5 12:51:57 2010


@<TRIPOS>MOLECULE
frag2-034-236/92655 -- energy: 0.000000
    4     3     1     1     1
SMALL
USER_CHARGES


@<TRIPOS>ATOM
      1 S1          0.8611    0.8945   -0.6085 S.o        1 <1>        0.000
      2 O1          2.1212    1.4818   -0.1962 O.2        1 <1>        0.000
      3 H           0.3568    0.1815    0.3946 H.spc      1 <1>        0.000
      4 H           0.0100    1.8617   -0.9388 H.spc      1 <1>        0.000
@<TRIPOS>BOND
     1    1    2 2  
     2    1    3 1  
     3    1    4 1  
