#      Rotatable Fragment
#      Build by yxyuan
#
# Name:          frag3-241-5/96164
# Creation time: Sat Jun  5 12:53:16 2010


@<TRIPOS>MOLECULE
frag3-241-5/96164
    9     8     1     1     1
SMALL
USER_CHARGES


@<TRIPOS>ATOM
      1 N1          1.1116    0.9246   -0.1028 N.3        1 <1>        0.000
      2 N2          2.3096    0.3460   -0.2492 N.am       1 <1>        0.000
      3 C17         3.4804    1.0814   -0.3020 C.2        1 <1>        0.000
      4 O2          4.4198    0.2426   -0.7591 O.3        1 <1>        0.000
      5 O3          3.5963    2.2670   -0.0252 O.2        1 <1>        0.000
      6 H           0.3878    0.2061   -0.0885 H.spc      1 <1>        0.000
      7 H           1.0920    1.4461    0.7736 H.spc      1 <1>        0.000
      8 H           2.3611   -0.6699   -0.3243 H.spc      1 <1>        0.000
      9 H           4.0356   -0.6280   -0.8858 H.spc      1 <1>        0.000
@<TRIPOS>BOND
     1    1    2 1  
     2    2    3 am 
     3    3    4 1  
     4    3    5 2  
     5    1    6 1  
     6    1    7 1  
     7    2    8 1  
     8    4    9 1  
# Name:          frag3-241-5/96164 -- energy: 1.429306
# Creation time: Sat Jun  5 12:53:16 2010


@<TRIPOS>MOLECULE
frag3-241-5/96164 -- energy: 1.429306
    9     8     1     1     1
SMALL
USER_CHARGES


@<TRIPOS>ATOM
      1 N1          1.1116    0.9246   -0.1028 N.3        1 <1>        0.000
      2 N2          2.3096    0.3460   -0.2492 N.am       1 <1>        0.000
      3 C17         3.4804    1.0814   -0.3020 C.2        1 <1>        0.000
      4 O2          4.4198    0.2426   -0.7591 O.3        1 <1>        0.000
      5 O3          3.5963    2.2670   -0.0252 O.2        1 <1>        0.000
      6 H           0.3878    0.2061   -0.0885 H.spc      1 <1>        0.000
      7 H           1.0920    1.4461    0.7736 H.spc      1 <1>        0.000
      8 H           2.3611   -0.6699   -0.3243 H.spc      1 <1>        0.000
      9 H           4.0356   -0.6280   -0.8858 H.spc      1 <1>        0.000
@<TRIPOS>BOND
     1    1    2 1  
     2    2    3 am 
     3    3    4 1  
     4    3    5 2  
     5    1    6 1  
     6    1    7 1  
     7    2    8 1  
     8    4    9 1  
