#      Rotatable Fragment
#      Build by yxyuan
#
# Name:          frag2-077-3/319335
# Creation time: Sat Jun  5 12:51:58 2010


@<TRIPOS>MOLECULE
frag2-077-3/319335
   22    24     1     1     1
SMALL
USER_CHARGES


@<TRIPOS>ATOM
      1 C1          1.4956    0.5841   -0.1283 C.ar       1 <1>        0.000
      2 C2          1.3995   -0.7996    0.0246 C.ar       1 <1>        0.000
      3 C3          0.3384    1.3599   -0.1616 C.ar       1 <1>        0.000
      4 N1          2.7144    1.1532   -0.2418 N.ar       1 <1>        0.000
      5 N2          2.5268   -1.5428    0.0555 N.ar       1 <1>        0.000
      6 C4          0.1459   -1.3965    0.1423 C.ar       1 <1>        0.000
      7 C5         -0.9243    0.7684   -0.0428 C.ar       1 <1>        0.000
      8 C6          3.8358    0.4080   -0.2097 C.ar       1 <1>        0.000
      9 C7          3.7422   -0.9641   -0.0575 C.ar       1 <1>        0.000
     10 C8         -1.0211   -0.6260    0.1108 C.ar       1 <1>        0.000
     11 C9         -2.0931    1.5402   -0.0745 C.ar       1 <1>        0.000
     12 C12        -2.2855   -1.2184    0.2296 C.ar       1 <1>        0.000
     13 C13        -3.3419    0.9403    0.0447 C.ar       1 <1>        0.000
     14 C15        -3.4391   -0.4398    0.1969 C.ar       1 <1>        0.000
     15 H           0.4177    2.4404   -0.2816 H.spc      1 <1>        0.000
     16 H           0.0738   -2.4777    0.2604 H.spc      1 <1>        0.000
     17 H           4.8122    0.8834   -0.3031 H.spc      1 <1>        0.000
     18 H           4.6445   -1.5749   -0.0289 H.spc      1 <1>        0.000
     19 H          -2.0229    2.6214   -0.1938 H.spc      1 <1>        0.000
     20 H          -2.3665   -2.2988    0.3487 H.spc      1 <1>        0.000
     21 H          -4.2446    1.5508    0.0189 H.spc      1 <1>        0.000
     22 H          -4.4177   -0.9106    0.2904 H.spc      1 <1>        0.000
@<TRIPOS>BOND
     1   12   14 ar 
     2    3    7 ar 
     3    7   10 ar 
     4    2    5 ar 
     5   10   12 ar 
     6   11   13 ar 
     7    2    6 ar 
     8    6   10 ar 
     9   13   14 ar 
    10    7   11 ar 
    11    1    4 ar 
    12    5    9 ar 
    13    8    9 ar 
    14    4    8 ar 
    15    1    2 ar 
    16    1    3 ar 
    17    3   15 1  
    18    6   16 1  
    19    8   17 1  
    20    9   18 1  
    21   11   19 1  
    22   12   20 1  
    23   13   21 1  
    24   14   22 1  
# Name:          frag2-077-3/319335 -- energy: -0.278037
# Creation time: Sat Jun  5 12:51:58 2010


@<TRIPOS>MOLECULE
frag2-077-3/319335 -- energy: -0.278037
   22    24     1     1     1
SMALL
USER_CHARGES


@<TRIPOS>ATOM
      1 C1          1.4956    0.5841   -0.1283 C.ar       1 <1>        0.000
      2 C2          1.3995   -0.7996    0.0246 C.ar       1 <1>        0.000
      3 C3          0.3384    1.3599   -0.1616 C.ar       1 <1>        0.000
      4 N1          2.7144    1.1532   -0.2418 N.ar       1 <1>        0.000
      5 N2          2.5268   -1.5428    0.0555 N.ar       1 <1>        0.000
      6 C4          0.1459   -1.3965    0.1423 C.ar       1 <1>        0.000
      7 C5         -0.9243    0.7684   -0.0428 C.ar       1 <1>        0.000
      8 C6          3.8358    0.4080   -0.2097 C.ar       1 <1>        0.000
      9 C7          3.7422   -0.9641   -0.0575 C.ar       1 <1>        0.000
     10 C8         -1.0211   -0.6260    0.1108 C.ar       1 <1>        0.000
     11 C9         -2.0931    1.5402   -0.0745 C.ar       1 <1>        0.000
     12 C12        -2.2855   -1.2184    0.2296 C.ar       1 <1>        0.000
     13 C13        -3.3419    0.9403    0.0447 C.ar       1 <1>        0.000
     14 C15        -3.4391   -0.4398    0.1969 C.ar       1 <1>        0.000
     15 H           0.4177    2.4404   -0.2816 H.spc      1 <1>        0.000
     16 H           0.0738   -2.4777    0.2604 H.spc      1 <1>        0.000
     17 H           4.8122    0.8834   -0.3031 H.spc      1 <1>        0.000
     18 H           4.6445   -1.5749   -0.0289 H.spc      1 <1>        0.000
     19 H          -2.0229    2.6214   -0.1938 H.spc      1 <1>        0.000
     20 H          -2.3665   -2.2988    0.3487 H.spc      1 <1>        0.000
     21 H          -4.2446    1.5508    0.0189 H.spc      1 <1>        0.000
     22 H          -4.4177   -0.9106    0.2904 H.spc      1 <1>        0.000
@<TRIPOS>BOND
     1   12   14 ar 
     2    3    7 ar 
     3    7   10 ar 
     4    2    5 ar 
     5   10   12 ar 
     6   11   13 ar 
     7    2    6 ar 
     8    6   10 ar 
     9   13   14 ar 
    10    7   11 ar 
    11    1    4 ar 
    12    5    9 ar 
    13    8    9 ar 
    14    4    8 ar 
    15    1    2 ar 
    16    1    3 ar 
    17    3   15 1  
    18    6   16 1  
    19    8   17 1  
    20    9   18 1  
    21   11   19 1  
    22   12   20 1  
    23   13   21 1  
    24   14   22 1  
