#      Rotatable Fragment
#      Build by yxyuan
#
# Name:          frag3-214-4/31924
# Creation time: Sat Jun  5 12:52:21 2010


@<TRIPOS>MOLECULE
frag3-214-4/31924
   11    10     1     1     1
SMALL
USER_CHARGES


@<TRIPOS>ATOM
      1 S1         -1.2986    1.4307    1.3796 S.2        1 <1>        0.000
      2 C1         -1.1384    0.2496    0.2160 C.2        1 <1>        0.000
      3 N1          0.1317    0.0911   -0.2734 N.am       1 <1>        0.000
      4 N2          0.4377   -0.6971   -1.3108 N.2        1 <1>        0.000
      5 C2          1.2874   -0.5684   -2.2427 C.2        1 <1>        0.000
      6 N6         -2.2979   -0.3978   -0.0882 N.am       1 <1>        0.000
      7 H           0.8882    0.6039    0.1795 H.spc      1 <1>        0.000
      8 H           1.9251    0.3148   -2.2806 H.spc      1 <1>        0.000
      9 H           1.3803   -1.3409   -3.0060 H.spc      1 <1>        0.000
     10 H          -3.1641   -0.1423    0.3859 H.spc      1 <1>        0.000
     11 H          -2.2998   -1.1379   -0.7900 H.spc      1 <1>        0.000
@<TRIPOS>BOND
     1    1    2 2  
     2    2    3 am 
     3    2    6 am 
     4    3    4 1  
     5    4    5 2  
     6    3    7 1  
     7    5    8 1  
     8    5    9 1  
     9    6   10 1  
    10    6   11 1  
# Name:          frag3-214-4/31924
# Creation time: Sat Jun  5 12:52:21 2010


@<TRIPOS>MOLECULE
frag3-214-4/31924
   11    10     1     1     1
SMALL
USER_CHARGES


@<TRIPOS>ATOM
      1 S1         -1.4518    1.3203    1.3587 S.2        1 <1>        0.000
      2 C1         -1.0096    0.2306    0.1489 C.2        1 <1>        0.000
      3 N1          0.2974    0.1053   -0.0629 N.am       1 <1>        0.000
      4 N2          0.9226   -0.4213   -1.0982 N.2        1 <1>        0.000
      5 C2          0.4059   -0.7823   -2.2161 C.2        1 <1>        0.000
      6 N6         -2.0427   -0.3444   -0.4500 N.am       1 <1>        0.000
      7 H           0.8993    0.4662    0.6773 H.spc      1 <1>        0.000
      8 H          -0.6644   -0.6641   -2.3852 H.spc      1 <1>        0.000
      9 H           1.0373   -1.2071   -2.9964 H.spc      1 <1>        0.000
     10 H          -2.9933   -0.1104   -0.1635 H.spc      1 <1>        0.000
     11 H          -1.8872   -1.0209   -1.1974 H.spc      1 <1>        0.000
@<TRIPOS>BOND
     1    1    2 2  
     2    2    3 am 
     3    2    6 am 
     4    3    4 1  
     5    4    5 2  
     6    3    7 1  
     7    5    8 1  
     8    5    9 1  
     9    6   10 1  
    10    6   11 1  
# Name:          frag3-214-4/31924
# Creation time: Sat Jun  5 12:52:21 2010


@<TRIPOS>MOLECULE
frag3-214-4/31924
   11    10     1     1     1
SMALL
USER_CHARGES


@<TRIPOS>ATOM
      1 S1         -1.2000    0.9647    1.6084 S.2        1 <1>        0.000
      2 C1         -1.0801    0.3262    0.0435 C.2        1 <1>        0.000
      3 N1         -0.0008    0.6893   -0.6483 N.am       1 <1>        0.000
      4 N2          0.7563   -0.0496   -1.4410 N.2        1 <1>        0.000
      5 C2          0.7110   -1.3190   -1.6075 C.2        1 <1>        0.000
      6 N6         -2.0647   -0.5033   -0.2748 N.am       1 <1>        0.000
      7 H           0.2780    1.6659   -0.5538 H.spc      1 <1>        0.000
      8 H          -0.0174   -1.9151   -1.0577 H.spc      1 <1>        0.000
      9 H           1.4008   -1.8029   -2.2989 H.spc      1 <1>        0.000
     10 H          -2.8020   -0.7029    0.4011 H.spc      1 <1>        0.000
     11 H          -2.0846   -0.9417   -1.1956 H.spc      1 <1>        0.000
@<TRIPOS>BOND
     1    1    2 2  
     2    2    3 am 
     3    2    6 am 
     4    3    4 1  
     5    4    5 2  
     6    3    7 1  
     7    5    8 1  
     8    5    9 1  
     9    6   10 1  
    10    6   11 1  
# Name:          frag3-214-4/31924 -- energy: -0.568909
# Creation time: Sat Jun  5 12:52:21 2010


@<TRIPOS>MOLECULE
frag3-214-4/31924 -- energy: -0.568909
   11    10     1     1     1
SMALL
USER_CHARGES


@<TRIPOS>ATOM
      1 S1         -1.2986    1.4307    1.3796 S.2        1 <1>        0.000
      2 C1         -1.1384    0.2496    0.2160 C.2        1 <1>        0.000
      3 N1          0.1317    0.0911   -0.2734 N.am       1 <1>        0.000
      4 N2          0.4377   -0.6971   -1.3108 N.2        1 <1>        0.000
      5 C2          1.2874   -0.5684   -2.2427 C.2        1 <1>        0.000
      6 N6         -2.2979   -0.3978   -0.0882 N.am       1 <1>        0.000
      7 H           0.8882    0.6039    0.1795 H.spc      1 <1>        0.000
      8 H           1.9251    0.3148   -2.2806 H.spc      1 <1>        0.000
      9 H           1.3803   -1.3409   -3.0060 H.spc      1 <1>        0.000
     10 H          -3.1641   -0.1423    0.3859 H.spc      1 <1>        0.000
     11 H          -2.2998   -1.1379   -0.7900 H.spc      1 <1>        0.000
@<TRIPOS>BOND
     1    1    2 2  
     2    2    3 am 
     3    2    6 am 
     4    3    4 1  
     5    4    5 2  
     6    3    7 1  
     7    5    8 1  
     8    5    9 1  
     9    6   10 1  
    10    6   11 1  
# Name:          frag3-214-4/31924 -- energy: 0.970911
# Creation time: Sat Jun  5 12:52:21 2010


@<TRIPOS>MOLECULE
frag3-214-4/31924 -- energy: 0.970911
   11    10     1     1     1
SMALL
USER_CHARGES


@<TRIPOS>ATOM
      1 S1         -1.4518    1.3203    1.3587 S.2        1 <1>        0.000
      2 C1         -1.0096    0.2306    0.1489 C.2        1 <1>        0.000
      3 N1          0.2974    0.1053   -0.0629 N.am       1 <1>        0.000
      4 N2          0.9226   -0.4213   -1.0982 N.2        1 <1>        0.000
      5 C2          0.4059   -0.7823   -2.2161 C.2        1 <1>        0.000
      6 N6         -2.0427   -0.3444   -0.4500 N.am       1 <1>        0.000
      7 H           0.8993    0.4662    0.6773 H.spc      1 <1>        0.000
      8 H          -0.6644   -0.6641   -2.3852 H.spc      1 <1>        0.000
      9 H           1.0373   -1.2071   -2.9964 H.spc      1 <1>        0.000
     10 H          -2.9933   -0.1104   -0.1635 H.spc      1 <1>        0.000
     11 H          -1.8872   -1.0209   -1.1974 H.spc      1 <1>        0.000
@<TRIPOS>BOND
     1    1    2 2  
     2    2    3 am 
     3    2    6 am 
     4    3    4 1  
     5    4    5 2  
     6    3    7 1  
     7    5    8 1  
     8    5    9 1  
     9    6   10 1  
    10    6   11 1  
# Name:          frag3-214-4/31924 -- energy: -0.791837
# Creation time: Sat Jun  5 12:52:21 2010


@<TRIPOS>MOLECULE
frag3-214-4/31924 -- energy: -0.791837
   11    10     1     1     1
SMALL
USER_CHARGES


@<TRIPOS>ATOM
      1 S1         -1.2000    0.9647    1.6084 S.2        1 <1>        0.000
      2 C1         -1.0801    0.3262    0.0435 C.2        1 <1>        0.000
      3 N1         -0.0008    0.6893   -0.6483 N.am       1 <1>        0.000
      4 N2          0.7563   -0.0496   -1.4410 N.2        1 <1>        0.000
      5 C2          0.7110   -1.3190   -1.6075 C.2        1 <1>        0.000
      6 N6         -2.0647   -0.5033   -0.2748 N.am       1 <1>        0.000
      7 H           0.2780    1.6659   -0.5538 H.spc      1 <1>        0.000
      8 H          -0.0174   -1.9151   -1.0577 H.spc      1 <1>        0.000
      9 H           1.4008   -1.8029   -2.2989 H.spc      1 <1>        0.000
     10 H          -2.8020   -0.7029    0.4011 H.spc      1 <1>        0.000
     11 H          -2.0846   -0.9417   -1.1956 H.spc      1 <1>        0.000
@<TRIPOS>BOND
     1    1    2 2  
     2    2    3 am 
     3    2    6 am 
     4    3    4 1  
     5    4    5 2  
     6    3    7 1  
     7    5    8 1  
     8    5    9 1  
     9    6   10 1  
    10    6   11 1  
