#      Rotatable Fragment
#      Build by yxyuan
#
# Name:          frag4-316-314/48856
# Creation time: Sat Jun  5 12:53:30 2010


@<TRIPOS>MOLECULE
frag4-316-314/48856
   13    13     1     1     1
SMALL
USER_CHARGES


@<TRIPOS>ATOM
      1 C1          2.2750   -0.0778   -1.4442 C.2        1 <1>        0.000
      2 C2          3.2304   -0.8594   -0.9079 C.2        1 <1>        0.000
      3 N2          2.9666   -1.8556   -0.0473 N.pl3      1 <1>        0.000
      4 C3          1.7054   -2.1240    0.3268 C.2        1 <1>        0.000
      5 C4          0.6417   -1.4321   -0.1219 C.2        1 <1>        0.000
      6 C5          0.8446   -0.3072   -1.0824 C.3        1 <1>        0.000
      7 H           2.5439    0.7181   -2.1387 H.spc      1 <1>        0.000
      8 H           4.2682   -0.6748   -1.1856 H.spc      1 <1>        0.000
      9 H           3.7332   -2.4150    0.3266 H.spc      1 <1>        0.000
     10 H           1.5348   -2.9414    1.0274 H.spc      1 <1>        0.000
     11 H          -0.3622   -1.6916    0.2141 H.spc      1 <1>        0.000
     12 H           0.3131   -0.5616   -1.9994 H.spc      1 <1>        0.000
     13 H           0.4800    0.6010   -0.6025 H.spc      1 <1>        0.000
@<TRIPOS>BOND
     1    1    2 2  
     2    1    6 1  
     3    2    3 1  
     4    3    4 1  
     5    4    5 2  
     6    5    6 1  
     7    1    7 1  
     8    2    8 1  
     9    3    9 1  
    10    4   10 1  
    11    5   11 1  
    12    6   12 1  
    13    6   13 1  
# Name:          frag4-316-314/48856 -- energy: -0.094139
# Creation time: Sat Jun  5 12:53:30 2010


@<TRIPOS>MOLECULE
frag4-316-314/48856 -- energy: -0.094139
   13    13     1     1     1
SMALL
USER_CHARGES


@<TRIPOS>ATOM
      1 C1          2.2750   -0.0778   -1.4442 C.2        1 <1>        0.000
      2 C2          3.2304   -0.8594   -0.9079 C.2        1 <1>        0.000
      3 N2          2.9666   -1.8556   -0.0473 N.pl3      1 <1>        0.000
      4 C3          1.7054   -2.1240    0.3268 C.2        1 <1>        0.000
      5 C4          0.6417   -1.4321   -0.1219 C.2        1 <1>        0.000
      6 C5          0.8446   -0.3072   -1.0824 C.3        1 <1>        0.000
      7 H           2.5439    0.7181   -2.1387 H.spc      1 <1>        0.000
      8 H           4.2682   -0.6748   -1.1856 H.spc      1 <1>        0.000
      9 H           3.7332   -2.4150    0.3266 H.spc      1 <1>        0.000
     10 H           1.5348   -2.9414    1.0274 H.spc      1 <1>        0.000
     11 H          -0.3622   -1.6916    0.2141 H.spc      1 <1>        0.000
     12 H           0.3131   -0.5616   -1.9994 H.spc      1 <1>        0.000
     13 H           0.4800    0.6010   -0.6025 H.spc      1 <1>        0.000
@<TRIPOS>BOND
     1    1    2 2  
     2    1    6 1  
     3    2    3 1  
     4    3    4 1  
     5    4    5 2  
     6    5    6 1  
     7    1    7 1  
     8    2    8 1  
     9    3    9 1  
    10    4   10 1  
    11    5   11 1  
    12    6   12 1  
    13    6   13 1  
