#      Rotatable Fragment
#      Build by yxyuan
#
# Name:          frag3-145-30/96164
# Creation time: Sat Jun  5 12:53:05 2010


@<TRIPOS>MOLECULE
frag3-145-30/96164
   10     9     1     1     1
SMALL
USER_CHARGES


@<TRIPOS>ATOM
      1 O1         -0.5683   -0.3997   -1.0102 O.3        1 <1>        0.000
      2 P1          0.7291   -0.9557   -0.3757 P.3        1 <1>        0.000
      3 N1          0.2757   -1.5800    0.9530 N.pl3      1 <1>        0.000
      4 N2          1.6409    0.1377    0.1987 N.pl3      1 <1>        0.000
      5 O2          1.3897   -1.8787   -1.2205 O.2        1 <1>        0.000
      6 H          -0.9801    0.2197   -0.4032 H.spc      1 <1>        0.000
      7 H           0.4628   -2.5643    1.1441 H.spc      1 <1>        0.000
      8 H          -0.2124   -1.0101    1.6440 H.spc      1 <1>        0.000
      9 H           2.6325    0.1523   -0.0401 H.spc      1 <1>        0.000
     10 H           1.2552    0.8495    0.8191 H.spc      1 <1>        0.000
@<TRIPOS>BOND
     1    1    2 1  
     2    2    3 1  
     3    2    4 1  
     4    2    5 2  
     5    1    6 1  
     6    3    7 1  
     7    3    8 1  
     8    4    9 1  
     9    4   10 1  
# Name:          frag3-145-30/96164 -- energy: -0.532508
# Creation time: Sat Jun  5 12:53:05 2010


@<TRIPOS>MOLECULE
frag3-145-30/96164 -- energy: -0.532508
   10     9     1     1     1
SMALL
USER_CHARGES


@<TRIPOS>ATOM
      1 O1         -0.5683   -0.3997   -1.0102 O.3        1 <1>        0.000
      2 P1          0.7291   -0.9557   -0.3757 P.3        1 <1>        0.000
      3 N1          0.2757   -1.5800    0.9530 N.pl3      1 <1>        0.000
      4 N2          1.6409    0.1377    0.1987 N.pl3      1 <1>        0.000
      5 O2          1.3897   -1.8787   -1.2205 O.2        1 <1>        0.000
      6 H          -0.9801    0.2197   -0.4032 H.spc      1 <1>        0.000
      7 H           0.4628   -2.5643    1.1441 H.spc      1 <1>        0.000
      8 H          -0.2124   -1.0101    1.6440 H.spc      1 <1>        0.000
      9 H           2.6325    0.1523   -0.0401 H.spc      1 <1>        0.000
     10 H           1.2552    0.8495    0.8191 H.spc      1 <1>        0.000
@<TRIPOS>BOND
     1    1    2 1  
     2    2    3 1  
     3    2    4 1  
     4    2    5 2  
     5    1    6 1  
     6    3    7 1  
     7    3    8 1  
     8    4    9 1  
     9    4   10 1  
