#      Rotatable Fragment
#      Build by yxyuan
#
# Name:          frag5-664-24/41815
# Creation time: Sat Jun  5 12:53:02 2010


@<TRIPOS>MOLECULE
frag5-664-24/41815
   21    22     1     1     1
SMALL
USER_CHARGES


@<TRIPOS>ATOM
      1 C1          1.2115   -0.7862    0.8500 C.3        1 <1>        0.000
      2 C2          2.4272   -1.7331    0.9460 C.3        1 <1>        0.000
      3 C3          3.7071   -0.9000    0.7362 C.3        1 <1>        0.000
      4 O3          3.7083   -0.3766   -0.5945 O.3        1 <1>        0.000
      5 C4          2.5776    0.3212   -1.0044 C.ar       1 <1>        0.000
      6 C5          1.3431    0.1593   -0.3432 C.ar       1 <1>        0.000
      7 C6          0.2285    0.8766   -0.7869 C.ar       1 <1>        0.000
      8 C7          0.3201    1.7470   -1.8755 C.ar       1 <1>        0.000
      9 C8          1.5461    1.9048   -2.5295 C.ar       1 <1>        0.000
     10 C9          2.6624    1.1929   -2.0941 C.ar       1 <1>        0.000
     11 C10        -0.8359    2.4769   -2.3202 C.1        1 <1>        0.000
     12 N2         -1.7675    3.0662   -2.6782 N.1        1 <1>        0.000
     13 H           0.3110   -1.3868    0.7213 H.spc      1 <1>        0.000
     14 H           1.1598   -0.1916    1.7620 H.spc      1 <1>        0.000
     15 H           2.4502   -2.2141    1.9238 H.spc      1 <1>        0.000
     16 H           2.3574   -2.5096    0.1843 H.spc      1 <1>        0.000
     17 H           3.7340   -0.0801    1.4539 H.spc      1 <1>        0.000
     18 H           4.5843   -1.5298    0.8845 H.spc      1 <1>        0.000
     19 H          -0.7265    0.7549   -0.2757 H.spc      1 <1>        0.000
     20 H           1.6285    2.5835   -3.3784 H.spc      1 <1>        0.000
     21 H           3.6144    1.3175   -2.6102 H.spc      1 <1>        0.000
@<TRIPOS>BOND
     1    1    6 1  
     2    9   10 ar 
     3    7    8 ar 
     4    3    4 1  
     5    6    7 ar 
     6    8   11 1  
     7   11   12 3  
     8    5    6 ar 
     9    5   10 ar 
    10    4    5 1  
    11    2    3 1  
    12    1    2 1  
    13    8    9 ar 
    14    1   13 1  
    15    1   14 1  
    16    2   15 1  
    17    2   16 1  
    18    3   17 1  
    19    3   18 1  
    20    7   19 1  
    21    9   20 1  
    22   10   21 1  
# Name:          frag5-664-24/41815 -- energy: -1.328827
# Creation time: Sat Jun  5 12:53:02 2010


@<TRIPOS>MOLECULE
frag5-664-24/41815 -- energy: -1.328827
   21    22     1     1     1
SMALL
USER_CHARGES


@<TRIPOS>ATOM
      1 C1          1.2115   -0.7862    0.8500 C.3        1 <1>        0.000
      2 C2          2.4272   -1.7331    0.9460 C.3        1 <1>        0.000
      3 C3          3.7071   -0.9000    0.7362 C.3        1 <1>        0.000
      4 O3          3.7083   -0.3766   -0.5945 O.3        1 <1>        0.000
      5 C4          2.5776    0.3212   -1.0044 C.ar       1 <1>        0.000
      6 C5          1.3431    0.1593   -0.3432 C.ar       1 <1>        0.000
      7 C6          0.2285    0.8766   -0.7869 C.ar       1 <1>        0.000
      8 C7          0.3201    1.7470   -1.8755 C.ar       1 <1>        0.000
      9 C8          1.5461    1.9048   -2.5295 C.ar       1 <1>        0.000
     10 C9          2.6624    1.1929   -2.0941 C.ar       1 <1>        0.000
     11 C10        -0.8359    2.4769   -2.3202 C.1        1 <1>        0.000
     12 N2         -1.7675    3.0662   -2.6782 N.1        1 <1>        0.000
     13 H           0.3110   -1.3868    0.7213 H.spc      1 <1>        0.000
     14 H           1.1598   -0.1916    1.7620 H.spc      1 <1>        0.000
     15 H           2.4502   -2.2141    1.9238 H.spc      1 <1>        0.000
     16 H           2.3574   -2.5096    0.1843 H.spc      1 <1>        0.000
     17 H           3.7340   -0.0801    1.4539 H.spc      1 <1>        0.000
     18 H           4.5843   -1.5298    0.8845 H.spc      1 <1>        0.000
     19 H          -0.7265    0.7549   -0.2757 H.spc      1 <1>        0.000
     20 H           1.6285    2.5835   -3.3784 H.spc      1 <1>        0.000
     21 H           3.6144    1.3175   -2.6102 H.spc      1 <1>        0.000
@<TRIPOS>BOND
     1    1    6 1  
     2    9   10 ar 
     3    7    8 ar 
     4    3    4 1  
     5    6    7 ar 
     6    8   11 1  
     7   11   12 3  
     8    5    6 ar 
     9    5   10 ar 
    10    4    5 1  
    11    2    3 1  
    12    1    2 1  
    13    8    9 ar 
    14    1   13 1  
    15    1   14 1  
    16    2   15 1  
    17    2   16 1  
    18    3   17 1  
    19    3   18 1  
    20    7   19 1  
    21    9   20 1  
    22   10   21 1  
