#      Rotatable Fragment
#      Build by yxyuan
#
# Name:          frag3-188-7/31924
# Creation time: Sat Jun  5 12:52:10 2010


@<TRIPOS>MOLECULE
frag3-188-7/31924
   11    10     1     1     1
SMALL
USER_CHARGES


@<TRIPOS>ATOM
      1 N4         -3.2206   -2.2724   -0.1019 N.am       1 <1>        0.000
      2 O4         -3.2594   -0.9093   -0.1033 O.3        1 <1>        0.000
      3 C12        -4.3079   -3.0281   -0.3722 C.2        1 <1>        0.000
      4 O5         -5.4306   -2.5444   -0.3604 O.2        1 <1>        0.000
      5 C13        -4.1641   -4.4646   -0.6898 C.2        1 <1>        0.000
      6 C14        -3.2610   -4.9413   -1.5557 C.2        1 <1>        0.000
      7 H          -2.3387   -2.7386    0.1109 H.spc      1 <1>        0.000
      8 H          -2.3893   -0.5653    0.1115 H.spc      1 <1>        0.000
      9 H          -4.8277   -5.1725   -0.1933 H.spc      1 <1>        0.000
     10 H          -2.5835   -4.2581   -2.0679 H.spc      1 <1>        0.000
     11 H          -3.2033   -6.0126   -1.7485 H.spc      1 <1>        0.000
@<TRIPOS>BOND
     1    1    2 1  
     2    1    3 am 
     3    3    4 2  
     4    3    5 1  
     5    5    6 2  
     6    1    7 1  
     7    2    8 1  
     8    5    9 1  
     9    6   10 1  
    10    6   11 1  
# Name:          frag3-188-7/31924
# Creation time: Sat Jun  5 12:52:10 2010


@<TRIPOS>MOLECULE
frag3-188-7/31924
   11    10     1     1     1
SMALL
USER_CHARGES


@<TRIPOS>ATOM
      1 N4         -3.9014   -1.7194    0.0233 N.am       1 <1>        0.000
      2 O4         -2.5927   -1.3641   -0.0949 O.3        1 <1>        0.000
      3 C12        -4.3787   -2.9127   -0.3864 C.2        1 <1>        0.000
      4 O5         -5.5759   -3.1147   -0.5046 O.2        1 <1>        0.000
      5 C13        -3.4412   -4.0147   -0.7056 C.2        1 <1>        0.000
      6 C14        -3.7536   -5.0344   -1.5151 C.2        1 <1>        0.000
      7 H          -4.5509   -1.0528    0.4408 H.spc      1 <1>        0.000
      8 H          -2.4695   -0.4792    0.2564 H.spc      1 <1>        0.000
      9 H          -2.4471   -3.9943   -0.2589 H.spc      1 <1>        0.000
     10 H          -4.7401   -5.0817   -1.9762 H.spc      1 <1>        0.000
     11 H          -3.0214   -5.8172   -1.7130 H.spc      1 <1>        0.000
@<TRIPOS>BOND
     1    1    2 1  
     2    1    3 am 
     3    3    4 2  
     4    3    5 1  
     5    5    6 2  
     6    1    7 1  
     7    2    8 1  
     8    5    9 1  
     9    6   10 1  
    10    6   11 1  
# Name:          frag3-188-7/31924
# Creation time: Sat Jun  5 12:52:10 2010


@<TRIPOS>MOLECULE
frag3-188-7/31924
   11    10     1     1     1
SMALL
USER_CHARGES


@<TRIPOS>ATOM
      1 N4         -3.1741   -2.0378   -0.0062 N.am       1 <1>        0.000
      2 O4         -3.5677   -0.7451    0.1764 O.3        1 <1>        0.000
      3 C12        -4.0011   -2.9838   -0.5041 C.2        1 <1>        0.000
      4 O5         -5.2076   -2.7970   -0.5652 O.2        1 <1>        0.000
      5 C13        -3.4622   -4.2718   -0.9893 C.2        1 <1>        0.000
      6 C14        -4.2309   -5.3247   -1.2948 C.2        1 <1>        0.000
      7 H          -2.2203   -2.3006    0.2421 H.spc      1 <1>        0.000
      8 H          -2.8373   -0.2373    0.5373 H.spc      1 <1>        0.000
      9 H          -2.3827   -4.3696   -1.1044 H.spc      1 <1>        0.000
     10 H          -5.3138   -5.2576   -1.1900 H.spc      1 <1>        0.000
     11 H          -3.7738   -6.2489   -1.6483 H.spc      1 <1>        0.000
@<TRIPOS>BOND
     1    1    2 1  
     2    1    3 am 
     3    3    4 2  
     4    3    5 1  
     5    5    6 2  
     6    1    7 1  
     7    2    8 1  
     8    5    9 1  
     9    6   10 1  
    10    6   11 1  
# Name:          frag3-188-7/31924
# Creation time: Sat Jun  5 12:52:10 2010


@<TRIPOS>MOLECULE
frag3-188-7/31924
   11    10     1     1     1
SMALL
USER_CHARGES


@<TRIPOS>ATOM
      1 N4         -3.8075   -1.8222   -0.2690 N.am       1 <1>        0.000
      2 O4         -2.4477   -1.8948   -0.2681 O.3        1 <1>        0.000
      3 C12        -4.5986   -2.9109   -0.3624 C.2        1 <1>        0.000
      4 O5         -5.8115   -2.8291   -0.2522 O.2        1 <1>        0.000
      5 C13        -4.0025   -4.2461   -0.5993 C.2        1 <1>        0.000
      6 C14        -2.9758   -4.4571   -1.4323 C.2        1 <1>        0.000
      7 H          -4.2470   -0.9047   -0.1959 H.spc      1 <1>        0.000
      8 H          -2.0812   -1.0106   -0.1936 H.spc      1 <1>        0.000
      9 H          -4.4213   -5.1008   -0.0681 H.spc      1 <1>        0.000
     10 H          -2.5359   -3.6221   -1.9775 H.spc      1 <1>        0.000
     11 H          -2.5799   -5.4639   -1.5652 H.spc      1 <1>        0.000
@<TRIPOS>BOND
     1    1    2 1  
     2    1    3 am 
     3    3    4 2  
     4    3    5 1  
     5    5    6 2  
     6    1    7 1  
     7    2    8 1  
     8    5    9 1  
     9    6   10 1  
    10    6   11 1  
# Name:          frag3-188-7/31924
# Creation time: Sat Jun  5 12:52:10 2010


@<TRIPOS>MOLECULE
frag3-188-7/31924
   11    10     1     1     1
SMALL
USER_CHARGES


@<TRIPOS>ATOM
      1 N4         -3.3870   -1.8938   -0.6641 N.am       1 <1>        0.000
      2 O4         -3.2014   -1.0558    0.3935 O.3        1 <1>        0.000
      3 C12        -4.2541   -2.9201   -0.6702 C.2        1 <1>        0.000
      4 O5         -5.3083   -2.8482   -0.0376 O.2        1 <1>        0.000
      5 C13        -3.9551   -4.1595   -1.4022 C.2        1 <1>        0.000
      6 C14        -3.5377   -5.2828   -0.8027 C.2        1 <1>        0.000
      7 H          -2.8325   -1.7319   -1.5048 H.spc      1 <1>        0.000
      8 H          -2.5355   -0.4017    0.1691 H.spc      1 <1>        0.000
      9 H          -4.0790   -4.1649   -2.4851 H.spc      1 <1>        0.000
     10 H          -3.4050   -5.3063    0.2789 H.spc      1 <1>        0.000
     11 H          -3.3308   -6.1730   -1.3967 H.spc      1 <1>        0.000
@<TRIPOS>BOND
     1    1    2 1  
     2    1    3 am 
     3    3    4 2  
     4    3    5 1  
     5    5    6 2  
     6    1    7 1  
     7    2    8 1  
     8    5    9 1  
     9    6   10 1  
    10    6   11 1  
# Name:          frag3-188-7/31924
# Creation time: Sat Jun  5 12:52:10 2010


@<TRIPOS>MOLECULE
frag3-188-7/31924
   11    10     1     1     1
SMALL
USER_CHARGES


@<TRIPOS>ATOM
      1 N4         -3.8694   -1.7272   -0.1528 N.am       1 <1>        0.000
      2 O4         -2.5095   -1.6235   -0.2270 O.3        1 <1>        0.000
      3 C12        -4.5143   -2.8787   -0.4622 C.2        1 <1>        0.000
      4 O5         -5.6119   -3.1285    0.0129 O.2        1 <1>        0.000
      5 C13        -3.9059   -3.8602   -1.3835 C.2        1 <1>        0.000
      6 C14        -3.2326   -4.9421   -0.9706 C.2        1 <1>        0.000
      7 H          -4.4139   -0.9171    0.1431 H.spc      1 <1>        0.000
      8 H          -2.2428   -0.7375    0.0290 H.spc      1 <1>        0.000
      9 H          -4.0104   -3.6953   -2.4559 H.spc      1 <1>        0.000
     10 H          -3.1111   -5.1344    0.0954 H.spc      1 <1>        0.000
     11 H          -2.8063   -5.6302   -1.7006 H.spc      1 <1>        0.000
@<TRIPOS>BOND
     1    1    2 1  
     2    1    3 am 
     3    3    4 2  
     4    3    5 1  
     5    5    6 2  
     6    1    7 1  
     7    2    8 1  
     8    5    9 1  
     9    6   10 1  
    10    6   11 1  
# Name:          frag3-188-7/31924 -- energy: -0.647514
# Creation time: Sat Jun  5 12:52:10 2010


@<TRIPOS>MOLECULE
frag3-188-7/31924 -- energy: -0.647514
   11    10     1     1     1
SMALL
USER_CHARGES


@<TRIPOS>ATOM
      1 N4         -3.2206   -2.2724   -0.1019 N.am       1 <1>        0.000
      2 O4         -3.2594   -0.9093   -0.1033 O.3        1 <1>        0.000
      3 C12        -4.3079   -3.0281   -0.3722 C.2        1 <1>        0.000
      4 O5         -5.4306   -2.5444   -0.3604 O.2        1 <1>        0.000
      5 C13        -4.1641   -4.4646   -0.6898 C.2        1 <1>        0.000
      6 C14        -3.2610   -4.9413   -1.5557 C.2        1 <1>        0.000
      7 H          -2.3387   -2.7386    0.1109 H.spc      1 <1>        0.000
      8 H          -2.3893   -0.5653    0.1115 H.spc      1 <1>        0.000
      9 H          -4.8277   -5.1725   -0.1933 H.spc      1 <1>        0.000
     10 H          -2.5835   -4.2581   -2.0679 H.spc      1 <1>        0.000
     11 H          -3.2033   -6.0126   -1.7485 H.spc      1 <1>        0.000
@<TRIPOS>BOND
     1    1    2 1  
     2    1    3 am 
     3    3    4 2  
     4    3    5 1  
     5    5    6 2  
     6    1    7 1  
     7    2    8 1  
     8    5    9 1  
     9    6   10 1  
    10    6   11 1  
# Name:          frag3-188-7/31924 -- energy: -0.532370
# Creation time: Sat Jun  5 12:52:10 2010


@<TRIPOS>MOLECULE
frag3-188-7/31924 -- energy: -0.532370
   11    10     1     1     1
SMALL
USER_CHARGES


@<TRIPOS>ATOM
      1 N4         -3.9014   -1.7194    0.0233 N.am       1 <1>        0.000
      2 O4         -2.5927   -1.3641   -0.0949 O.3        1 <1>        0.000
      3 C12        -4.3787   -2.9127   -0.3864 C.2        1 <1>        0.000
      4 O5         -5.5759   -3.1147   -0.5046 O.2        1 <1>        0.000
      5 C13        -3.4412   -4.0147   -0.7056 C.2        1 <1>        0.000
      6 C14        -3.7536   -5.0344   -1.5151 C.2        1 <1>        0.000
      7 H          -4.5509   -1.0528    0.4408 H.spc      1 <1>        0.000
      8 H          -2.4695   -0.4792    0.2564 H.spc      1 <1>        0.000
      9 H          -2.4471   -3.9943   -0.2589 H.spc      1 <1>        0.000
     10 H          -4.7401   -5.0817   -1.9762 H.spc      1 <1>        0.000
     11 H          -3.0214   -5.8172   -1.7130 H.spc      1 <1>        0.000
@<TRIPOS>BOND
     1    1    2 1  
     2    1    3 am 
     3    3    4 2  
     4    3    5 1  
     5    5    6 2  
     6    1    7 1  
     7    2    8 1  
     8    5    9 1  
     9    6   10 1  
    10    6   11 1  
# Name:          frag3-188-7/31924 -- energy: -0.466662
# Creation time: Sat Jun  5 12:52:10 2010


@<TRIPOS>MOLECULE
frag3-188-7/31924 -- energy: -0.466662
   11    10     1     1     1
SMALL
USER_CHARGES


@<TRIPOS>ATOM
      1 N4         -3.1741   -2.0378   -0.0062 N.am       1 <1>        0.000
      2 O4         -3.5677   -0.7451    0.1764 O.3        1 <1>        0.000
      3 C12        -4.0011   -2.9838   -0.5041 C.2        1 <1>        0.000
      4 O5         -5.2076   -2.7970   -0.5652 O.2        1 <1>        0.000
      5 C13        -3.4622   -4.2718   -0.9893 C.2        1 <1>        0.000
      6 C14        -4.2309   -5.3247   -1.2948 C.2        1 <1>        0.000
      7 H          -2.2203   -2.3006    0.2421 H.spc      1 <1>        0.000
      8 H          -2.8373   -0.2373    0.5373 H.spc      1 <1>        0.000
      9 H          -2.3827   -4.3696   -1.1044 H.spc      1 <1>        0.000
     10 H          -5.3138   -5.2576   -1.1900 H.spc      1 <1>        0.000
     11 H          -3.7738   -6.2489   -1.6483 H.spc      1 <1>        0.000
@<TRIPOS>BOND
     1    1    2 1  
     2    1    3 am 
     3    3    4 2  
     4    3    5 1  
     5    5    6 2  
     6    1    7 1  
     7    2    8 1  
     8    5    9 1  
     9    6   10 1  
    10    6   11 1  
# Name:          frag3-188-7/31924 -- energy: -0.542078
# Creation time: Sat Jun  5 12:52:10 2010


@<TRIPOS>MOLECULE
frag3-188-7/31924 -- energy: -0.542078
   11    10     1     1     1
SMALL
USER_CHARGES


@<TRIPOS>ATOM
      1 N4         -3.8075   -1.8222   -0.2690 N.am       1 <1>        0.000
      2 O4         -2.4477   -1.8948   -0.2681 O.3        1 <1>        0.000
      3 C12        -4.5986   -2.9109   -0.3624 C.2        1 <1>        0.000
      4 O5         -5.8115   -2.8291   -0.2522 O.2        1 <1>        0.000
      5 C13        -4.0025   -4.2461   -0.5993 C.2        1 <1>        0.000
      6 C14        -2.9758   -4.4571   -1.4323 C.2        1 <1>        0.000
      7 H          -4.2470   -0.9047   -0.1959 H.spc      1 <1>        0.000
      8 H          -2.0812   -1.0106   -0.1936 H.spc      1 <1>        0.000
      9 H          -4.4213   -5.1008   -0.0681 H.spc      1 <1>        0.000
     10 H          -2.5359   -3.6221   -1.9775 H.spc      1 <1>        0.000
     11 H          -2.5799   -5.4639   -1.5652 H.spc      1 <1>        0.000
@<TRIPOS>BOND
     1    1    2 1  
     2    1    3 am 
     3    3    4 2  
     4    3    5 1  
     5    5    6 2  
     6    1    7 1  
     7    2    8 1  
     8    5    9 1  
     9    6   10 1  
    10    6   11 1  
# Name:          frag3-188-7/31924 -- energy: -0.616525
# Creation time: Sat Jun  5 12:52:10 2010


@<TRIPOS>MOLECULE
frag3-188-7/31924 -- energy: -0.616525
   11    10     1     1     1
SMALL
USER_CHARGES


@<TRIPOS>ATOM
      1 N4         -3.3870   -1.8938   -0.6641 N.am       1 <1>        0.000
      2 O4         -3.2014   -1.0558    0.3935 O.3        1 <1>        0.000
      3 C12        -4.2541   -2.9201   -0.6702 C.2        1 <1>        0.000
      4 O5         -5.3083   -2.8482   -0.0376 O.2        1 <1>        0.000
      5 C13        -3.9551   -4.1595   -1.4022 C.2        1 <1>        0.000
      6 C14        -3.5377   -5.2828   -0.8027 C.2        1 <1>        0.000
      7 H          -2.8325   -1.7319   -1.5048 H.spc      1 <1>        0.000
      8 H          -2.5355   -0.4017    0.1691 H.spc      1 <1>        0.000
      9 H          -4.0790   -4.1649   -2.4851 H.spc      1 <1>        0.000
     10 H          -3.4050   -5.3063    0.2789 H.spc      1 <1>        0.000
     11 H          -3.3308   -6.1730   -1.3967 H.spc      1 <1>        0.000
@<TRIPOS>BOND
     1    1    2 1  
     2    1    3 am 
     3    3    4 2  
     4    3    5 1  
     5    5    6 2  
     6    1    7 1  
     7    2    8 1  
     8    5    9 1  
     9    6   10 1  
    10    6   11 1  
# Name:          frag3-188-7/31924 -- energy: -0.676365
# Creation time: Sat Jun  5 12:52:10 2010


@<TRIPOS>MOLECULE
frag3-188-7/31924 -- energy: -0.676365
   11    10     1     1     1
SMALL
USER_CHARGES


@<TRIPOS>ATOM
      1 N4         -3.8694   -1.7272   -0.1528 N.am       1 <1>        0.000
      2 O4         -2.5095   -1.6235   -0.2270 O.3        1 <1>        0.000
      3 C12        -4.5143   -2.8787   -0.4622 C.2        1 <1>        0.000
      4 O5         -5.6119   -3.1285    0.0129 O.2        1 <1>        0.000
      5 C13        -3.9059   -3.8602   -1.3835 C.2        1 <1>        0.000
      6 C14        -3.2326   -4.9421   -0.9706 C.2        1 <1>        0.000
      7 H          -4.4139   -0.9171    0.1431 H.spc      1 <1>        0.000
      8 H          -2.2428   -0.7375    0.0290 H.spc      1 <1>        0.000
      9 H          -4.0104   -3.6953   -2.4559 H.spc      1 <1>        0.000
     10 H          -3.1111   -5.1344    0.0954 H.spc      1 <1>        0.000
     11 H          -2.8063   -5.6302   -1.7006 H.spc      1 <1>        0.000
@<TRIPOS>BOND
     1    1    2 1  
     2    1    3 am 
     3    3    4 2  
     4    3    5 1  
     5    5    6 2  
     6    1    7 1  
     7    2    8 1  
     8    5    9 1  
     9    6   10 1  
    10    6   11 1  
