#      Rotatable Fragment
#      Build by yxyuan
#
# Name:          frag3-160-19/96164
# Creation time: Sat Jun  5 12:53:06 2010


@<TRIPOS>MOLECULE
frag3-160-19/96164
    4     3     1     1     1
SMALL
USER_CHARGES


@<TRIPOS>ATOM
      1 O5          0.8403   -0.3858   -0.0037 O.3        1 <1>        0.000
      2 N1         -0.5661   -0.6062    0.0045 N.2        1 <1>        0.000
      3 O6         -1.0557   -0.7331   -1.1146 O.2        1 <1>        0.000
      4 H           1.1543   -0.2961    0.8991 H.spc      1 <1>        0.000
@<TRIPOS>BOND
     1    1    2 1  
     2    2    3 2  
     3    1    4 1  
# Name:          frag3-160-19/96164 -- energy: -0.027259
# Creation time: Sat Jun  5 12:53:06 2010


@<TRIPOS>MOLECULE
frag3-160-19/96164 -- energy: -0.027259
    4     3     1     1     1
SMALL
USER_CHARGES


@<TRIPOS>ATOM
      1 O5          0.8403   -0.3858   -0.0037 O.3        1 <1>        0.000
      2 N1         -0.5661   -0.6062    0.0045 N.2        1 <1>        0.000
      3 O6         -1.0557   -0.7331   -1.1146 O.2        1 <1>        0.000
      4 H           1.1543   -0.2961    0.8991 H.spc      1 <1>        0.000
@<TRIPOS>BOND
     1    1    2 1  
     2    2    3 2  
     3    1    4 1  
