#      Rotatable Fragment
#      Build by yxyuan
#
# Name:          frag5-622-32/41815
# Creation time: Sat Jun  5 12:52:59 2010


@<TRIPOS>MOLECULE
frag5-622-32/41815
   13    13     1     1     1
SMALL
USER_CHARGES


@<TRIPOS>ATOM
      1 F1         -2.9680    0.4064   -0.2882 F          1 <1>        0.000
      2 C1         -1.6357    0.1971   -0.1460 C.ar       1 <1>        0.000
      3 C2         -1.1373   -1.0973   -0.0266 C.ar       1 <1>        0.000
      4 C3          0.2312   -1.3138    0.1188 C.ar       1 <1>        0.000
      5 C4          1.1328   -0.2379    0.1483 C.ar       1 <1>        0.000
      6 C5          0.6229    1.0652    0.0266 C.ar       1 <1>        0.000
      7 C6         -0.7549    1.2788   -0.1193 C.ar       1 <1>        0.000
      8 O1          2.4879   -0.4629    0.2934 O.3        1 <1>        0.000
      9 H          -1.8213   -1.9457   -0.0470 H.spc      1 <1>        0.000
     10 H           0.6073   -2.3327    0.2110 H.spc      1 <1>        0.000
     11 H           1.3034    1.9165    0.0457 H.spc      1 <1>        0.000
     12 H          -1.1397    2.2944   -0.2123 H.spc      1 <1>        0.000
     13 H           2.9525    0.3772    0.2930 H.spc      1 <1>        0.000
@<TRIPOS>BOND
     1    1    2 1  
     2    2    3 ar 
     3    2    7 ar 
     4    3    4 ar 
     5    4    5 ar 
     6    5    6 ar 
     7    5    8 1  
     8    6    7 ar 
     9    3    9 1  
    10    4   10 1  
    11    6   11 1  
    12    7   12 1  
    13    8   13 1  
# Name:          frag5-622-32/41815 -- energy: -0.090286
# Creation time: Sat Jun  5 12:52:59 2010


@<TRIPOS>MOLECULE
frag5-622-32/41815 -- energy: -0.090286
   13    13     1     1     1
SMALL
USER_CHARGES


@<TRIPOS>ATOM
      1 F1         -2.9680    0.4064   -0.2882 F          1 <1>        0.000
      2 C1         -1.6357    0.1971   -0.1460 C.ar       1 <1>        0.000
      3 C2         -1.1373   -1.0973   -0.0266 C.ar       1 <1>        0.000
      4 C3          0.2312   -1.3138    0.1188 C.ar       1 <1>        0.000
      5 C4          1.1328   -0.2379    0.1483 C.ar       1 <1>        0.000
      6 C5          0.6229    1.0652    0.0266 C.ar       1 <1>        0.000
      7 C6         -0.7549    1.2788   -0.1193 C.ar       1 <1>        0.000
      8 O1          2.4879   -0.4629    0.2934 O.3        1 <1>        0.000
      9 H          -1.8213   -1.9457   -0.0470 H.spc      1 <1>        0.000
     10 H           0.6073   -2.3327    0.2110 H.spc      1 <1>        0.000
     11 H           1.3034    1.9165    0.0457 H.spc      1 <1>        0.000
     12 H          -1.1397    2.2944   -0.2123 H.spc      1 <1>        0.000
     13 H           2.9525    0.3772    0.2930 H.spc      1 <1>        0.000
@<TRIPOS>BOND
     1    1    2 1  
     2    2    3 ar 
     3    2    7 ar 
     4    3    4 ar 
     5    4    5 ar 
     6    5    6 ar 
     7    5    8 1  
     8    6    7 ar 
     9    3    9 1  
    10    4   10 1  
    11    6   11 1  
    12    7   12 1  
    13    8   13 1  
