#      Rotatable Fragment
#      Build by yxyuan
#
# Name:          frag4-436-47/48856
# Creation time: Sat Jun  5 12:52:47 2010


@<TRIPOS>MOLECULE
frag4-436-47/48856
   45    48     1     1     1
SMALL
USER_CHARGES


@<TRIPOS>ATOM
      1 O1         -8.0334   -3.4376   -1.5616 O.3        1 <1>        0.000
      2 C1         -9.0606   -3.6996   -0.5889 C.3        1 <1>        0.000
      3 C2         -8.6187   -3.7074    0.9219 C.3        1 <1>        0.000
      4 O2         -8.4354   -5.0877    1.3081 O.3        1 <1>        0.000
      5 C3         -9.6259   -5.6964    1.4248 C.3        1 <1>        0.000
      6 C4         -9.9321   -6.9442    0.6393 C.ar       1 <1>        0.000
      7 C5        -11.2256   -7.1486    0.1481 C.ar       1 <1>        0.000
      8 C6        -11.5418   -8.2984   -0.5773 C.ar       1 <1>        0.000
      9 C12       -13.3672   -4.0081   -0.0058 C.ar       1 <1>        0.000
     10 C7        -10.5435   -9.2507   -0.8270 C.ar       1 <1>        0.000
     11 C8         -9.2425   -9.0436   -0.3611 C.ar       1 <1>        0.000
     12 C9         -8.9371   -7.8971    0.3773 C.ar       1 <1>        0.000
     13 C10       -12.2775   -6.1182    0.4185 C.ar       1 <1>        0.000
     14 C11       -12.4332   -4.9837   -0.3896 C.ar       1 <1>        0.000
     15 C13       -14.1595   -4.1780    1.1316 C.ar       1 <1>        0.000
     16 C14       -14.0375   -5.3437    1.8922 C.ar       1 <1>        0.000
     17 C15       -13.0907   -6.3135    1.5353 C.ar       1 <1>        0.000
     18 C16       -11.6651   -4.7667   -1.6734 C.3        1 <1>        0.000
     19 O9        -11.0504   -3.6127   -1.9998 O.3        1 <1>        0.000
     20 C17       -10.3792   -2.9414   -0.9121 C.3        1 <1>        0.000
     21 C18        -7.3674   -2.8411    1.2207 C.3        1 <1>        0.000
     22 C19        -7.3424   -1.8263    0.0633 C.3        1 <1>        0.000
     23 C20        -6.9953   -2.5041   -1.2787 C.3        1 <1>        0.000
     24 H          -9.2941   -4.7574   -0.7096 H.spc      1 <1>        0.000
     25 H          -9.4001   -3.2386    1.5201 H.spc      1 <1>        0.000
     26 H          -9.6584   -6.0213    2.4647 H.spc      1 <1>        0.000
     27 H         -10.3386   -4.9627    1.0482 H.spc      1 <1>        0.000
     28 H         -12.5555   -8.4545   -0.9463 H.spc      1 <1>        0.000
     29 H         -13.4756   -3.1040   -0.6050 H.spc      1 <1>        0.000
     30 H         -10.7829  -10.1552   -1.3862 H.spc      1 <1>        0.000
     31 H          -8.4649   -9.7772   -0.5739 H.spc      1 <1>        0.000
     32 H          -7.9244   -7.7433    0.7500 H.spc      1 <1>        0.000
     33 H         -14.8698   -3.4048    1.4246 H.spc      1 <1>        0.000
     34 H         -14.6772   -5.4985    2.7611 H.spc      1 <1>        0.000
     35 H         -12.9896   -7.2209    2.1306 H.spc      1 <1>        0.000
     36 H         -10.8318   -5.4624   -1.5746 H.spc      1 <1>        0.000
     37 H         -12.4417   -4.8479   -2.4339 H.spc      1 <1>        0.000
     38 H         -10.1530   -1.9139   -1.1969 H.spc      1 <1>        0.000
     39 H         -11.0230   -2.9306   -0.0326 H.spc      1 <1>        0.000
     40 H          -6.4541   -3.4337    1.2743 H.spc      1 <1>        0.000
     41 H          -7.4190   -2.3582    2.1965 H.spc      1 <1>        0.000
     42 H          -8.3321   -1.3779   -0.0231 H.spc      1 <1>        0.000
     43 H          -6.5802   -1.0774    0.2782 H.spc      1 <1>        0.000
     44 H          -6.9192   -1.7628   -2.0742 H.spc      1 <1>        0.000
     45 H          -6.0319   -3.0099   -1.2148 H.spc      1 <1>        0.000
@<TRIPOS>BOND
     1    2   20 1  
     2    2    3 1  
     3    3    4 1  
     4    5    6 1  
     5    1   23 1  
     6    4    5 1  
     7    1    2 1  
     8    3   21 1  
     9   22   23 1  
    10   21   22 1  
    11   19   20 1  
    12   18   19 1  
    13   16   17 ar 
    14   15   16 ar 
    15    9   15 ar 
    16   14    9 ar 
    17   13   17 ar 
    18   14   18 1  
    19   13   14 ar 
    20   11   12 ar 
    21   10   11 ar 
    22    8   10 ar 
    23    7   13 1  
    24    7    8 ar 
    25    6   12 ar 
    26    6    7 ar 
    27    2   24 1  
    28    3   25 1  
    29    5   26 1  
    30    5   27 1  
    31    8   28 1  
    32    9   29 1  
    33   10   30 1  
    34   11   31 1  
    35   12   32 1  
    36   15   33 1  
    37   16   34 1  
    38   17   35 1  
    39   18   36 1  
    40   18   37 1  
    41   20   38 1  
    42   20   39 1  
    43   21   40 1  
    44   21   41 1  
    45   22   42 1  
    46   22   43 1  
    47   23   44 1  
    48   23   45 1  
# Name:          frag4-436-47/48856 -- energy: -5.283045
# Creation time: Sat Jun  5 12:52:47 2010


@<TRIPOS>MOLECULE
frag4-436-47/48856 -- energy: -5.283045
   45    48     1     1     1
SMALL
USER_CHARGES


@<TRIPOS>ATOM
      1 O1         -8.0334   -3.4376   -1.5616 O.3        1 <1>        0.000
      2 C1         -9.0606   -3.6996   -0.5889 C.3        1 <1>        0.000
      3 C2         -8.6187   -3.7074    0.9219 C.3        1 <1>        0.000
      4 O2         -8.4354   -5.0877    1.3081 O.3        1 <1>        0.000
      5 C3         -9.6259   -5.6964    1.4248 C.3        1 <1>        0.000
      6 C4         -9.9321   -6.9442    0.6393 C.ar       1 <1>        0.000
      7 C5        -11.2256   -7.1486    0.1481 C.ar       1 <1>        0.000
      8 C6        -11.5418   -8.2984   -0.5773 C.ar       1 <1>        0.000
      9 C12       -13.3672   -4.0081   -0.0058 C.ar       1 <1>        0.000
     10 C7        -10.5435   -9.2507   -0.8270 C.ar       1 <1>        0.000
     11 C8         -9.2425   -9.0436   -0.3611 C.ar       1 <1>        0.000
     12 C9         -8.9371   -7.8971    0.3773 C.ar       1 <1>        0.000
     13 C10       -12.2775   -6.1182    0.4185 C.ar       1 <1>        0.000
     14 C11       -12.4332   -4.9837   -0.3896 C.ar       1 <1>        0.000
     15 C13       -14.1595   -4.1780    1.1316 C.ar       1 <1>        0.000
     16 C14       -14.0375   -5.3437    1.8922 C.ar       1 <1>        0.000
     17 C15       -13.0907   -6.3135    1.5353 C.ar       1 <1>        0.000
     18 C16       -11.6651   -4.7667   -1.6734 C.3        1 <1>        0.000
     19 O9        -11.0504   -3.6127   -1.9998 O.3        1 <1>        0.000
     20 C17       -10.3792   -2.9414   -0.9121 C.3        1 <1>        0.000
     21 C18        -7.3674   -2.8411    1.2207 C.3        1 <1>        0.000
     22 C19        -7.3424   -1.8263    0.0633 C.3        1 <1>        0.000
     23 C20        -6.9953   -2.5041   -1.2787 C.3        1 <1>        0.000
     24 H          -9.2941   -4.7574   -0.7096 H.spc      1 <1>        0.000
     25 H          -9.4001   -3.2386    1.5201 H.spc      1 <1>        0.000
     26 H          -9.6584   -6.0213    2.4647 H.spc      1 <1>        0.000
     27 H         -10.3386   -4.9627    1.0482 H.spc      1 <1>        0.000
     28 H         -12.5555   -8.4545   -0.9463 H.spc      1 <1>        0.000
     29 H         -13.4756   -3.1040   -0.6050 H.spc      1 <1>        0.000
     30 H         -10.7829  -10.1552   -1.3862 H.spc      1 <1>        0.000
     31 H          -8.4649   -9.7772   -0.5739 H.spc      1 <1>        0.000
     32 H          -7.9244   -7.7433    0.7500 H.spc      1 <1>        0.000
     33 H         -14.8698   -3.4048    1.4246 H.spc      1 <1>        0.000
     34 H         -14.6772   -5.4985    2.7611 H.spc      1 <1>        0.000
     35 H         -12.9896   -7.2209    2.1306 H.spc      1 <1>        0.000
     36 H         -10.8318   -5.4624   -1.5746 H.spc      1 <1>        0.000
     37 H         -12.4417   -4.8479   -2.4339 H.spc      1 <1>        0.000
     38 H         -10.1530   -1.9139   -1.1969 H.spc      1 <1>        0.000
     39 H         -11.0230   -2.9306   -0.0326 H.spc      1 <1>        0.000
     40 H          -6.4541   -3.4337    1.2743 H.spc      1 <1>        0.000
     41 H          -7.4190   -2.3582    2.1965 H.spc      1 <1>        0.000
     42 H          -8.3321   -1.3779   -0.0231 H.spc      1 <1>        0.000
     43 H          -6.5802   -1.0774    0.2782 H.spc      1 <1>        0.000
     44 H          -6.9192   -1.7628   -2.0742 H.spc      1 <1>        0.000
     45 H          -6.0319   -3.0099   -1.2148 H.spc      1 <1>        0.000
@<TRIPOS>BOND
     1    2   20 1  
     2    2    3 1  
     3    3    4 1  
     4    5    6 1  
     5    1   23 1  
     6    4    5 1  
     7    1    2 1  
     8    3   21 1  
     9   22   23 1  
    10   21   22 1  
    11   19   20 1  
    12   18   19 1  
    13   16   17 ar 
    14   15   16 ar 
    15    9   15 ar 
    16   14    9 ar 
    17   13   17 ar 
    18   14   18 1  
    19   13   14 ar 
    20   11   12 ar 
    21   10   11 ar 
    22    8   10 ar 
    23    7   13 1  
    24    7    8 ar 
    25    6   12 ar 
    26    6    7 ar 
    27    2   24 1  
    28    3   25 1  
    29    5   26 1  
    30    5   27 1  
    31    8   28 1  
    32    9   29 1  
    33   10   30 1  
    34   11   31 1  
    35   12   32 1  
    36   15   33 1  
    37   16   34 1  
    38   17   35 1  
    39   18   36 1  
    40   18   37 1  
    41   20   38 1  
    42   20   39 1  
    43   21   40 1  
    44   21   41 1  
    45   22   42 1  
    46   22   43 1  
    47   23   44 1  
    48   23   45 1  
