#      Rotatable Fragment
#      Build by yxyuan
#
# Name:          frag4-365-96/48856
# Creation time: Sat Jun  5 12:53:30 2010


@<TRIPOS>MOLECULE
frag4-365-96/48856
   13    13     1     1     1
SMALL
USER_CHARGES


@<TRIPOS>ATOM
      1 C1          3.6542    1.8431   -0.1970 C.2        1 <1>        0.000
      2 C2          3.5164    2.8820   -1.0209 C.2        1 <1>        0.000
      3 C3          4.7217    3.7856   -1.0602 C.3        1 <1>        0.000
      4 C4          5.7321    3.1341   -0.0714 C.3        1 <1>        0.000
      5 C5          4.9786    1.9312    0.4159 C.3        1 <1>        0.000
      6 H           2.9118    1.0665   -0.0131 H.spc      1 <1>        0.000
      7 H           2.6171    3.0609   -1.6103 H.spc      1 <1>        0.000
      8 H           4.4742    4.8083   -0.7756 H.spc      1 <1>        0.000
      9 H           5.1335    3.8727   -2.0656 H.spc      1 <1>        0.000
     10 H           6.0346    3.8039    0.7336 H.spc      1 <1>        0.000
     11 H           6.6844    2.8818   -0.5379 H.spc      1 <1>        0.000
     12 H           5.5431    1.0383    0.1472 H.spc      1 <1>        0.000
     13 H           4.8542    2.0161    1.4954 H.spc      1 <1>        0.000
@<TRIPOS>BOND
     1    1    2 2  
     2    1    5 1  
     3    2    3 1  
     4    3    4 1  
     5    4    5 1  
     6    1    6 1  
     7    2    7 1  
     8    3    8 1  
     9    3    9 1  
    10    4   10 1  
    11    4   11 1  
    12    5   12 1  
    13    5   13 1  
# Name:          frag4-365-96/48856 -- energy: -0.679743
# Creation time: Sat Jun  5 12:53:30 2010


@<TRIPOS>MOLECULE
frag4-365-96/48856 -- energy: -0.679743
   13    13     1     1     1
SMALL
USER_CHARGES


@<TRIPOS>ATOM
      1 C1          3.6542    1.8431   -0.1970 C.2        1 <1>        0.000
      2 C2          3.5164    2.8820   -1.0209 C.2        1 <1>        0.000
      3 C3          4.7217    3.7856   -1.0602 C.3        1 <1>        0.000
      4 C4          5.7321    3.1341   -0.0714 C.3        1 <1>        0.000
      5 C5          4.9786    1.9312    0.4159 C.3        1 <1>        0.000
      6 H           2.9118    1.0665   -0.0131 H.spc      1 <1>        0.000
      7 H           2.6171    3.0609   -1.6103 H.spc      1 <1>        0.000
      8 H           4.4742    4.8083   -0.7756 H.spc      1 <1>        0.000
      9 H           5.1335    3.8727   -2.0656 H.spc      1 <1>        0.000
     10 H           6.0346    3.8039    0.7336 H.spc      1 <1>        0.000
     11 H           6.6844    2.8818   -0.5379 H.spc      1 <1>        0.000
     12 H           5.5431    1.0383    0.1472 H.spc      1 <1>        0.000
     13 H           4.8542    2.0161    1.4954 H.spc      1 <1>        0.000
@<TRIPOS>BOND
     1    1    2 2  
     2    1    5 1  
     3    2    3 1  
     4    3    4 1  
     5    4    5 1  
     6    1    6 1  
     7    2    7 1  
     8    3    8 1  
     9    3    9 1  
    10    4   10 1  
    11    4   11 1  
    12    5   12 1  
    13    5   13 1  
