#      Rotatable Fragment
#      Build by yxyuan
#
# Name:          frag4-485-32/48856
# Creation time: Sat Jun  5 12:52:49 2010


@<TRIPOS>MOLECULE
frag4-485-32/48856
   30    33     1     1     1
SMALL
USER_CHARGES


@<TRIPOS>ATOM
      1 O1          4.7370   -0.8669   -1.9657 O.3        1 <1>        0.000
      2 C1          5.6934   -1.0829   -0.8916 C.3        1 <1>        0.000
      3 O2          5.4888   -0.1874    0.2360 O.3        1 <1>        0.000
      4 C2          4.1712    0.1177    0.0262 C.ar       1 <1>        0.000
      5 C3          3.7383   -0.2734   -1.2423 C.ar       1 <1>        0.000
      6 C4          2.4359   -0.0508   -1.6473 C.ar       1 <1>        0.000
      7 C5          1.5448    0.5775   -0.7737 C.ar       1 <1>        0.000
      8 C6          1.9856    0.9711    0.5262 C.ar       1 <1>        0.000
      9 C21        -1.5065    2.2890    1.7624 C.3        1 <1>        0.000
     10 C7          3.3088    0.7378    0.9102 C.ar       1 <1>        0.000
     11 C8          1.0487    1.6479    1.5224 C.3        1 <1>        0.000
     12 C9         -0.4148    1.4424    1.1068 C.3        1 <1>        0.000
     13 C10        -0.5799    1.8621   -0.3619 C.3        1 <1>        0.000
     14 C11         0.1135    0.8221   -1.2477 C.3        1 <1>        0.000
     15 C20        -2.0770    2.0005   -0.3963 C.3        1 <1>        0.000
     16 O6         -2.5928    2.1734    0.8305 O.3        1 <1>        0.000
     17 H           6.6902   -0.8944   -1.2902 H.spc      1 <1>        0.000
     18 H           5.5667   -2.1044   -0.5331 H.spc      1 <1>        0.000
     19 H           2.1070   -0.3624   -2.6387 H.spc      1 <1>        0.000
     20 H          -1.7662    1.9484    2.7647 H.spc      1 <1>        0.000
     21 H          -1.2003    3.3208    1.9348 H.spc      1 <1>        0.000
     22 H           3.6572    1.0419    1.8972 H.spc      1 <1>        0.000
     23 H           1.2648    2.7161    1.5432 H.spc      1 <1>        0.000
     24 H           1.2024    1.2091    2.5083 H.spc      1 <1>        0.000
     25 H          -0.5582    0.3984    1.3855 H.spc      1 <1>        0.000
     26 H          -0.1178    2.7747   -0.7385 H.spc      1 <1>        0.000
     27 H           0.1401    1.1933   -2.2722 H.spc      1 <1>        0.000
     28 H          -0.4412   -0.1145   -1.1917 H.spc      1 <1>        0.000
     29 H          -2.4949    1.0857   -0.8165 H.spc      1 <1>        0.000
     30 H          -2.3253    2.8752   -0.9974 H.spc      1 <1>        0.000
@<TRIPOS>BOND
     1   16    9 1  
     2    1    2 1  
     3    3    4 1  
     4   13   14 1  
     5    1    5 1  
     6   12    9 1  
     7    4   10 ar 
     8    7    8 ar 
     9    8   11 1  
    10    6    7 ar 
    11    5    6 ar 
    12   13   15 1  
    13    8   10 ar 
    14    7   14 1  
    15    4    5 ar 
    16   11   12 1  
    17    2    3 1  
    18   15   16 1  
    19   12   13 1  
    20    2   17 1  
    21    2   18 1  
    22    6   19 1  
    23    9   20 1  
    24    9   21 1  
    25   10   22 1  
    26   11   23 1  
    27   11   24 1  
    28   12   25 1  
    29   13   26 1  
    30   14   27 1  
    31   14   28 1  
    32   15   29 1  
    33   15   30 1  
# Name:          frag4-485-32/48856 -- energy: -3.471503
# Creation time: Sat Jun  5 12:52:49 2010


@<TRIPOS>MOLECULE
frag4-485-32/48856 -- energy: -3.471503
   30    33     1     1     1
SMALL
USER_CHARGES


@<TRIPOS>ATOM
      1 O1          4.7370   -0.8669   -1.9657 O.3        1 <1>        0.000
      2 C1          5.6934   -1.0829   -0.8916 C.3        1 <1>        0.000
      3 O2          5.4888   -0.1874    0.2360 O.3        1 <1>        0.000
      4 C2          4.1712    0.1177    0.0262 C.ar       1 <1>        0.000
      5 C3          3.7383   -0.2734   -1.2423 C.ar       1 <1>        0.000
      6 C4          2.4359   -0.0508   -1.6473 C.ar       1 <1>        0.000
      7 C5          1.5448    0.5775   -0.7737 C.ar       1 <1>        0.000
      8 C6          1.9856    0.9711    0.5262 C.ar       1 <1>        0.000
      9 C21        -1.5065    2.2890    1.7624 C.3        1 <1>        0.000
     10 C7          3.3088    0.7378    0.9102 C.ar       1 <1>        0.000
     11 C8          1.0487    1.6479    1.5224 C.3        1 <1>        0.000
     12 C9         -0.4148    1.4424    1.1068 C.3        1 <1>        0.000
     13 C10        -0.5799    1.8621   -0.3619 C.3        1 <1>        0.000
     14 C11         0.1135    0.8221   -1.2477 C.3        1 <1>        0.000
     15 C20        -2.0770    2.0005   -0.3963 C.3        1 <1>        0.000
     16 O6         -2.5928    2.1734    0.8305 O.3        1 <1>        0.000
     17 H           6.6902   -0.8944   -1.2902 H.spc      1 <1>        0.000
     18 H           5.5667   -2.1044   -0.5331 H.spc      1 <1>        0.000
     19 H           2.1070   -0.3624   -2.6387 H.spc      1 <1>        0.000
     20 H          -1.7662    1.9484    2.7647 H.spc      1 <1>        0.000
     21 H          -1.2003    3.3208    1.9348 H.spc      1 <1>        0.000
     22 H           3.6572    1.0419    1.8972 H.spc      1 <1>        0.000
     23 H           1.2648    2.7161    1.5432 H.spc      1 <1>        0.000
     24 H           1.2024    1.2091    2.5083 H.spc      1 <1>        0.000
     25 H          -0.5582    0.3984    1.3855 H.spc      1 <1>        0.000
     26 H          -0.1178    2.7747   -0.7385 H.spc      1 <1>        0.000
     27 H           0.1401    1.1933   -2.2722 H.spc      1 <1>        0.000
     28 H          -0.4412   -0.1145   -1.1917 H.spc      1 <1>        0.000
     29 H          -2.4949    1.0857   -0.8165 H.spc      1 <1>        0.000
     30 H          -2.3253    2.8752   -0.9974 H.spc      1 <1>        0.000
@<TRIPOS>BOND
     1   16    9 1  
     2    1    2 1  
     3    3    4 1  
     4   13   14 1  
     5    1    5 1  
     6   12    9 1  
     7    4   10 ar 
     8    7    8 ar 
     9    8   11 1  
    10    6    7 ar 
    11    5    6 ar 
    12   13   15 1  
    13    8   10 ar 
    14    7   14 1  
    15    4    5 ar 
    16   11   12 1  
    17    2    3 1  
    18   15   16 1  
    19   12   13 1  
    20    2   17 1  
    21    2   18 1  
    22    6   19 1  
    23    9   20 1  
    24    9   21 1  
    25   10   22 1  
    26   11   23 1  
    27   11   24 1  
    28   12   25 1  
    29   13   26 1  
    30   14   27 1  
    31   14   28 1  
    32   15   29 1  
    33   15   30 1  
