#      Rotatable Fragment
#      Build by yxyuan
#
# Name:          frag4-324-737/150395
# Creation time: Sat Jun  5 12:53:31 2010


@<TRIPOS>MOLECULE
frag4-324-737/150395
   17    18     1     1     1
SMALL
USER_CHARGES


@<TRIPOS>ATOM
      1 N1          1.4007   -1.6510   -0.0386 N.pl3      1 <1>        0.000
      2 C1          1.3444   -0.2192   -0.0939 C.3        1 <1>        0.000
      3 C2          0.1631   -2.0058    0.0490 C.3        1 <1>        0.000
      4 C3          2.4691   -2.3994   -0.0330 C.2        1 <1>        0.000
      5 C4         -0.1694   -0.5294    0.1488 C.3        1 <1>        0.000
      6 S1          2.4831    0.3685    1.1766 S.3        1 <1>        0.000
      7 C5          3.6882   -1.8527    0.0804 C.2        1 <1>        0.000
      8 C7          3.9202   -0.3765    0.3220 C.3        1 <1>        0.000
      9 H           1.5966    0.5192   -0.8550 H.spc      1 <1>        0.000
     10 H          -0.1769   -2.7224    0.7967 H.spc      1 <1>        0.000
     11 H          -0.3033   -2.6500   -0.6964 H.spc      1 <1>        0.000
     12 H           2.3697   -3.4812   -0.1215 H.spc      1 <1>        0.000
     13 H          -0.9410   -0.0844   -0.4795 H.spc      1 <1>        0.000
     14 H          -0.6917   -0.1295    1.0179 H.spc      1 <1>        0.000
     15 H           4.5572   -2.5051   -0.0059 H.spc      1 <1>        0.000
     16 H           4.8051   -0.2552    0.9468 H.spc      1 <1>        0.000
     17 H           4.0581    0.1215   -0.6377 H.spc      1 <1>        0.000
@<TRIPOS>BOND
     1    6    8 1  
     2    7    8 1  
     3    1    2 1  
     4    1    3 1  
     5    2    5 1  
     6    1    4 1  
     7    2    6 1  
     8    3    5 1  
     9    4    7 2  
    10    2    9 1  
    11    3   10 1  
    12    3   11 1  
    13    4   12 1  
    14    5   13 1  
    15    5   14 1  
    16    7   15 1  
    17    8   16 1  
    18    8   17 1  
# Name:          frag4-324-737/150395 -- energy: -1.290693
# Creation time: Sat Jun  5 12:53:31 2010


@<TRIPOS>MOLECULE
frag4-324-737/150395 -- energy: -1.290693
   17    18     1     1     1
SMALL
USER_CHARGES


@<TRIPOS>ATOM
      1 N1          1.4007   -1.6510   -0.0386 N.pl3      1 <1>        0.000
      2 C1          1.3444   -0.2192   -0.0939 C.3        1 <1>        0.000
      3 C2          0.1631   -2.0058    0.0490 C.3        1 <1>        0.000
      4 C3          2.4691   -2.3994   -0.0330 C.2        1 <1>        0.000
      5 C4         -0.1694   -0.5294    0.1488 C.3        1 <1>        0.000
      6 S1          2.4831    0.3685    1.1766 S.3        1 <1>        0.000
      7 C5          3.6882   -1.8527    0.0804 C.2        1 <1>        0.000
      8 C7          3.9202   -0.3765    0.3220 C.3        1 <1>        0.000
      9 H           1.5966    0.5192   -0.8550 H.spc      1 <1>        0.000
     10 H          -0.1769   -2.7224    0.7967 H.spc      1 <1>        0.000
     11 H          -0.3033   -2.6500   -0.6964 H.spc      1 <1>        0.000
     12 H           2.3697   -3.4812   -0.1215 H.spc      1 <1>        0.000
     13 H          -0.9410   -0.0844   -0.4795 H.spc      1 <1>        0.000
     14 H          -0.6917   -0.1295    1.0179 H.spc      1 <1>        0.000
     15 H           4.5572   -2.5051   -0.0059 H.spc      1 <1>        0.000
     16 H           4.8051   -0.2552    0.9468 H.spc      1 <1>        0.000
     17 H           4.0581    0.1215   -0.6377 H.spc      1 <1>        0.000
@<TRIPOS>BOND
     1    6    8 1  
     2    7    8 1  
     3    1    2 1  
     4    1    3 1  
     5    2    5 1  
     6    1    4 1  
     7    2    6 1  
     8    3    5 1  
     9    4    7 2  
    10    2    9 1  
    11    3   10 1  
    12    3   11 1  
    13    4   12 1  
    14    5   13 1  
    15    5   14 1  
    16    7   15 1  
    17    8   16 1  
    18    8   17 1  
