#      Rotatable Fragment
#      Build by yxyuan
#
# Name:          frag5-495-1002/41815
# Creation time: Sat Jun  5 12:52:50 2010


@<TRIPOS>MOLECULE
frag5-495-1002/41815
   16    16     1     1     1
SMALL
USER_CHARGES


@<TRIPOS>ATOM
      1 N1          3.3354    2.5709   -1.1317 N.am       1 <1>        0.000
      2 C1          4.2048    3.3430   -0.2572 C.3        1 <1>        0.000
      3 C2          4.9083    4.2465   -1.2447 C.3        1 <1>        0.000
      4 C3          3.8553    4.4584   -2.3452 C.3        1 <1>        0.000
      5 C4          2.7549    3.4342   -2.1328 C.3        1 <1>        0.000
      6 C6          3.2284    1.2441   -1.0102 C.2        1 <1>        0.000
      7 O3          3.8952    0.5626   -0.2458 O.2        1 <1>        0.000
      8 H           4.8860    2.7284    0.3312 H.spc      1 <1>        0.000
      9 H           3.6678    3.8848    0.5214 H.spc      1 <1>        0.000
     10 H           5.8318    3.8113   -1.6266 H.spc      1 <1>        0.000
     11 H           5.2383    5.1828   -0.7946 H.spc      1 <1>        0.000
     12 H           4.3051    4.3338   -3.3302 H.spc      1 <1>        0.000
     13 H           3.4492    5.4685   -2.2927 H.spc      1 <1>        0.000
     14 H           1.8079    3.8767   -1.8238 H.spc      1 <1>        0.000
     15 H           2.4736    2.9082   -3.0451 H.spc      1 <1>        0.000
     16 H           2.4957    0.7348   -1.6362 H.spc      1 <1>        0.000
@<TRIPOS>BOND
     1    6    7 2  
     2    1    2 1  
     3    1    5 1  
     4    1    6 am 
     5    2    3 1  
     6    3    4 1  
     7    4    5 1  
     8    2    8 1  
     9    2    9 1  
    10    3   10 1  
    11    3   11 1  
    12    4   12 1  
    13    4   13 1  
    14    5   14 1  
    15    5   15 1  
    16    6   16 1  
# Name:          frag5-495-1002/41815
# Creation time: Sat Jun  5 12:52:50 2010


@<TRIPOS>MOLECULE
frag5-495-1002/41815
   16    16     1     1     1
SMALL
USER_CHARGES


@<TRIPOS>ATOM
      1 N1          3.5500    2.4405   -1.3898 N.am       1 <1>        0.000
      2 C1          2.8908    3.3446   -2.3028 C.3        1 <1>        0.000
      3 C2          3.6417    4.6371   -2.0883 C.3        1 <1>        0.000
      4 C3          4.5390    4.4577   -0.8613 C.3        1 <1>        0.000
      5 C4          4.8114    2.9834   -0.9073 C.3        1 <1>        0.000
      6 C6          3.1309    1.2771   -0.8947 C.2        1 <1>        0.000
      7 O3          3.6183    0.7193    0.0768 O.2        1 <1>        0.000
      8 H           1.8215    3.4370   -2.1125 H.spc      1 <1>        0.000
      9 H           2.9205    3.0017   -3.3370 H.spc      1 <1>        0.000
     10 H           2.9435    5.4590   -1.9300 H.spc      1 <1>        0.000
     11 H           4.2430    4.8759   -2.9656 H.spc      1 <1>        0.000
     12 H           4.0787    4.7888    0.0696 H.spc      1 <1>        0.000
     13 H           5.4403    5.0702   -0.8850 H.spc      1 <1>        0.000
     14 H           5.6569    2.7267   -1.5455 H.spc      1 <1>        0.000
     15 H           5.1084    2.5753    0.0588 H.spc      1 <1>        0.000
     16 H           2.2933    0.7878   -1.3918 H.spc      1 <1>        0.000
@<TRIPOS>BOND
     1    6    7 2  
     2    1    2 1  
     3    1    5 1  
     4    1    6 am 
     5    2    3 1  
     6    3    4 1  
     7    4    5 1  
     8    2    8 1  
     9    2    9 1  
    10    3   10 1  
    11    3   11 1  
    12    4   12 1  
    13    4   13 1  
    14    5   14 1  
    15    5   15 1  
    16    6   16 1  
# Name:          frag5-495-1002/41815 -- energy: -1.281990
# Creation time: Sat Jun  5 12:52:50 2010


@<TRIPOS>MOLECULE
frag5-495-1002/41815 -- energy: -1.281990
   16    16     1     1     1
SMALL
USER_CHARGES


@<TRIPOS>ATOM
      1 N1          3.3354    2.5709   -1.1317 N.am       1 <1>        0.000
      2 C1          4.2048    3.3430   -0.2572 C.3        1 <1>        0.000
      3 C2          4.9083    4.2465   -1.2447 C.3        1 <1>        0.000
      4 C3          3.8553    4.4584   -2.3452 C.3        1 <1>        0.000
      5 C4          2.7549    3.4342   -2.1328 C.3        1 <1>        0.000
      6 C6          3.2284    1.2441   -1.0102 C.2        1 <1>        0.000
      7 O3          3.8952    0.5626   -0.2458 O.2        1 <1>        0.000
      8 H           4.8860    2.7284    0.3312 H.spc      1 <1>        0.000
      9 H           3.6678    3.8848    0.5214 H.spc      1 <1>        0.000
     10 H           5.8318    3.8113   -1.6266 H.spc      1 <1>        0.000
     11 H           5.2383    5.1828   -0.7946 H.spc      1 <1>        0.000
     12 H           4.3051    4.3338   -3.3302 H.spc      1 <1>        0.000
     13 H           3.4492    5.4685   -2.2927 H.spc      1 <1>        0.000
     14 H           1.8079    3.8767   -1.8238 H.spc      1 <1>        0.000
     15 H           2.4736    2.9082   -3.0451 H.spc      1 <1>        0.000
     16 H           2.4957    0.7348   -1.6362 H.spc      1 <1>        0.000
@<TRIPOS>BOND
     1    6    7 2  
     2    1    2 1  
     3    1    5 1  
     4    1    6 am 
     5    2    3 1  
     6    3    4 1  
     7    4    5 1  
     8    2    8 1  
     9    2    9 1  
    10    3   10 1  
    11    3   11 1  
    12    4   12 1  
    13    4   13 1  
    14    5   14 1  
    15    5   15 1  
    16    6   16 1  
# Name:          frag5-495-1002/41815 -- energy: -1.170666
# Creation time: Sat Jun  5 12:52:50 2010


@<TRIPOS>MOLECULE
frag5-495-1002/41815 -- energy: -1.170666
   16    16     1     1     1
SMALL
USER_CHARGES


@<TRIPOS>ATOM
      1 N1          3.5500    2.4405   -1.3898 N.am       1 <1>        0.000
      2 C1          2.8908    3.3446   -2.3028 C.3        1 <1>        0.000
      3 C2          3.6417    4.6371   -2.0883 C.3        1 <1>        0.000
      4 C3          4.5390    4.4577   -0.8613 C.3        1 <1>        0.000
      5 C4          4.8114    2.9834   -0.9073 C.3        1 <1>        0.000
      6 C6          3.1309    1.2771   -0.8947 C.2        1 <1>        0.000
      7 O3          3.6183    0.7193    0.0768 O.2        1 <1>        0.000
      8 H           1.8215    3.4370   -2.1125 H.spc      1 <1>        0.000
      9 H           2.9205    3.0017   -3.3370 H.spc      1 <1>        0.000
     10 H           2.9435    5.4590   -1.9300 H.spc      1 <1>        0.000
     11 H           4.2430    4.8759   -2.9656 H.spc      1 <1>        0.000
     12 H           4.0787    4.7888    0.0696 H.spc      1 <1>        0.000
     13 H           5.4403    5.0702   -0.8850 H.spc      1 <1>        0.000
     14 H           5.6569    2.7267   -1.5455 H.spc      1 <1>        0.000
     15 H           5.1084    2.5753    0.0588 H.spc      1 <1>        0.000
     16 H           2.2933    0.7878   -1.3918 H.spc      1 <1>        0.000
@<TRIPOS>BOND
     1    6    7 2  
     2    1    2 1  
     3    1    5 1  
     4    1    6 am 
     5    2    3 1  
     6    3    4 1  
     7    4    5 1  
     8    2    8 1  
     9    2    9 1  
    10    3   10 1  
    11    3   11 1  
    12    4   12 1  
    13    4   13 1  
    14    5   14 1  
    15    5   15 1  
    16    6   16 1  
