#      Rotatable Fragment
#      Build by yxyuan
#
# Name:          frag3-280-3/96164
# Creation time: Sat Jun  5 12:53:23 2010


@<TRIPOS>MOLECULE
frag3-280-3/96164
   14    13     1     1     1
SMALL
USER_CHARGES


@<TRIPOS>ATOM
      1 C1         -1.3796    0.3724    0.0495 C.2        1 <1>        0.000
      2 C2         -1.3991   -0.9760    0.0374 C.2        1 <1>        0.000
      3 N1         -0.2322    1.0436    0.2442 N.pl3      1 <1>        0.000
      4 N2         -2.4564    1.1271   -0.1244 N.pl3      1 <1>        0.000
      5 C3         -2.6439   -1.7322   -0.1798 C.2        1 <1>        0.000
      6 O1         -3.8209   -1.2674    0.2383 O.3        1 <1>        0.000
      7 O2         -2.5780   -2.8279   -0.7356 O.2        1 <1>        0.000
      8 C22        -0.2229   -1.7341    0.2089 C.1        1 <1>        0.000
      9 N4          0.7330   -2.3641    0.3616 N.1        1 <1>        0.000
     10 H           0.6396    0.5332    0.3854 H.spc      1 <1>        0.000
     11 H          -0.2328    2.0636    0.2508 H.spc      1 <1>        0.000
     12 H          -3.3655    0.6909   -0.2783 H.spc      1 <1>        0.000
     13 H          -2.3754    2.1437   -0.1043 H.spc      1 <1>        0.000
     14 H          -3.6973   -0.4074    0.6467 H.spc      1 <1>        0.000
@<TRIPOS>BOND
     1    1    3 1  
     2    1    4 1  
     3    1    2 2  
     4    2    5 1  
     5    2    8 1  
     6    5    6 1  
     7    5    7 2  
     8    8    9 3  
     9    3   10 1  
    10    3   11 1  
    11    4   12 1  
    12    4   13 1  
    13    6   14 1  
# Name:          frag3-280-3/96164
# Creation time: Sat Jun  5 12:53:23 2010


@<TRIPOS>MOLECULE
frag3-280-3/96164
   14    13     1     1     1
SMALL
USER_CHARGES


@<TRIPOS>ATOM
      1 C1         -1.3954    0.3613    0.2064 C.2        1 <1>        0.000
      2 C2         -1.3951   -0.9758    0.0163 C.2        1 <1>        0.000
      3 N1         -0.2416    1.0325    0.3615 N.pl3      1 <1>        0.000
      4 N2         -2.4942    1.1027    0.2471 N.pl3      1 <1>        0.000
      5 C3         -2.6597   -1.7274   -0.1460 C.2        1 <1>        0.000
      6 O1         -3.5051   -1.4233   -1.1288 O.3        1 <1>        0.000
      7 O2         -2.8801   -2.6752    0.5975 O.2        1 <1>        0.000
      8 C22        -0.2048   -1.7196   -0.0088 C.1        1 <1>        0.000
      9 N4          0.7758   -2.3336   -0.0451 N.1        1 <1>        0.000
     10 H           0.6469    0.5321    0.3363 H.spc      1 <1>        0.000
     11 H          -0.2543    2.0424    0.5044 H.spc      1 <1>        0.000
     12 H          -3.4087    0.6660    0.1311 H.spc      1 <1>        0.000
     13 H          -2.4249    2.1096    0.3944 H.spc      1 <1>        0.000
     14 H          -3.1766   -0.6582   -1.6067 H.spc      1 <1>        0.000
@<TRIPOS>BOND
     1    1    3 1  
     2    1    4 1  
     3    1    2 2  
     4    2    5 1  
     5    2    8 1  
     6    5    6 1  
     7    5    7 2  
     8    8    9 3  
     9    3   10 1  
    10    3   11 1  
    11    4   12 1  
    12    4   13 1  
    13    6   14 1  
# Name:          frag3-280-3/96164
# Creation time: Sat Jun  5 12:53:23 2010


@<TRIPOS>MOLECULE
frag3-280-3/96164
   14    13     1     1     1
SMALL
USER_CHARGES


@<TRIPOS>ATOM
      1 C1         -1.3849    0.3730    0.1180 C.2        1 <1>        0.000
      2 C2         -1.3970   -0.9756    0.0252 C.2        1 <1>        0.000
      3 N1         -0.2226    1.0370    0.2831 N.pl3      1 <1>        0.000
      4 N2         -2.4611    1.1457    0.0375 N.pl3      1 <1>        0.000
      5 C3         -2.6763   -1.7005   -0.1411 C.2        1 <1>        0.000
      6 O1         -2.7522   -2.6084   -1.1245 O.3        1 <1>        0.000
      7 O2         -3.6183   -1.5272    0.6129 O.2        1 <1>        0.000
      8 C22        -0.2251   -1.7327    0.1131 C.1        1 <1>        0.000
      9 N4          0.7375   -2.3697    0.1758 N.1        1 <1>        0.000
     10 H           0.6558    0.5215    0.3388 H.spc      1 <1>        0.000
     11 H          -0.2220    2.0547    0.3522 H.spc      1 <1>        0.000
     12 H          -3.3802    0.7268   -0.1043 H.spc      1 <1>        0.000
     13 H          -2.3690    2.1584    0.1174 H.spc      1 <1>        0.000
     14 H          -1.9287   -2.6136   -1.6179 H.spc      1 <1>        0.000
@<TRIPOS>BOND
     1    1    3 1  
     2    1    4 1  
     3    1    2 2  
     4    2    5 1  
     5    2    8 1  
     6    5    6 1  
     7    5    7 2  
     8    8    9 3  
     9    3   10 1  
    10    3   11 1  
    11    4   12 1  
    12    4   13 1  
    13    6   14 1  
# Name:          frag3-280-3/96164
# Creation time: Sat Jun  5 12:53:23 2010


@<TRIPOS>MOLECULE
frag3-280-3/96164
   14    13     1     1     1
SMALL
USER_CHARGES


@<TRIPOS>ATOM
      1 C1         -1.3418    0.3654   -0.1148 C.2        1 <1>        0.000
      2 C2         -1.4025   -0.9745    0.0511 C.2        1 <1>        0.000
      3 N1         -0.1887    1.0311    0.1035 N.pl3      1 <1>        0.000
      4 N2         -2.3638    1.1279   -0.4835 N.pl3      1 <1>        0.000
      5 C3         -2.6728   -1.6990   -0.1836 C.2        1 <1>        0.000
      6 O1         -3.0224   -2.6404    0.7063 O.3        1 <1>        0.000
      7 O2         -3.3541   -1.4990   -1.1746 O.2        1 <1>        0.000
      8 C22        -0.2840   -1.7206    0.4357 C.1        1 <1>        0.000
      9 N4          0.6300   -2.3493    0.7599 N.1        1 <1>        0.000
     10 H           0.6460    0.5230    0.3961 H.spc      1 <1>        0.000
     11 H          -0.1516    2.0424   -0.0241 H.spc      1 <1>        0.000
     12 H          -3.2754    0.7070   -0.6631 H.spc      1 <1>        0.000
     13 H          -2.2376    2.1347   -0.5872 H.spc      1 <1>        0.000
     14 H          -2.3784   -2.6614    1.4179 H.spc      1 <1>        0.000
@<TRIPOS>BOND
     1    1    3 1  
     2    1    4 1  
     3    1    2 2  
     4    2    5 1  
     5    2    8 1  
     6    5    6 1  
     7    5    7 2  
     8    8    9 3  
     9    3   10 1  
    10    3   11 1  
    11    4   12 1  
    12    4   13 1  
    13    6   14 1  
# Name:          frag3-280-3/96164 -- energy: -0.879421
# Creation time: Sat Jun  5 12:53:23 2010


@<TRIPOS>MOLECULE
frag3-280-3/96164 -- energy: -0.879421
   14    13     1     1     1
SMALL
USER_CHARGES


@<TRIPOS>ATOM
      1 C1         -1.3954    0.3613    0.2064 C.2        1 <1>        0.000
      2 C2         -1.3951   -0.9758    0.0163 C.2        1 <1>        0.000
      3 N1         -0.2416    1.0325    0.3615 N.pl3      1 <1>        0.000
      4 N2         -2.4942    1.1027    0.2471 N.pl3      1 <1>        0.000
      5 C3         -2.6597   -1.7274   -0.1460 C.2        1 <1>        0.000
      6 O1         -3.5051   -1.4233   -1.1288 O.3        1 <1>        0.000
      7 O2         -2.8801   -2.6752    0.5975 O.2        1 <1>        0.000
      8 C22        -0.2048   -1.7196   -0.0088 C.1        1 <1>        0.000
      9 N4          0.7758   -2.3336   -0.0451 N.1        1 <1>        0.000
     10 H           0.6469    0.5321    0.3363 H.spc      1 <1>        0.000
     11 H          -0.2543    2.0424    0.5044 H.spc      1 <1>        0.000
     12 H          -3.4087    0.6660    0.1311 H.spc      1 <1>        0.000
     13 H          -2.4249    2.1096    0.3944 H.spc      1 <1>        0.000
     14 H          -3.1766   -0.6582   -1.6067 H.spc      1 <1>        0.000
@<TRIPOS>BOND
     1    1    3 1  
     2    1    4 1  
     3    1    2 2  
     4    2    5 1  
     5    2    8 1  
     6    5    6 1  
     7    5    7 2  
     8    8    9 3  
     9    3   10 1  
    10    3   11 1  
    11    4   12 1  
    12    4   13 1  
    13    6   14 1  
# Name:          frag3-280-3/96164 -- energy: -0.648413
# Creation time: Sat Jun  5 12:53:23 2010


@<TRIPOS>MOLECULE
frag3-280-3/96164 -- energy: -0.648413
   14    13     1     1     1
SMALL
USER_CHARGES


@<TRIPOS>ATOM
      1 C1         -1.3849    0.3730    0.1180 C.2        1 <1>        0.000
      2 C2         -1.3970   -0.9756    0.0252 C.2        1 <1>        0.000
      3 N1         -0.2226    1.0370    0.2831 N.pl3      1 <1>        0.000
      4 N2         -2.4611    1.1457    0.0375 N.pl3      1 <1>        0.000
      5 C3         -2.6763   -1.7005   -0.1411 C.2        1 <1>        0.000
      6 O1         -2.7522   -2.6084   -1.1245 O.3        1 <1>        0.000
      7 O2         -3.6183   -1.5272    0.6129 O.2        1 <1>        0.000
      8 C22        -0.2251   -1.7327    0.1131 C.1        1 <1>        0.000
      9 N4          0.7375   -2.3697    0.1758 N.1        1 <1>        0.000
     10 H           0.6558    0.5215    0.3388 H.spc      1 <1>        0.000
     11 H          -0.2220    2.0547    0.3522 H.spc      1 <1>        0.000
     12 H          -3.3802    0.7268   -0.1043 H.spc      1 <1>        0.000
     13 H          -2.3690    2.1584    0.1174 H.spc      1 <1>        0.000
     14 H          -1.9287   -2.6136   -1.6179 H.spc      1 <1>        0.000
@<TRIPOS>BOND
     1    1    3 1  
     2    1    4 1  
     3    1    2 2  
     4    2    5 1  
     5    2    8 1  
     6    5    6 1  
     7    5    7 2  
     8    8    9 3  
     9    3   10 1  
    10    3   11 1  
    11    4   12 1  
    12    4   13 1  
    13    6   14 1  
# Name:          frag3-280-3/96164 -- energy: -0.360857
# Creation time: Sat Jun  5 12:53:23 2010


@<TRIPOS>MOLECULE
frag3-280-3/96164 -- energy: -0.360857
   14    13     1     1     1
SMALL
USER_CHARGES


@<TRIPOS>ATOM
      1 C1         -1.3418    0.3654   -0.1148 C.2        1 <1>        0.000
      2 C2         -1.4025   -0.9745    0.0511 C.2        1 <1>        0.000
      3 N1         -0.1887    1.0311    0.1035 N.pl3      1 <1>        0.000
      4 N2         -2.3638    1.1279   -0.4835 N.pl3      1 <1>        0.000
      5 C3         -2.6728   -1.6990   -0.1836 C.2        1 <1>        0.000
      6 O1         -3.0224   -2.6404    0.7063 O.3        1 <1>        0.000
      7 O2         -3.3541   -1.4990   -1.1746 O.2        1 <1>        0.000
      8 C22        -0.2840   -1.7206    0.4357 C.1        1 <1>        0.000
      9 N4          0.6300   -2.3493    0.7599 N.1        1 <1>        0.000
     10 H           0.6460    0.5230    0.3961 H.spc      1 <1>        0.000
     11 H          -0.1516    2.0424   -0.0241 H.spc      1 <1>        0.000
     12 H          -3.2754    0.7070   -0.6631 H.spc      1 <1>        0.000
     13 H          -2.2376    2.1347   -0.5872 H.spc      1 <1>        0.000
     14 H          -2.3784   -2.6614    1.4179 H.spc      1 <1>        0.000
@<TRIPOS>BOND
     1    1    3 1  
     2    1    4 1  
     3    1    2 2  
     4    2    5 1  
     5    2    8 1  
     6    5    6 1  
     7    5    7 2  
     8    8    9 3  
     9    3   10 1  
    10    3   11 1  
    11    4   12 1  
    12    4   13 1  
    13    6   14 1  
