#      Rotatable Fragment
#      Build by yxyuan
#
# Name:          frag5-609-96/138278
# Creation time: Sat Jun  5 12:53:46 2010


@<TRIPOS>MOLECULE
frag5-609-96/138278
   17    17     1     1     1
SMALL
USER_CHARGES


@<TRIPOS>ATOM
      1 C6          0.5868   -1.5327   -0.3078 C.3        1 <1>        0.000
      2 C10         0.6481   -2.8953    0.3319 C.2        1 <1>        0.000
      3 C11         1.8577   -0.7721    0.0834 C.3        1 <1>        0.000
      4 C18         1.8744   -3.1985    1.1567 C.3        1 <1>        0.000
      5 O2         -0.2485   -3.7219    0.1890 O.2        1 <1>        0.000
      6 C19         3.1426   -1.5318   -0.2834 C.3        1 <1>        0.000
      7 C20         3.1267   -2.9475    0.3113 C.3        1 <1>        0.000
      8 H          -0.2965   -0.9939    0.0350 H.spc      1 <1>        0.000
      9 H           0.5215   -1.6269   -1.3918 H.spc      1 <1>        0.000
     10 H           1.8466   -0.6372    1.1650 H.spc      1 <1>        0.000
     11 H           1.8619    0.1729   -0.4597 H.spc      1 <1>        0.000
     12 H           1.8517   -4.2406    1.4753 H.spc      1 <1>        0.000
     13 H           1.8919   -2.5540    2.0356 H.spc      1 <1>        0.000
     14 H           3.2091   -1.6069   -1.3688 H.spc      1 <1>        0.000
     15 H           3.9985   -0.9905    0.1197 H.spc      1 <1>        0.000
     16 H           4.0003   -3.0579    0.9538 H.spc      1 <1>        0.000
     17 H           3.1330   -3.6633   -0.5107 H.spc      1 <1>        0.000
@<TRIPOS>BOND
     1    6    7 1  
     2    1    2 1  
     3    1    3 1  
     4    2    4 1  
     5    2    5 2  
     6    3    6 1  
     7    4    7 1  
     8    1    8 1  
     9    1    9 1  
    10    3   10 1  
    11    3   11 1  
    12    4   12 1  
    13    4   13 1  
    14    6   14 1  
    15    6   15 1  
    16    7   16 1  
    17    7   17 1  
# Name:          frag5-609-96/138278 -- energy: -0.801488
# Creation time: Sat Jun  5 12:53:46 2010


@<TRIPOS>MOLECULE
frag5-609-96/138278 -- energy: -0.801488
   17    17     1     1     1
SMALL
USER_CHARGES


@<TRIPOS>ATOM
      1 C6          0.5868   -1.5327   -0.3078 C.3        1 <1>        0.000
      2 C10         0.6481   -2.8953    0.3319 C.2        1 <1>        0.000
      3 C11         1.8577   -0.7721    0.0834 C.3        1 <1>        0.000
      4 C18         1.8744   -3.1985    1.1567 C.3        1 <1>        0.000
      5 O2         -0.2485   -3.7219    0.1890 O.2        1 <1>        0.000
      6 C19         3.1426   -1.5318   -0.2834 C.3        1 <1>        0.000
      7 C20         3.1267   -2.9475    0.3113 C.3        1 <1>        0.000
      8 H          -0.2965   -0.9939    0.0350 H.spc      1 <1>        0.000
      9 H           0.5215   -1.6269   -1.3918 H.spc      1 <1>        0.000
     10 H           1.8466   -0.6372    1.1650 H.spc      1 <1>        0.000
     11 H           1.8619    0.1729   -0.4597 H.spc      1 <1>        0.000
     12 H           1.8517   -4.2406    1.4753 H.spc      1 <1>        0.000
     13 H           1.8919   -2.5540    2.0356 H.spc      1 <1>        0.000
     14 H           3.2091   -1.6069   -1.3688 H.spc      1 <1>        0.000
     15 H           3.9985   -0.9905    0.1197 H.spc      1 <1>        0.000
     16 H           4.0003   -3.0579    0.9538 H.spc      1 <1>        0.000
     17 H           3.1330   -3.6633   -0.5107 H.spc      1 <1>        0.000
@<TRIPOS>BOND
     1    6    7 1  
     2    1    2 1  
     3    1    3 1  
     4    2    4 1  
     5    2    5 2  
     6    3    6 1  
     7    4    7 1  
     8    1    8 1  
     9    1    9 1  
    10    3   10 1  
    11    3   11 1  
    12    4   12 1  
    13    4   13 1  
    14    6   14 1  
    15    6   15 1  
    16    7   16 1  
    17    7   17 1  
