#      Rotatable Fragment
#      Build by yxyuan
#
# Name:          frag5-575-138/138278
# Creation time: Sat Jun  5 12:53:44 2010


@<TRIPOS>MOLECULE
frag5-575-138/138278
   65    69     1     1     1
SMALL
USER_CHARGES


@<TRIPOS>ATOM
      1 C1         -1.0900    0.9959   -0.7625 C.3        1 <1>        0.000
      2 O1         -1.6113   -0.2000   -1.3231 O.3        1 <1>        0.000
      3 C2         -0.5436    0.4971    0.6052 C.3        1 <1>        0.000
      4 O2         -0.0348    1.7801   -1.2917 O.3        1 <1>        0.000
      5 C3         -2.3577    1.9120   -0.7576 C.3        1 <1>        0.000
      6 C4         -2.7553   -0.8831   -0.8548 C.3        1 <1>        0.000
      7 C5          0.9082    0.8079    1.0697 C.3        1 <1>        0.000
      8 C6          0.7437    2.7332   -0.5843 C.3        1 <1>        0.000
      9 C15         2.2565   -0.6982    2.2423 C.2        1 <1>        0.000
     10 C7         -3.6915    1.3959   -1.2448 C.3        1 <1>        0.000
     11 C9         -3.9795    0.0234   -0.6844 C.3        1 <1>        0.000
     12 C10         1.5398    2.0756    0.5235 C.3        1 <1>        0.000
     13 O3          1.8005   -0.2897    1.0397 O.3        1 <1>        0.000
     14 C11         0.1130    4.0694   -0.0479 C.3        1 <1>        0.000
     15 C30         2.6802   -4.9129    3.3252 C.3        1 <1>        0.000
     16 C31        -0.8104   -3.6652    3.4618 C.3        1 <1>        0.000
     17 C32        -0.6834   -1.1420    3.6077 C.2        1 <1>        0.000
     18 C16        -1.0503    4.0211    0.9414 C.2        1 <1>        0.000
     19 C19         2.2101   -2.1802    2.4412 C.3        1 <1>        0.000
     20 O5          2.6209    0.0649    3.1375 O.2        1 <1>        0.000
     21 C20        -1.2312    3.3200    2.0805 C.2        1 <1>        0.000
     22 C22         1.4102   -2.6267    3.6679 C.3        1 <1>        0.000
     23 C23         3.5708   -2.7905    2.3655 C.2        1 <1>        0.000
     24 C24        -2.3258    3.1574    3.0950 C.3        1 <1>        0.000
     25 C26         1.4780   -4.1526    3.9197 C.3        1 <1>        0.000
     26 C27        -0.0999   -2.3566    3.6101 C.2        1 <1>        0.000
     27 C28         3.7681   -4.0540    2.7650 C.2        1 <1>        0.000
     28 C29        -2.3063    1.9294    4.0474 C.3        1 <1>        0.000
     29 O8          0.1929   -4.6129    3.5987 O.3        1 <1>        0.000
     30 C35        -2.6656    0.5245    3.5976 C.2        1 <1>        0.000
     31 C37        -2.0229   -0.6525    3.4410 C.2        1 <1>        0.000
     32 H          -0.5566   -0.5885    0.5079 H.spc      1 <1>        0.000
     33 H          -1.1648    1.0153    1.3358 H.spc      1 <1>        0.000
     34 H          -2.5260    2.1252    0.2980 H.spc      1 <1>        0.000
     35 H          -2.1106    2.7095   -1.4583 H.spc      1 <1>        0.000
     36 H          -3.0096   -1.6426   -1.5941 H.spc      1 <1>        0.000
     37 H          -2.5133   -1.2954    0.1248 H.spc      1 <1>        0.000
     38 H           0.7323    1.0256    2.1231 H.spc      1 <1>        0.000
     39 H           1.3531    3.1007   -1.4099 H.spc      1 <1>        0.000
     40 H          -4.4729    2.0796   -0.9131 H.spc      1 <1>        0.000
     41 H          -3.6645    1.3304   -2.3325 H.spc      1 <1>        0.000
     42 H          -4.8237   -0.4114   -1.2196 H.spc      1 <1>        0.000
     43 H          -4.2138    0.1122    0.3764 H.spc      1 <1>        0.000
     44 H           1.5980    2.7881    1.3464 H.spc      1 <1>        0.000
     45 H           2.5082    1.8001    0.1058 H.spc      1 <1>        0.000
     46 H          -0.3022    4.5499   -0.9338 H.spc      1 <1>        0.000
     47 H           0.9207    4.5499    0.5042 H.spc      1 <1>        0.000
     48 H           2.2943   -5.5066    2.4965 H.spc      1 <1>        0.000
     49 H           3.1229   -5.4830    4.1420 H.spc      1 <1>        0.000
     50 H          -1.6000   -3.7914    4.2025 H.spc      1 <1>        0.000
     51 H          -1.3269   -3.7474    2.5054 H.spc      1 <1>        0.000
     52 H           0.0339   -0.3378    3.7717 H.spc      1 <1>        0.000
     53 H          -1.8856    4.6706    0.6799 H.spc      1 <1>        0.000
     54 H           1.6390   -2.5751    1.6010 H.spc      1 <1>        0.000
     55 H          -0.3577    2.7165    2.3274 H.spc      1 <1>        0.000
     56 H           1.8898   -2.0314    4.4449 H.spc      1 <1>        0.000
     57 H           4.4073   -2.2054    1.9835 H.spc      1 <1>        0.000
     58 H          -3.2349    3.0374    2.5058 H.spc      1 <1>        0.000
     59 H          -2.2251    4.0206    3.7529 H.spc      1 <1>        0.000
     60 H           1.7194   -4.3724    4.9596 H.spc      1 <1>        0.000
     61 H           4.7694   -4.4758    2.6774 H.spc      1 <1>        0.000
     62 H          -1.2535    1.8413    4.3155 H.spc      1 <1>        0.000
     63 H          -3.0875    2.1648    4.7702 H.spc      1 <1>        0.000
     64 H          -3.7195    0.4453    3.3310 H.spc      1 <1>        0.000
     65 H          -2.6978   -1.4367    3.0981 H.spc      1 <1>        0.000
@<TRIPOS>BOND
     1   30   31 2  
     2   28   30 1  
     3   17   31 1  
     4   29   16 1  
     5   10   11 1  
     6    8   14 1  
     7    8   12 1  
     8    7   13 1  
     9    7   12 1  
    10    6   11 1  
    11    4    8 1  
    12    5   10 1  
    13    1    3 1  
    14    2    6 1  
    15    1    5 1  
    16    3    7 1  
    17    1    2 1  
    18    1    4 1  
    19   13    9 1  
    20   18   21 2  
    21   14   18 1  
    22    9   19 1  
    23    9   20 2  
    24   19   23 1  
    25   19   22 1  
    26   21   24 1  
    27   22   25 1  
    28   22   26 1  
    29   23   27 2  
    30   24   28 1  
    31   25   29 1  
    32   25   15 1  
    33   26   16 1  
    34   26   17 2  
    35   27   15 1  
    36    3   32 1  
    37    3   33 1  
    38    5   34 1  
    39    5   35 1  
    40    6   36 1  
    41    6   37 1  
    42    7   38 1  
    43    8   39 1  
    44   10   40 1  
    45   10   41 1  
    46   11   42 1  
    47   11   43 1  
    48   12   44 1  
    49   12   45 1  
    50   14   46 1  
    51   14   47 1  
    52   15   48 1  
    53   15   49 1  
    54   16   50 1  
    55   16   51 1  
    56   17   52 1  
    57   18   53 1  
    58   19   54 1  
    59   21   55 1  
    60   22   56 1  
    61   23   57 1  
    62   24   58 1  
    63   24   59 1  
    64   25   60 1  
    65   27   61 1  
    66   28   62 1  
    67   28   63 1  
    68   30   64 1  
    69   31   65 1  
# Name:          frag5-575-138/138278 -- energy: -15.921583
# Creation time: Sat Jun  5 12:53:44 2010


@<TRIPOS>MOLECULE
frag5-575-138/138278 -- energy: -15.921583
   65    69     1     1     1
SMALL
USER_CHARGES


@<TRIPOS>ATOM
      1 C1         -1.0900    0.9959   -0.7625 C.3        1 <1>        0.000
      2 O1         -1.6113   -0.2000   -1.3231 O.3        1 <1>        0.000
      3 C2         -0.5436    0.4971    0.6052 C.3        1 <1>        0.000
      4 O2         -0.0348    1.7801   -1.2917 O.3        1 <1>        0.000
      5 C3         -2.3577    1.9120   -0.7576 C.3        1 <1>        0.000
      6 C4         -2.7553   -0.8831   -0.8548 C.3        1 <1>        0.000
      7 C5          0.9082    0.8079    1.0697 C.3        1 <1>        0.000
      8 C6          0.7437    2.7332   -0.5843 C.3        1 <1>        0.000
      9 C15         2.2565   -0.6982    2.2423 C.2        1 <1>        0.000
     10 C7         -3.6915    1.3959   -1.2448 C.3        1 <1>        0.000
     11 C9         -3.9795    0.0234   -0.6844 C.3        1 <1>        0.000
     12 C10         1.5398    2.0756    0.5235 C.3        1 <1>        0.000
     13 O3          1.8005   -0.2897    1.0397 O.3        1 <1>        0.000
     14 C11         0.1130    4.0694   -0.0479 C.3        1 <1>        0.000
     15 C30         2.6802   -4.9129    3.3252 C.3        1 <1>        0.000
     16 C31        -0.8104   -3.6652    3.4618 C.3        1 <1>        0.000
     17 C32        -0.6834   -1.1420    3.6077 C.2        1 <1>        0.000
     18 C16        -1.0503    4.0211    0.9414 C.2        1 <1>        0.000
     19 C19         2.2101   -2.1802    2.4412 C.3        1 <1>        0.000
     20 O5          2.6209    0.0649    3.1375 O.2        1 <1>        0.000
     21 C20        -1.2312    3.3200    2.0805 C.2        1 <1>        0.000
     22 C22         1.4102   -2.6267    3.6679 C.3        1 <1>        0.000
     23 C23         3.5708   -2.7905    2.3655 C.2        1 <1>        0.000
     24 C24        -2.3258    3.1574    3.0950 C.3        1 <1>        0.000
     25 C26         1.4780   -4.1526    3.9197 C.3        1 <1>        0.000
     26 C27        -0.0999   -2.3566    3.6101 C.2        1 <1>        0.000
     27 C28         3.7681   -4.0540    2.7650 C.2        1 <1>        0.000
     28 C29        -2.3063    1.9294    4.0474 C.3        1 <1>        0.000
     29 O8          0.1929   -4.6129    3.5987 O.3        1 <1>        0.000
     30 C35        -2.6656    0.5245    3.5976 C.2        1 <1>        0.000
     31 C37        -2.0229   -0.6525    3.4410 C.2        1 <1>        0.000
     32 H          -0.5566   -0.5885    0.5079 H.spc      1 <1>        0.000
     33 H          -1.1648    1.0153    1.3358 H.spc      1 <1>        0.000
     34 H          -2.5260    2.1252    0.2980 H.spc      1 <1>        0.000
     35 H          -2.1106    2.7095   -1.4583 H.spc      1 <1>        0.000
     36 H          -3.0096   -1.6426   -1.5941 H.spc      1 <1>        0.000
     37 H          -2.5133   -1.2954    0.1248 H.spc      1 <1>        0.000
     38 H           0.7323    1.0256    2.1231 H.spc      1 <1>        0.000
     39 H           1.3531    3.1007   -1.4099 H.spc      1 <1>        0.000
     40 H          -4.4729    2.0796   -0.9131 H.spc      1 <1>        0.000
     41 H          -3.6645    1.3304   -2.3325 H.spc      1 <1>        0.000
     42 H          -4.8237   -0.4114   -1.2196 H.spc      1 <1>        0.000
     43 H          -4.2138    0.1122    0.3764 H.spc      1 <1>        0.000
     44 H           1.5980    2.7881    1.3464 H.spc      1 <1>        0.000
     45 H           2.5082    1.8001    0.1058 H.spc      1 <1>        0.000
     46 H          -0.3022    4.5499   -0.9338 H.spc      1 <1>        0.000
     47 H           0.9207    4.5499    0.5042 H.spc      1 <1>        0.000
     48 H           2.2943   -5.5066    2.4965 H.spc      1 <1>        0.000
     49 H           3.1229   -5.4830    4.1420 H.spc      1 <1>        0.000
     50 H          -1.6000   -3.7914    4.2025 H.spc      1 <1>        0.000
     51 H          -1.3269   -3.7474    2.5054 H.spc      1 <1>        0.000
     52 H           0.0339   -0.3378    3.7717 H.spc      1 <1>        0.000
     53 H          -1.8856    4.6706    0.6799 H.spc      1 <1>        0.000
     54 H           1.6390   -2.5751    1.6010 H.spc      1 <1>        0.000
     55 H          -0.3577    2.7165    2.3274 H.spc      1 <1>        0.000
     56 H           1.8898   -2.0314    4.4449 H.spc      1 <1>        0.000
     57 H           4.4073   -2.2054    1.9835 H.spc      1 <1>        0.000
     58 H          -3.2349    3.0374    2.5058 H.spc      1 <1>        0.000
     59 H          -2.2251    4.0206    3.7529 H.spc      1 <1>        0.000
     60 H           1.7194   -4.3724    4.9596 H.spc      1 <1>        0.000
     61 H           4.7694   -4.4758    2.6774 H.spc      1 <1>        0.000
     62 H          -1.2535    1.8413    4.3155 H.spc      1 <1>        0.000
     63 H          -3.0875    2.1648    4.7702 H.spc      1 <1>        0.000
     64 H          -3.7195    0.4453    3.3310 H.spc      1 <1>        0.000
     65 H          -2.6978   -1.4367    3.0981 H.spc      1 <1>        0.000
@<TRIPOS>BOND
     1   30   31 2  
     2   28   30 1  
     3   17   31 1  
     4   29   16 1  
     5   10   11 1  
     6    8   14 1  
     7    8   12 1  
     8    7   13 1  
     9    7   12 1  
    10    6   11 1  
    11    4    8 1  
    12    5   10 1  
    13    1    3 1  
    14    2    6 1  
    15    1    5 1  
    16    3    7 1  
    17    1    2 1  
    18    1    4 1  
    19   13    9 1  
    20   18   21 2  
    21   14   18 1  
    22    9   19 1  
    23    9   20 2  
    24   19   23 1  
    25   19   22 1  
    26   21   24 1  
    27   22   25 1  
    28   22   26 1  
    29   23   27 2  
    30   24   28 1  
    31   25   29 1  
    32   25   15 1  
    33   26   16 1  
    34   26   17 2  
    35   27   15 1  
    36    3   32 1  
    37    3   33 1  
    38    5   34 1  
    39    5   35 1  
    40    6   36 1  
    41    6   37 1  
    42    7   38 1  
    43    8   39 1  
    44   10   40 1  
    45   10   41 1  
    46   11   42 1  
    47   11   43 1  
    48   12   44 1  
    49   12   45 1  
    50   14   46 1  
    51   14   47 1  
    52   15   48 1  
    53   15   49 1  
    54   16   50 1  
    55   16   51 1  
    56   17   52 1  
    57   18   53 1  
    58   19   54 1  
    59   21   55 1  
    60   22   56 1  
    61   23   57 1  
    62   24   58 1  
    63   24   59 1  
    64   25   60 1  
    65   27   61 1  
    66   28   62 1  
    67   28   63 1  
    68   30   64 1  
    69   31   65 1  
