#      Rotatable Fragment
#      Build by yxyuan
#
# Name:          frag5-529-94/41815
# Creation time: Sat Jun  5 12:52:51 2010


@<TRIPOS>MOLECULE
frag5-529-94/41815
   16    16     1     1     1
SMALL
USER_CHARGES


@<TRIPOS>ATOM
      1 C7          0.5007   -0.4382    0.3596 C.2        1 <1>        0.000
      2 C8         -0.6951   -0.3181   -0.2380 C.2        1 <1>        0.000
      3 C9         -1.9909   -0.7722    0.3446 C.ar       1 <1>        0.000
      4 C10        -2.9771    0.1115    0.8284 C.ar       1 <1>        0.000
      5 C11        -4.1554   -0.3624    1.4078 C.ar       1 <1>        0.000
      6 C12        -4.3956   -1.7350    1.4809 C.ar       1 <1>        0.000
      7 C13        -3.4554   -2.6296    0.9691 C.ar       1 <1>        0.000
      8 C14        -2.2716   -2.1491    0.4106 C.ar       1 <1>        0.000
      9 H           0.5735   -0.8966    1.3458 H.spc      1 <1>        0.000
     10 H           1.3990   -0.0773   -0.1413 H.spc      1 <1>        0.000
     11 H          -0.7212    0.1465   -1.2237 H.spc      1 <1>        0.000
     12 H          -2.8163    1.1866    0.7484 H.spc      1 <1>        0.000
     13 H          -4.8885    0.3405    1.8035 H.spc      1 <1>        0.000
     14 H          -5.3138   -2.1066    1.9359 H.spc      1 <1>        0.000
     15 H          -3.6459   -3.7022    1.0057 H.spc      1 <1>        0.000
     16 H          -1.5449   -2.8587    0.0149 H.spc      1 <1>        0.000
@<TRIPOS>BOND
     1    6    7 ar 
     2    7    8 ar 
     3    1    2 2  
     4    2    3 1  
     5    3    4 ar 
     6    3    8 ar 
     7    4    5 ar 
     8    5    6 ar 
     9    1    9 1  
    10    1   10 1  
    11    2   11 1  
    12    4   12 1  
    13    5   13 1  
    14    6   14 1  
    15    7   15 1  
    16    8   16 1  
# Name:          frag5-529-94/41815 -- energy: -0.577922
# Creation time: Sat Jun  5 12:52:51 2010


@<TRIPOS>MOLECULE
frag5-529-94/41815 -- energy: -0.577922
   16    16     1     1     1
SMALL
USER_CHARGES


@<TRIPOS>ATOM
      1 C7          0.5007   -0.4382    0.3596 C.2        1 <1>        0.000
      2 C8         -0.6951   -0.3181   -0.2380 C.2        1 <1>        0.000
      3 C9         -1.9909   -0.7722    0.3446 C.ar       1 <1>        0.000
      4 C10        -2.9771    0.1115    0.8284 C.ar       1 <1>        0.000
      5 C11        -4.1554   -0.3624    1.4078 C.ar       1 <1>        0.000
      6 C12        -4.3956   -1.7350    1.4809 C.ar       1 <1>        0.000
      7 C13        -3.4554   -2.6296    0.9691 C.ar       1 <1>        0.000
      8 C14        -2.2716   -2.1491    0.4106 C.ar       1 <1>        0.000
      9 H           0.5735   -0.8966    1.3458 H.spc      1 <1>        0.000
     10 H           1.3990   -0.0773   -0.1413 H.spc      1 <1>        0.000
     11 H          -0.7212    0.1465   -1.2237 H.spc      1 <1>        0.000
     12 H          -2.8163    1.1866    0.7484 H.spc      1 <1>        0.000
     13 H          -4.8885    0.3405    1.8035 H.spc      1 <1>        0.000
     14 H          -5.3138   -2.1066    1.9359 H.spc      1 <1>        0.000
     15 H          -3.6459   -3.7022    1.0057 H.spc      1 <1>        0.000
     16 H          -1.5449   -2.8587    0.0149 H.spc      1 <1>        0.000
@<TRIPOS>BOND
     1    6    7 ar 
     2    7    8 ar 
     3    1    2 2  
     4    2    3 1  
     5    3    4 ar 
     6    3    8 ar 
     7    4    5 ar 
     8    5    6 ar 
     9    1    9 1  
    10    1   10 1  
    11    2   11 1  
    12    4   12 1  
    13    5   13 1  
    14    6   14 1  
    15    7   15 1  
    16    8   16 1  
